@<TRIPOS>MOLECULE
tmp/3oa2B00.pdb
 248 246 0 0 0
SMALL
GASTEIGER

@<TRIPOS>ATOM
      1  N         42.6920    1.6480   41.5690 N.3     7  ILE7       -0.1231
      2  CA        43.7200    2.5210   41.0040 C.3     7  ILE7        0.1692
      3  C         43.0170    3.7540   40.4540 C.2     7  ILE7        0.2592
      4  O         42.0430    3.6180   39.6430 O.2     7  ILE7       -0.2718
      5  CB        44.5160    1.7990   39.9420 C.3     7  ILE7        0.0266
      6  CG1       45.2160    0.5860   40.5720 C.3     7  ILE7        0.0019
      7  CG2       45.4980    2.7850   39.3130 C.3     7  ILE7        0.0020
      8  CD1       46.0290   -0.2110   39.6040 C.3     7  ILE7        0.0001
      9  N         43.4580    4.9520   40.8680 N.am    8  GLY8       -0.1957
     10  CA        42.7370    6.1900   40.4880 C.3     8  GLY8        0.1869
     11  C         41.7090    6.5900   41.5390 C.2     8  GLY8        0.2309
     12  O         40.7540    7.3370   41.2290 O.2     8  GLY8       -0.2863
     13  N         41.3230    8.6390   43.9820 N.3    10  ALA10      -0.1231
     14  CA        41.0510   10.0110   44.4400 C.3    10  ALA10       0.1694
     15  C         40.2490   10.8310   43.4120 C.2    10  ALA10       0.2593
     16  O         39.9630   12.0150   43.6380 O.2    10  ALA10      -0.2718
     17  CB        42.3700   10.7260   44.8200 C.3    10  ALA10       0.0304
     18  N         39.8650   10.2150   42.2920 N.am   11  GLY11      -0.1942
     19  CA        39.2750   10.9910   41.2040 C.3    11  GLY11       0.2014
     20  C         37.7600   11.0440   41.1990 C.2    11  GLY11       0.2639
     21  O         37.1070   10.6600   42.1480 O.2    11  GLY11      -0.2714
     22  N         37.2190   11.5750   40.1380 N.am   12  TYR12      -0.1959
     23  CA        35.7840   11.8280   39.9920 C.3    12  TYR12       0.1771
     24  C         34.8940   10.5800   39.9610 C.2    12  TYR12       0.2619
     25  O         33.9190   10.5260   40.7130 O.2    12  TYR12      -0.2715
     26  CB        35.5270   12.6840   38.7250 C.3    12  TYR12       0.0574
     27  CG        34.0480   12.7270   38.3800 C.ar   12  TYR12      -0.0198
     28  CD1       33.5350   11.9340   37.3590 C.ar   12  TYR12      -0.0009
     29  CD2       33.1720   13.5200   39.1060 C.ar   12  TYR12      -0.0009
     30  CE1       32.1590   11.9500   37.0500 C.ar   12  TYR12       0.0417
     31  CE2       31.7830   13.5560   38.7950 C.ar   12  TYR12       0.0417
     32  CZ        31.3060   12.7600   37.7740 C.ar   12  TYR12       0.1957
     33  OH        29.9560   12.7740   37.4690 O.3    12  TYR12      -0.2866
     34  N         35.2300    9.5730   39.1630 N.am   13  ILE13      -0.1977
     35  CA        34.4000    8.3870   39.0000 C.3    13  ILE13       0.1596
     36  C         34.6690    7.3730   40.1330 C.2    13  ILE13       0.2287
     37  O         33.8660    6.4520   40.3750 O.2    13  ILE13      -0.2864
     38  CB        34.5330    7.7490   37.5850 C.3    13  ILE13       0.0276
     39  CG1       33.3010    6.9000   37.3210 C.3    13  ILE13       0.0022
     40  CG2       35.8100    6.9030   37.4180 C.3    13  ILE13       0.0022
     41  CD1       32.0880    7.7500   37.2060 C.3    13  ILE13       0.0001
     42  N         32.1030    5.8380   42.6060 N.3    16  ARG16      -0.1245
     43  CA        31.1390    4.8190   42.0780 C.3    16  ARG16       0.1563
     44  C         31.6610    3.3900   42.1600 C.2    16  ARG16       0.2260
     45  O         30.8990    2.4310   42.3750 O.2    16  ARG16      -0.2867
     46  CB        30.6950    5.0840   40.6350 C.3    16  ARG16       0.0307
     47  CG        30.2260    6.5010   40.4180 C.3    16  ARG16       0.0489
     48  CD        29.2620    6.6310   39.2770 C.3    16  ARG16       0.2205
     49  NE        29.0250    8.0500   39.0410 N.pl3  16  ARG16      -0.0865
     50  CZ        28.5510    8.5570   37.9100 C.cat  16  ARG16       0.5346
     51  NH1       28.2390    7.7600   36.8960 N.pl3  16  ARG16       0.1354
     52  NH2       28.3890    9.8660   37.7990 N.pl3  16  ARG16       0.1354
     53  N         45.0750    3.2220   45.3770 N.3    32  TYR32      -0.1227
     54  CA        46.2640    3.9480   44.9460 C.3    32  TYR32       0.1736
     55  C         45.8960    5.1180   44.0820 C.2    32  TYR32       0.2595
     56  O         45.1080    4.9540   43.1260 O.2    32  TYR32      -0.2718
     57  CB        47.1810    2.9690   44.1950 C.3    32  TYR32       0.0548
     58  CG        48.1950    3.5760   43.2460 C.ar   32  TYR32      -0.0200
     59  CD1       49.0590    4.5980   43.6680 C.ar   32  TYR32      -0.0009
     60  CD2       48.2920    3.1470   41.9140 C.ar   32  TYR32      -0.0009
     61  CE1       49.9730    5.1810   42.7490 C.ar   32  TYR32       0.0417
     62  CE2       49.2160    3.6960   40.9770 C.ar   32  TYR32       0.0417
     63  CZ        50.0620    4.7180   41.4120 C.ar   32  TYR32       0.1957
     64  OH        50.9600    5.3130   40.6160 O.3    32  TYR32      -0.2866
     65  N         46.4670    6.2700   44.4050 N.am   33  ASP33      -0.1960
     66  CA        46.2930    7.4170   43.5260 C.3    33  ASP33       0.1840
     67  C         47.4420    8.3290   43.8200 C.2    33  ASP33       0.2622
     68  O         47.8720    8.4150   44.9620 O.2    33  ASP33      -0.2715
     69  CB        44.9850    8.1470   43.9070 C.3    33  ASP33       0.1450
     70  CG        44.5640    9.1640   42.8540 C.2    33  ASP33       0.3671
     71  OD1       45.4040   10.0800   42.5360 O.co2  33  ASP33      -0.2456
     72  OD2       43.4410    8.9920   42.2770 O.co2  33  ASP33      -0.2456
     73  N         47.9750    8.9630   42.7860 N.am   34  ILE34      -0.1963
     74  CA        49.1540    9.8390   42.9760 C.3    34  ILE34       0.1727
     75  C         48.7930   11.1100   43.7850 C.2    34  ILE34       0.2616
     76  O         49.6780   11.8200   44.2710 O.2    34  ILE34      -0.2715
     77  CB        49.8850   10.1800   41.6570 C.3    34  ILE34       0.0290
     78  CG1       48.9230   10.8600   40.6810 C.3    34  ILE34       0.0022
     79  CG2       50.4560    8.8920   41.0190 C.3    34  ILE34       0.0023
     80  CD1       49.6760   11.4090   39.4220 C.3    34  ILE34       0.0001
     81  N         47.5010   11.4090   43.8590 N.am   35  ASN35      -0.1972
     82  CA        46.9670   12.5480   44.6670 C.3    35  ASN35       0.1688
     83  C         46.4110   11.9540   45.9710 C.2    35  ASN35       0.2292
     84  O         45.6770   10.9910   45.9670 O.2    35  ASN35      -0.2864
     85  CB        45.8390   13.2250   43.8630 C.3    35  ASN35       0.1181
     86  CG        45.1160   14.2870   44.6580 C.2    35  ASN35       0.2629
     87  OD1       45.5890   14.7090   45.7250 O.2    35  ASN35      -0.2716
     88  ND2       43.9900   14.7630   44.1250 N.am   35  ASN35      -0.0877
     89  N         40.4980    3.3430   37.3790 N.3    78  CYS78      -0.1221
     90  CA        39.8610    4.6070   37.0550 C.3    78  CYS78       0.1808
     91  C         40.8850    5.7040   36.8200 C.2    78  CYS78       0.2602
     92  O         40.6240    6.8580   37.1680 O.2    78  CYS78      -0.2717
     93  CB        39.0400    5.0540   38.2510 C.3    78  CYS78       0.0970
     94  SG        37.7240    3.9430   38.6920 S.3    78  CYS78      -0.0800
     95  N         42.0500    5.3440   36.3080 N.am   79  SER79      -0.1938
     96  CA        43.0790    6.3500   36.0570 C.3    79  SER79       0.2040
     97  C         42.8570    7.0600   34.7110 C.2    79  SER79       0.2485
     98  O         41.9980    6.6780   33.9220 O.2    79  SER79      -0.2729
     99  CB        44.4280    5.5840   36.0270 C.3    79  SER79       0.2129
    100  OG        44.3280    4.4580   35.1560 O.3    79  SER79      -0.2179
    101  N         43.6880    8.0580   34.4040 N.am   80  PRO80      -0.2715
    102  CA        43.6060    8.6580   33.0500 C.3    80  PRO80       0.1536
    103  C         43.7600    7.6750   31.8970 C.2    80  PRO80       0.2599
    104  O         44.4500    6.6580   32.0590 O.2    80  PRO80      -0.2715
    105  CB        44.7700    9.6720   33.0440 C.3    80  PRO80       0.0310
    106  CG        44.8340   10.1060   34.5180 C.3    80  PRO80       0.0237
    107  CD        44.6300    8.7600   35.2940 C.3    80  PRO80       0.0939
    108  N         43.1490    7.9500   30.7330 N.am   81  ASN81      -0.1959
    109  CA        43.1010    6.9610   29.6800 C.3    81  ASN81       0.1819
    110  C         44.4290    6.3610   29.2440 C.2    81  ASN81       0.2621
    111  O         44.5330    5.1600   29.0460 O.2    81  ASN81      -0.2715
    112  CB        42.3900    7.5480   28.4490 C.3    81  ASN81       0.1195
    113  CG        40.9800    7.9680   28.7640 C.2    81  ASN81       0.2630
    114  OD1       40.4150    7.5520   29.7880 O.2    81  ASN81      -0.2716
    115  ND2       40.3990    8.8180   27.9150 N.am   81  ASN81      -0.0877
    116  N         45.4540    7.1910   29.1100 N.am   82  TYR82      -0.1960
    117  CA        46.7410    6.6790   28.7050 C.3    82  TYR82       0.1771
    118  C         47.3840    5.6890   29.6730 C.2    82  TYR82       0.2619
    119  O         48.3000    4.9500   29.2570 O.2    82  TYR82      -0.2715
    120  CB        47.7240    7.8340   28.3970 C.3    82  TYR82       0.0574
    121  CG        48.4100    8.4390   29.6010 C.ar   82  TYR82      -0.0198
    122  CD1       49.7590    8.1670   29.8580 C.ar   82  TYR82      -0.0009
    123  CD2       47.7330    9.3060   30.4680 C.ar   82  TYR82      -0.0009
    124  CE1       50.3950    8.7150   30.9420 C.ar   82  TYR82       0.0417
    125  CE2       48.3690    9.8570   31.5630 C.ar   82  TYR82       0.0417
    126  CZ        49.7180    9.5600   31.7940 C.ar   82  TYR82       0.1957
    127  OH        50.3590   10.0710   32.9080 O.3    82  TYR82      -0.2866
    128  N         46.9370    5.6830   30.9480 N.am   83  LEU83      -0.1963
    129  CA        47.4890    4.7920   31.9490 C.3    83  LEU83       0.1728
    130  C         46.7060    3.5070   32.0200 C.2    83  LEU83       0.2616
    131  O         47.1270    2.5880   32.7030 O.2    83  LEU83      -0.2715
    132  CB        47.5470    5.4860   33.3250 C.3    83  LEU83       0.0311
    133  CG        48.7130    6.4950   33.4140 C.3    83  LEU83       0.0022
    134  CD1       48.3690    7.6200   34.4350 C.3    83  LEU83       0.0001
    135  CD2       49.9410    5.7800   33.9340 C.3    83  LEU83       0.0001
    136  N         45.6090    3.3820   31.2660 N.am   84  HIS84      -0.1973
    137  CA        44.8610    2.1040   31.3840 C.3    84  HIS84       0.1656
    138  C         45.7320    0.9180   31.0130 C.2    84  HIS84       0.2291
    139  O         45.7670   -0.0940   31.7560 O.2    84  HIS84      -0.2864
    140  CB        43.5790    2.1250   30.5440 C.3    84  HIS84       0.0771
    141  CG        42.5490    3.0950   31.0340 C.ar   84  HIS84       0.0820
    142  ND1       41.3260    3.2550   30.4060 N.ar   84  HIS84      -0.2267
    143  CD2       42.5430    3.9400   32.0930 C.ar   84  HIS84       0.1154
    144  CE1       40.6220    4.1590   31.0700 C.ar   84  HIS84       0.1986
    145  NE2       41.3550    4.6280   32.0610 N.ar   84  HIS84      -0.2212
    146  N         48.3040   -0.0780   33.7520 N.3    87  HIS87      -0.1241
    147  CA        47.5830   -0.4940   34.9400 C.3    87  HIS87       0.1621
    148  C         46.9860   -1.8690   34.7420 C.2    87  HIS87       0.2264
    149  O         47.0250   -2.6770   35.6380 O.2    87  HIS87      -0.2867
    150  CB        46.5720    0.5730   35.3420 C.3    87  HIS87       0.0745
    151  CG        47.2200    1.7810   35.9800 C.ar   87  HIS87       0.0817
    152  ND1       46.6430    3.0390   35.9930 N.ar   87  HIS87      -0.2268
    153  CD2       48.4100    1.9040   36.6290 C.ar   87  HIS87       0.1154
    154  CE1       47.4460    3.8890   36.6220 C.ar   87  HIS87       0.1986
    155  NE2       48.5140    3.2180   37.0390 N.ar   87  HIS87      -0.2212
    156  N         37.8710    1.1190   33.3660 N.3   101  GLU101     -0.1231
    157  CA        36.9470    2.1050   32.8240 C.3   101  GLU101      0.1699
    158  C         37.0920    2.2830   31.3300 C.2   101  GLU101      0.2592
    159  O         38.1420    1.9400   30.7440 O.2   101  GLU101     -0.2718
    160  CB        37.1150    3.4730   33.4960 C.3   101  GLU101      0.0402
    161  CG        36.3220    3.6030   34.7510 C.3   101  GLU101      0.1161
    162  CD        34.8480    3.6310   34.4730 C.2   101  GLU101      0.3649
    163  OE1       34.4460    3.6220   33.2840 O.co2 101  GLU101     -0.2457
    164  OE2       34.1350    3.7420   35.4820 O.co2 101  GLU101     -0.2457
    165  N         36.0560    2.8600   30.6920 N.am  102  LYS102     -0.1966
    166  CA        36.1290    3.1990   29.2510 C.3   102  LYS102      0.1713
    167  C         36.7930    4.5900   29.1620 C.2   102  LYS102      0.2458
    168  O         36.7200    5.3710   30.1300 O.2   102  LYS102     -0.2730
    169  CB        34.7020    3.2750   28.6950 C.3   102  LYS102      0.0311
    170  CG        33.8590    4.3270   29.4390 C.3   102  LYS102      0.0038
    171  CD        33.7770    5.6730   28.6420 C.3   102  LYS102      0.0206
    172  CE        32.8570    6.7620   29.3050 C.3   102  LYS102      0.1093
    173  NZ        32.7930    8.0370   28.4780 N.3   102  LYS102     -0.1314
    174  N         37.4230    4.9080   28.0380 N.am  103  PRO103     -0.2727
    175  CA        37.7150    3.9880   26.9400 C.3   103  PRO103      0.1402
    176  C         38.7620    3.0030   27.3860 C.2   103  PRO103      0.2269
    177  O         39.7320    3.3950   28.0880 O.2   103  PRO103     -0.2865
    178  CB        38.3370    4.9070   25.8570 C.3   103  PRO103      0.0296
    179  CG        38.9510    6.0760   26.7070 C.3   103  PRO103      0.0237
    180  CD        37.9430    6.2720   27.7900 C.3   103  PRO103      0.0939
    181  N         34.0640   -1.5760   31.7110 N.3   128  ILE128     -0.1245
    182  CA        32.8180   -0.9160   32.0420 C.3   128  ILE128      0.1561
    183  C         32.1170   -0.3690   30.7860 C.2   128  ILE128      0.2260
    184  O         32.5850    0.5840   30.1400 O.2   128  ILE128     -0.2867
    185  CB        33.0380    0.2050   33.0870 C.3   128  ILE128      0.0252
    186  CG1       33.7200   -0.3790   34.3400 C.3   128  ILE128      0.0019
    187  CG2       31.6980    0.7980   33.5410 C.3   128  ILE128      0.0019
    188  CD1       32.8580   -1.3890   35.1260 C.3   128  ILE128      0.0001
    189  N         28.5760    0.4430   30.8640 N.3   130  GLN130     -0.1245
    190  CA        27.4200    0.3990   31.7600 C.3   130  GLN130      0.1566
    191  C         26.0690    0.6220   31.0460 C.2   130  GLN130      0.2260
    192  O         25.0580    0.0850   31.5130 O.2   130  GLN130     -0.2867
    193  CB        27.5970    1.2960   32.9660 C.3   130  GLN130      0.0367
    194  CG        27.2570    2.7360   32.6940 C.3   130  GLN130      0.0905
    195  CD        28.4680    3.5340   32.2440 C.2   130  GLN130      0.2608
    196  OE1       29.5340    2.9820   31.9660 O.2   130  GLN130     -0.2717
    197  NE2       28.3130    4.8420   32.1920 N.am  130  GLN130     -0.0878
    198  N         44.1830   16.4040   32.3030 N.3   171  TRP171     -0.1227
    199  CA        44.6390   15.4030   31.3310 C.3   171  TRP171      0.1737
    200  C         43.5860   15.2320   30.2500 C.2   171  TRP171      0.2595
    201  O         43.8760   14.7480   29.1700 O.2   171  TRP171     -0.2718
    202  CB        44.9250   14.0520   32.0320 C.3   171  TRP171      0.0564
    203  CG        43.6930   13.3750   32.6480 C.ar  171  TRP171      0.0003
    204  CD1       43.2340   13.4780   33.9550 C.ar  171  TRP171      0.0946
    205  CD2       42.7950   12.4650   31.9940 C.ar  171  TRP171      0.0152
    206  NE1       42.1220   12.6960   34.1300 N.ar  171  TRP171     -0.2442
    207  CE2       41.8020   12.0890   32.9400 C.ar  171  TRP171      0.0810
    208  CE3       42.7090   11.9630   30.6980 C.ar  171  TRP171      0.0012
    209  CZ2       40.7730   11.2030   32.6330 C.ar  171  TRP171      0.0191
    210  CZ3       41.6550   11.0970   30.3820 C.ar  171  TRP171      0.0001
    211  CH2       40.7050   10.7270   31.3540 C.ar  171  TRP171      0.0015
    212  N         42.3430   15.5680   30.5570 N.am  172  LYS172     -0.1980
    213  CA        41.2430   15.2940   29.6110 C.3   172  LYS172      0.1596
    214  C         41.3760   16.2250   28.4300 C.2   172  LYS172      0.2287
    215  O         40.8310   15.9930   27.3580 O.2   172  LYS172     -0.2864
    216  CB        39.8960   15.4860   30.2940 C.3   172  LYS172      0.0298
    217  CG        39.6480   14.4140   31.3510 C.3   172  LYS172      0.0038
    218  CD        38.5820   14.8640   32.2990 C.3   172  LYS172      0.0206
    219  CE        38.3970   13.7590   33.3620 C.3   172  LYS172      0.1093
    220  NZ        37.1790   13.8860   34.1180 N.3   172  LYS172     -0.1314
    221  N         37.4690    9.7660   24.1830 N.3   184  ASN184     -0.1240
    222  CA        37.1720   10.0700   25.6040 C.3   184  ASN184      0.1653
    223  C         35.6820   10.3150   25.9130 C.2   184  ASN184      0.2266
    224  O         35.1520    9.8020   26.9130 O.2   184  ASN184     -0.2867
    225  CB        38.0390   11.2600   26.1320 C.3   184  ASN184      0.1155
    226  CG        37.9330   11.4320   27.6450 C.2   184  ASN184      0.2627
    227  OD1       37.9640   10.4570   28.3800 O.2   184  ASN184     -0.2716
    228  ND2       37.8330   12.6560   28.1050 N.am  184  ASN184     -0.0877
    229  N         31.3820    5.2860   24.7020 N.3   188  HIS188     -0.1241
    230  CA        30.2530    4.4700   25.2010 C.3   188  HIS188      0.1621
    231  C         28.9460    4.6790   24.4110 C.2   188  HIS188      0.2264
    232  O         28.1110    3.7490   24.3320 O.2   188  HIS188     -0.2867
    233  CB        30.0200    4.6680   26.7060 C.3   188  HIS188      0.0745
    234  CG        29.6190    6.0570   27.0680 C.ar  188  HIS188      0.0817
    235  ND1       28.5190    6.3360   27.8500 N.ar  188  HIS188     -0.2268
    236  CD2       30.1600    7.2550   26.7350 C.ar  188  HIS188      0.1154
    237  CE1       28.4050    7.6460   27.9910 C.ar  188  HIS188      0.1986
    238  NE2       29.3890    8.2250   27.3260 N.ar  188  HIS188     -0.2212
    239  N         26.9440    1.4110   37.5400 N.3   261  HIS261     -0.1241
    240  CA        28.2510    0.8510   37.8630 C.3   261  HIS261      0.1621
    241  C         28.1130   -0.3050   38.8340 C.2   261  HIS261      0.2264
    242  O         28.8010   -1.3260   38.7060 O.2   261  HIS261     -0.2867
    243  CB        29.1770    1.9030   38.4860 C.3   261  HIS261      0.0745
    244  CG        29.9570    2.6920   37.4720 C.ar  261  HIS261      0.0817
    245  ND1       29.3610    3.5800   36.5980 N.ar  261  HIS261     -0.2268
    246  CD2       31.2880    2.7230   37.1980 C.ar  261  HIS261      0.1154
    247  CE1       30.2930    4.1310   35.8360 C.ar  261  HIS261      0.1986
    248  NE2       31.4690    3.6360   36.1840 N.ar  261  HIS261     -0.2212
@<TRIPOS>BOND
     1   221   222    1
     2   232   231    2
     3   231   230    1
     4   229   230    1
     5   230   233    1
     6   222   223    1
     7   222   225    1
     8   178   179    1
     9   178   175    1
    10   223   224    2
    11   225   226    1
    12   233   234    1
    13   179   180    1
    14   236   234   ar
    15   236   238   ar
    16   175   176    1
    17   175   174    1
    18   234   235   ar
    19   238   237   ar
    20   215   214    2
    21   176   177    2
    22   226   228   am
    23   226   227    2
    24   180   174    1
    25   235   237   ar
    26   115   113   am
    27   174   167   am
    28   120   117    1
    29   120   121    1
    30   214   213    1
    31   112   113    1
    32   112   109    1
    33   173   172    1
    34   171   172    1
    35   171   170    1
    36   169   166    1
    37   169   170    1
    38   117   116    1
    39   117   118    1
    40   113   114    2
    41   111   110    2
    42   116   110   am
    43   167   166    1
    44   167   168    2
    45   201   200    2
    46   110   109    1
    47   166   165    1
    48   119   118    2
    49   121   122   ar
    50   121   123   ar
    51   213   216    1
    52   213   212    1
    53   118   128   am
    54   109   108    1
    55   122   124   ar
    56   184   183    2
    57   200   212   am
    58   200   199    1
    59   216   217    1
    60   210   208   ar
    61   210   211   ar
    62   142   141   ar
    63   142   144   ar
    64   123   125   ar
    65   140   141    1
    66   140   137    1
    67   165   158   am
    68   208   205   ar
    69   108   103   am
    70   159   158    2
    71   183   182    1
    72   189   190    1
    73   124   126   ar
    74   128   129    1
    75   138   137    1
    76   138   139    2
    77   141   143   ar
    78   191   192    2
    79   191   190    1
    80   144   145   ar
    81   136   137    1
    82   136   130   am
    83   158   157    1
    84   199   202    1
    85   199   198    1
    86   217   218    1
    87   211   209   ar
    88   125   126   ar
    89   181   182    1
    90   190   193    1
    91   126   127    1
    92   103   104    2
    93   103   102    1
    94   129   130    1
    95   129   132    1
    96   196   195    2
    97   205   203   ar
    98   205   207   ar
    99   130   131    2
   100   202   203    1
   101   182   185    1
   102   145   143   ar
   103   197   195   am
   104   195   194    1
   105   218   219    1
   106   209   207   ar
   107   203   204   ar
   108   194   193    1
   109   157   156    1
   110   157   160    1
   111   207   206   ar
   112   105   102    1
   113   105   106    1
   114   102   101    1
   115   185   187    1
   116   185   186    1
   117   163   162   ar
   118   132   133    1
   119   219   220    1
   120   133   135    1
   121   133   134    1
   122   160   161    1
   123   146   147    1
   124    98    97    2
   125   204   206   ar
   126   186   188    1
   127   101    97   am
   128   101   107    1
   129   162   161    1
   130   162   164   ar
   131   106   107    1
   132    97    96    1
   133   148   147    1
   134   148   149    2
   135   147   150    1
   136   100    99    1
   137   150   151    1
   138   247   248   ar
   139   247   245   ar
   140   151   152   ar
   141   151   153   ar
   142   152   154   ar
   143    99    96    1
   144    96    95    1
   145   248   246   ar
   146    95    91   am
   147   245   244   ar
   148   154   155   ar
   149   153   155   ar
   150    91    90    1
   151    91    92    2
   152    51    50    1
   153    30    28   ar
   154    30    32   ar
   155    90    89    1
   156    90    93    1
   157   246   244   ar
   158    41    39    1
   159    39    38    1
   160    28    27   ar
   161    40    38    1
   162    33    32    1
   163   244   243    1
   164   239   240    1
   165    38    35    1
   166    32    31   ar
   167    52    50    1
   168   240   243    1
   169   240   241    1
   170    50    49    2
   171    93    94    1
   172    27    26    1
   173    27    29   ar
   174   242   241    2
   175    26    23    1
   176    31    29   ar
   177    35    34    1
   178    35    36    1
   179    49    48    1
   180    34    24   am
   181    48    47    1
   182     7     5    1
   183    80    78    1
   184     8     6    1
   185     4     3    2
   186     5     6    1
   187     5     2    1
   188    24    23    1
   189    24    25    2
   190    23    22    1
   191    36    37    2
   192    22    20   am
   193    47    46    1
   194     3     9   am
   195     3     2    1
   196    10     9    1
   197    10    11    1
   198    64    63    1
   199    46    43    1
   200    78    77    1
   201    62    63   ar
   202    62    60   ar
   203     2     1    1
   204    79    77    1
   205    20    19    1
   206    20    21    2
   207    19    18    1
   208    12    11    2
   209    63    61   ar
   210    77    74    1
   211    60    58   ar
   212    43    44    1
   213    43    42    1
   214    44    45    2
   215    72    70   ar
   216    18    15   am
   217    71    70   ar
   218    61    59   ar
   219    73    74    1
   220    73    67   am
   221    70    69    1
   222    74    75    1
   223    56    55    2
   224    58    59   ar
   225    58    57    1
   226    15    16    2
   227    15    14    1
   228    66    67    1
   229    66    69    1
   230    66    65    1
   231    75    81   am
   232    75    76    2
   233    67    68    2
   234    81    82    1
   235    85    86    1
   236    85    82    1
   237    13    14    1
   238    55    65   am
   239    55    54    1
   240    88    86   am
   241    57    54    1
   242    14    17    1
   243    86    87    2
   244    82    83    1
   245    54    53    1
   246    84    83    2
