@<TRIPOS>MOLECULE
tmp/3oa5A00.pdb
 146 140 0 0 0
SMALL
GASTEIGER

@<TRIPOS>ATOM
      1  N         -7.3860   58.8770    0.6490 N.3    70  THR70      -0.1218
      2  CA        -7.0850   58.2730   -0.6580 C.3    70  THR70       0.1862
      3  C         -8.1440   57.2200   -1.0260 C.2    70  THR70       0.2287
      4  O         -8.6300   56.4770   -0.1660 O.2    70  THR70      -0.2866
      5  CB        -5.6760   57.6570   -0.7070 C.3    70  THR70       0.1770
      6  OG1       -5.6260   56.5610    0.2540 O.3    70  THR70      -0.2211
      7  CG2       -4.5890   58.6940   -0.4190 C.3    70  THR70       0.0375
      8  N         -7.8760   54.5280   -2.7250 N.3    72  TRP72      -0.1241
      9  CA        -7.4120   53.1640   -2.8250 C.3    72  TRP72       0.1605
     10  C         -7.1820   52.5440   -1.4520 C.2    72  TRP72       0.2264
     11  O         -6.9490   51.3030   -1.3550 O.2    72  TRP72      -0.2867
     12  CB        -6.1630   53.0440   -3.7250 C.3    72  TRP72       0.0550
     13  CG        -4.9780   53.8140   -3.2830 C.ar   72  TRP72       0.0003
     14  CD1       -3.9340   53.3500   -2.5290 C.ar   72  TRP72       0.0946
     15  CD2       -4.7210   55.2070   -3.5140 C.ar   72  TRP72       0.0152
     16  NE1       -3.0270   54.3540   -2.2980 N.ar   72  TRP72      -0.2442
     17  CE2       -3.4800   55.5150   -2.8940 C.ar   72  TRP72       0.0810
     18  CE3       -5.3970   56.2100   -4.2240 C.ar   72  TRP72       0.0012
     19  CZ2       -2.8980   56.7800   -2.9730 C.ar   72  TRP72       0.0191
     20  CZ3       -4.8460   57.4880   -4.2740 C.ar   72  TRP72       0.0001
     21  CH2       -3.6030   57.7660   -3.6500 C.ar   72  TRP72       0.0015
     22  N         -4.9790   48.0460    2.6170 N.3    90  ARG90      -0.1245
     23  CA        -4.9740   48.8720    3.8090 C.3    90  ARG90       0.1563
     24  C         -6.2960   48.7330    4.5490 C.2    90  ARG90       0.2260
     25  O         -6.3700   49.0400    5.7180 O.2    90  ARG90      -0.2867
     26  CB        -4.7510   50.3430    3.4040 C.3    90  ARG90       0.0307
     27  CG        -3.3100   50.5740    2.9440 C.3    90  ARG90       0.0489
     28  CD        -3.1650   51.9330    2.2820 C.3    90  ARG90       0.2205
     29  NE        -1.8290   52.1640    1.7490 N.pl3  90  ARG90      -0.0865
     30  CZ        -1.4260   51.7640    0.5560 C.cat  90  ARG90       0.5346
     31  NH1       -2.2700   51.1210   -0.2520 N.pl3  90  ARG90       0.1354
     32  NH2       -0.1590   52.0210    0.1630 N.pl3  90  ARG90       0.1354
     33  N          1.0360   63.2870   -7.1920 N.3   210  TRP210     -0.1241
     34  CA         2.3810   63.0290   -7.7410 C.3   210  TRP210      0.1605
     35  C          2.3100   62.2620   -9.0610 C.2   210  TRP210      0.2264
     36  O          2.9980   62.6210   -9.9940 O.2   210  TRP210     -0.2867
     37  CB         3.2140   62.2080   -6.6980 C.3   210  TRP210      0.0550
     38  CG         4.6560   61.9280   -7.1060 C.ar  210  TRP210      0.0003
     39  CD1        5.2130   60.7170   -7.4210 C.ar  210  TRP210      0.0946
     40  CD2        5.7090   62.8990   -7.2120 C.ar  210  TRP210      0.0152
     41  NE1        6.5710   60.8840   -7.7330 N.ar  210  TRP210     -0.2442
     42  CE2        6.8900   62.2070   -7.6040 C.ar  210  TRP210      0.0810
     43  CE3        5.7620   64.2910   -7.0340 C.ar  210  TRP210      0.0012
     44  CZ2        8.1410   62.8620   -7.7740 C.ar  210  TRP210      0.0191
     45  CZ3        6.9990   64.9520   -7.1910 C.ar  210  TRP210      0.0001
     46  CH2        8.1700   64.2350   -7.5680 C.ar  210  TRP210      0.0015
     47  N          8.3900   63.4560    2.3540 N.3   321  ASP321     -0.1239
     48  CA         9.2530   62.8460    1.3250 C.3   321  ASP321      0.1674
     49  C         10.5770   63.6000    1.1430 C.2   321  ASP321      0.2266
     50  O         11.1380   63.5820    0.0430 O.2   321  ASP321     -0.2867
     51  CB         8.5480   62.6710   -0.0380 C.3   321  ASP321      0.1410
     52  CG         7.3490   61.7540    0.0200 C.2   321  ASP321      0.3668
     53  OD1        7.1580   60.9620    1.0110 O.co2 321  ASP321     -0.2456
     54  OD2        6.5780   61.7680   -0.9740 O.co2 321  ASP321     -0.2456
     55  N         14.7130   60.9170    0.0160 N.3   324  THR324     -0.1218
     56  CA        14.5390   60.1790   -1.2440 C.3   324  THR324      0.1862
     57  C         15.7880   59.3340   -1.3730 C.2   324  THR324      0.2287
     58  O         16.8840   59.8590   -1.1830 O.2   324  THR324     -0.2866
     59  CB        14.6160   61.1630   -2.4440 C.3   324  THR324      0.1770
     60  OG1       13.6690   62.2020   -2.2890 O.3   324  THR324     -0.2211
     61  CG2       14.3970   60.4540   -3.8070 C.3   324  THR324      0.0375
     62  N          3.0290   57.9960    7.3490 N.3   374  TYR374     -0.1241
     63  CA         3.8880   56.9520    6.8490 C.3   374  TYR374      0.1605
     64  C          5.3560   57.4130    7.0210 C.2   374  TYR374      0.2264
     65  O          5.6380   58.5920    7.3930 O.2   374  TYR374     -0.2867
     66  CB         3.6230   56.6780    5.3380 C.3   374  TYR374      0.0534
     67  CG         3.9740   57.8630    4.5140 C.ar  374  TYR374     -0.0201
     68  CD1        3.0760   58.9150    4.3740 C.ar  374  TYR374     -0.0009
     69  CD2        5.2210   57.9690    3.9380 C.ar  374  TYR374     -0.0009
     70  CE1        3.4080   60.0450    3.6540 C.ar  374  TYR374      0.0417
     71  CE2        5.5880   59.0840    3.2500 C.ar  374  TYR374      0.0417
     72  CZ         4.6760   60.1130    3.0720 C.ar  374  TYR374      0.1957
     73  OH         5.0800   61.2520    2.3330 O.3   374  TYR374     -0.2866
     74  N          9.7850   56.9420    5.7070 N.3   376  ARG376     -0.1245
     75  CA        10.7250   56.7710    4.6120 C.3   376  ARG376      0.1563
     76  C         11.9400   56.1000    5.2780 C.2   376  ARG376      0.2260
     77  O         12.4680   56.6010    6.2980 O.2   376  ARG376     -0.2867
     78  CB        11.1070   58.1290    4.0110 C.3   376  ARG376      0.0307
     79  CG        10.0240   58.7810    3.1370 C.3   376  ARG376      0.0489
     80  CD         9.8800   58.0210    1.8120 C.3   376  ARG376      0.2205
     81  NE         8.7790   58.6170    1.0270 N.pl3 376  ARG376     -0.0865
     82  CZ         8.4240   58.1180   -0.1490 C.cat 376  ARG376      0.5346
     83  NH1        9.1390   57.1150   -0.6870 N.pl3 376  ARG376      0.1354
     84  NH2        7.3740   58.6200   -0.8150 N.pl3 376  ARG376      0.1354
     85  N          4.6380   49.2390   -0.1070 N.3   408  GLU408     -0.1245
     86  CA         5.6200   49.5100   -1.1700 C.3   408  GLU408      0.1567
     87  C          6.9500   49.5910   -0.4800 C.2   408  GLU408      0.2260
     88  O          6.9870   49.9280    0.7170 O.2   408  GLU408     -0.2867
     89  CB         5.2960   50.7890   -1.9520 C.3   408  GLU408      0.0388
     90  CG         5.2480   52.0150   -1.1200 C.3   408  GLU408      0.1160
     91  CD         3.8170   52.5040   -0.7170 C.2   408  GLU408      0.3649
     92  OE1        2.8010   51.8820   -1.0900 O.co2 408  GLU408     -0.2457
     93  OE2        3.7320   53.5450   -0.0230 O.co2 408  GLU408     -0.2457
     94  N          8.6420   52.3320    2.5940 N.3   411  VAL411     -0.1245
     95  CA         7.6160   53.1200    3.2730 C.3   411  VAL411      0.1561
     96  C          6.8030   52.2020    4.1850 C.2   411  VAL411      0.2260
     97  O          6.0420   51.3780    3.7030 O.2   411  VAL411     -0.2867
     98  CB         6.6770   53.7470    2.2250 C.3   411  VAL411      0.0252
     99  CG1        5.5480   54.5140    2.8880 C.3   411  VAL411      0.0019
    100  CG2        7.4930   54.7770    1.3290 C.3   411  VAL411      0.0019
    101  N          3.6680   52.2210    7.0090 N.3   413  GLU413     -0.1245
    102  CA         2.5710   53.0970    7.3570 C.3   413  GLU413      0.1567
    103  C          2.2820   53.0770    8.8620 C.2   413  GLU413      0.2260
    104  O          2.9070   52.3070    9.6200 O.2   413  GLU413     -0.2867
    105  CB         1.3690   52.8360    6.4250 C.3   413  GLU413      0.0388
    106  CG         1.8680   53.0970    4.9880 C.3   413  GLU413      0.1160
    107  CD         0.8540   52.9500    3.8930 C.2   413  GLU413      0.3649
    108  OE1       -0.3440   52.9100    4.1840 O.co2 413  GLU413     -0.2457
    109  OE2        1.2820   52.8840    2.7190 O.co2 413  GLU413     -0.2457
    110  N         -1.0140   63.7630    5.2480 N.3   481  TRP481     -0.1227
    111  CA        -0.8090   62.9160    4.0550 C.3   481  TRP481      0.1737
    112  C         -0.4210   61.5280    4.5540 C.2   481  TRP481      0.2596
    113  O          0.7240   61.3180    5.0650 O.2   481  TRP481     -0.2718
    114  CB         0.2790   63.5470    3.1660 C.3   481  TRP481      0.0564
    115  CG         0.6880   62.7510    1.9530 C.ar  481  TRP481      0.0003
    116  CD1        1.9740   62.4210    1.5860 C.ar  481  TRP481      0.0946
    117  CD2       -0.1740   62.2750    0.9030 C.ar  481  TRP481      0.0152
    118  NE1        1.9500   61.7060    0.4040 N.ar  481  TRP481     -0.2442
    119  CE2        0.6560   61.6080   -0.0450 C.ar  481  TRP481      0.0810
    120  CE3       -1.5720   62.3160    0.6860 C.ar  481  TRP481      0.0012
    121  CZ2        0.1420   60.9690   -1.1820 C.ar  481  TRP481      0.0191
    122  CZ3       -2.0870   61.7050   -0.4760 C.ar  481  TRP481      0.0001
    123  CH2       -1.2210   61.0310   -1.3880 C.ar  481  TRP481      0.0015
    124  N         -1.3400   60.5720    4.5210 N.am  482  SER482     -0.1952
    125  CA        -2.7880   60.7610    4.2510 C.3   482  SER482      0.1924
    126  C         -3.5840   60.2840    5.4730 C.2   482  SER482      0.2314
    127  O         -3.1220   59.4350    6.2730 O.2   482  SER482     -0.2863
    128  CB        -3.1740   59.8690    3.0600 C.3   482  SER482      0.2116
    129  OG        -2.9420   58.4890    3.3880 O.3   482  SER482     -0.2180
    130  N         -6.1750   58.4880    5.9160 N.3   484  ASP484     -0.1225
    131  CA        -6.6250   57.1150    6.0090 C.3   484  ASP484      0.1805
    132  C         -5.6270   56.2770    6.8180 C.2   484  ASP484      0.2597
    133  O         -5.9880   55.2070    7.2720 O.2   484  ASP484     -0.2718
    134  CB        -6.8200   56.4420    4.6420 C.3   484  ASP484      0.1424
    135  CG        -5.6220   56.6260    3.7380 C.2   484  ASP484      0.3668
    136  OD1       -4.7200   55.7260    3.7250 O.co2 484  ASP484     -0.2456
    137  OD2       -5.6020   57.7010    3.0850 O.co2 484  ASP484     -0.2456
    138  N         -4.3940   56.7680    6.9730 N.am  485  GLN485     -0.1979
    139  CA        -3.3650   55.9860    7.6500 C.3   485  GLN485      0.1601
    140  C         -3.4750   56.1360    9.1450 C.2   485  GLN485      0.2287
    141  O         -3.0240   55.2370    9.9030 O.2   485  GLN485     -0.2864
    142  CB        -1.9690   56.4410    7.1670 C.3   485  GLN485      0.0394
    143  CG        -1.6760   56.0200    5.7430 C.3   485  GLN485      0.0908
    144  CD        -0.5370   56.8390    5.0730 C.2   485  GLN485      0.2608
    145  OE1       -0.2110   57.9750    5.4630 O.2   485  GLN485     -0.2717
    146  NE2        0.0310   56.2520    4.0350 N.am  485  GLN485     -0.0878
@<TRIPOS>BOND
     1    36    35    2
     2    35    34    1
     3    44    42   ar
     4    44    46   ar
     5    34    33    1
     6    34    37    1
     7    41    42   ar
     8    41    39   ar
     9    42    40   ar
    10    46    45   ar
    11    39    38   ar
    12    40    38   ar
    13    40    43   ar
    14    45    43   ar
    15    38    37    1
    16    20    18   ar
    17    20    21   ar
    18    18    15   ar
    19    61    59    1
    20    12    13    1
    21    12     9    1
    22    21    19   ar
    23    15    13   ar
    24    15    17   ar
    25    13    14   ar
    26    19    17   ar
    27    17    16   ar
    28     9     8    1
    29     9    10    1
    30    14    16   ar
    31    59    60    1
    32    59    56    1
    33    89    86    1
    34    89    90    1
    35    10    11    2
    36   123   121   ar
    37   123   122   ar
    38    57    56    1
    39    57    58    2
    40    56    55    1
    41   121   119   ar
    42    86    87    1
    43    86    85    1
    44    90    91    1
    45    92    91   ar
    46     3     2    1
    47     3     4    2
    48    54    52   ar
    49    84    82    1
    50    91    93   ar
    51     5     2    1
    52     5     7    1
    53     5     6    1
    54    83    82    1
    55     2     1    1
    56    87    88    2
    57   122   120   ar
    58    31    30    1
    59    82    81    2
    60   119   118   ar
    61   119   117   ar
    62    51    52    1
    63    51    48    1
    64    52    53   ar
    65    50    49    2
    66    32    30    1
    67   118   116   ar
    68    30    29    2
    69   120   117   ar
    70   117   115   ar
    71    81    80    1
    72    49    48    1
    73    48    47    1
    74   100    98    1
    75   116   115   ar
    76    29    28    1
    77    80    79    1
    78   115   114    1
    79    98    99    1
    80    98    95    1
    81    28    27    1
    82    73    72    1
    83    94    95    1
    84    22    23    1
    85   109   107   ar
    86    27    26    1
    87   128   129    1
    88   128   125    1
    89    72    71   ar
    90    72    70   ar
    91   137   135   ar
    92    79    78    1
    93   114   111    1
    94    71    69   ar
    95    95    96    1
    96    26    23    1
    97    70    68   ar
    98    97    96    2
    99   136   135   ar
   100   135   134    1
   101    23    24    1
   102   107   108   ar
   103   107   106    1
   104    69    67   ar
   105    78    75    1
   106   146   144   am
   107   111   112    1
   108   111   110    1
   109   125   124    1
   110   125   126    1
   111    68    67   ar
   112    67    66    1
   113   124   112   am
   114    24    25    2
   115   112   113    2
   116    75    76    1
   117    75    74    1
   118   134   131    1
   119   106   105    1
   120   144   145    2
   121   144   143    1
   122    76    77    2
   123    66    63    1
   124   126   127    2
   125   143   142    1
   126   130   131    1
   127   131   132    1
   128   105   102    1
   129   132   138   am
   130   132   133    2
   131    63    64    1
   132    63    62    1
   133   138   139    1
   134   101   102    1
   135    64    65    2
   136   142   139    1
   137   102   103    1
   138   139   140    1
   139   103   104    2
   140   140   141    2
