@<TRIPOS>MOLECULE
tmp/3oa5B00.pdb
 146 140 0 0 0
SMALL
GASTEIGER

@<TRIPOS>ATOM
      1  N         -6.8490   42.7310  -33.4240 N.3    70  THR70      -0.1218
      2  CA        -6.6890   43.4170  -32.1220 C.3    70  THR70       0.1862
      3  C         -7.8620   44.3460  -31.8080 C.2    70  THR70       0.2287
      4  O         -8.3800   45.0690  -32.6830 O.2    70  THR70      -0.2866
      5  CB        -5.3550   44.1450  -31.9920 C.3    70  THR70       0.1770
      6  OG1       -5.2610   45.1920  -32.9720 O.3    70  THR70      -0.2211
      7  CG2       -4.1820   43.1640  -32.2230 C.3    70  THR70       0.0375
      8  N         -7.7810   47.0600  -30.0470 N.3    72  TRP72      -0.1241
      9  CA        -7.4230   48.4900  -29.8840 C.3    72  TRP72       0.1605
     10  C         -7.2390   49.1040  -31.2400 C.2    72  TRP72       0.2264
     11  O         -7.1060   50.3240  -31.3340 O.2    72  TRP72      -0.2867
     12  CB        -6.1410   48.7010  -29.0780 C.3    72  TRP72       0.0550
     13  CG        -4.9080   47.9860  -29.5440 C.ar   72  TRP72       0.0003
     14  CD1       -3.8760   48.5220  -30.2860 C.ar   72  TRP72       0.0946
     15  CD2       -4.5200   46.6240  -29.2370 C.ar   72  TRP72       0.0152
     16  NE1       -2.8760   47.5650  -30.4730 N.ar   72  TRP72      -0.2442
     17  CE2       -3.2400   46.4050  -29.8250 C.ar   72  TRP72       0.0810
     18  CE3       -5.1290   45.5710  -28.5180 C.ar   72  TRP72       0.0012
     19  CZ2       -2.5680   45.1640  -29.7420 C.ar   72  TRP72       0.0191
     20  CZ3       -4.4570   44.3250  -28.4140 C.ar   72  TRP72       0.0001
     21  CH2       -3.1770   44.1390  -29.0260 C.ar   72  TRP72       0.0015
     22  N         -5.4320   53.7590  -35.3890 N.3    90  ARG90      -0.1245
     23  CA        -5.3410   53.0010  -36.6240 C.3    90  ARG90       0.1563
     24  C         -6.6770   52.9950  -37.3770 C.2    90  ARG90       0.2260
     25  O         -6.6860   52.7700  -38.5650 O.2    90  ARG90      -0.2867
     26  CB        -4.9870   51.5290  -36.2920 C.3    90  ARG90       0.0307
     27  CG        -3.5570   51.3820  -35.7250 C.3    90  ARG90       0.0489
     28  CD        -3.3900   50.0670  -34.9860 C.3    90  ARG90       0.2205
     29  NE        -2.0100   49.8870  -34.5000 N.pl3  90  ARG90      -0.0865
     30  CZ        -1.5750   50.2890  -33.3210 C.cat  90  ARG90       0.5346
     31  NH1       -0.2850   50.1020  -32.9980 N.pl3  90  ARG90       0.1354
     32  NH2       -2.4080   50.9010  -32.4750 N.pl3  90  ARG90       0.1354
     33  N          1.9370   38.9700  -25.4910 N.3   210  TRP210     -0.1241
     34  CA         3.2380   39.3260  -24.9260 C.3   210  TRP210      0.1605
     35  C          3.1190   40.1030  -23.6150 C.2   210  TRP210      0.2264
     36  O          3.8590   39.8450  -22.6750 O.2   210  TRP210     -0.2867
     37  CB         4.0040   40.1270  -25.9800 C.3   210  TRP210      0.0550
     38  CG         5.3710   40.5270  -25.5790 C.ar  210  TRP210      0.0003
     39  CD1        5.7980   41.8060  -25.2830 C.ar  210  TRP210      0.0946
     40  CD2        6.5120   39.6860  -25.5120 C.ar  210  TRP210      0.0152
     41  NE1        7.1640   41.7890  -24.9770 N.ar  210  TRP210     -0.2442
     42  CE2        7.6200   40.5030  -25.1440 C.ar  210  TRP210      0.0810
     43  CE3        6.7280   38.3040  -25.7480 C.ar  210  TRP210      0.0012
     44  CZ2        8.8970   39.9840  -24.9870 C.ar  210  TRP210      0.0191
     45  CZ3        8.0190   37.7930  -25.5810 C.ar  210  TRP210      0.0001
     46  CH2        9.0730   38.6160  -25.2050 C.ar  210  TRP210      0.0015
     47  N          9.2040   39.4610  -35.0580 N.3   321  ASP321     -0.1239
     48  CA        10.0340   40.1350  -34.0440 C.3   321  ASP321      0.1674
     49  C         11.4100   39.5030  -33.8980 C.2   321  ASP321      0.2266
     50  O         11.9800   39.5000  -32.7830 O.2   321  ASP321     -0.2867
     51  CB         9.3460   40.2110  -32.6670 C.3   321  ASP321      0.1410
     52  CG         8.0790   41.0160  -32.6920 C.2   321  ASP321      0.3668
     53  OD1        7.8530   41.7040  -33.7010 O.co2 321  ASP321     -0.2456
     54  OD2        7.3090   40.9430  -31.7000 O.co2 321  ASP321     -0.2456
     55  N         15.2480   42.5590  -32.7560 N.3   324  THR324     -0.1218
     56  CA        14.9360   43.2880  -31.5090 C.3   324  THR324      0.1862
     57  C         16.1010   44.2560  -31.2910 C.2   324  THR324      0.2287
     58  O         17.2490   43.8290  -31.4040 O.2   324  THR324     -0.2866
     59  CB        14.8930   42.2920  -30.3190 C.3   324  THR324      0.1770
     60  OG1       13.6280   41.6150  -30.3430 O.3   324  THR324     -0.2211
     61  CG2       15.0790   42.9720  -28.9690 C.3   324  THR324      0.0375
     62  N          3.4280   44.5230  -40.0770 N.3   374  TYR374     -0.1241
     63  CA         4.1920   45.6470  -39.5220 C.3   374  TYR374      0.1605
     64  C          5.6810   45.3140  -39.6610 C.2   374  TYR374      0.2264
     65  O          6.0560   44.1590  -39.9950 O.2   374  TYR374     -0.2867
     66  CB         3.8530   45.8600  -38.0360 C.3   374  TYR374      0.0534
     67  CG         4.3070   44.6830  -37.2020 C.ar  374  TYR374     -0.0201
     68  CD1        3.5440   43.5050  -37.1520 C.ar  374  TYR374     -0.0009
     69  CD2        5.5540   44.7030  -36.5530 C.ar  374  TYR374     -0.0009
     70  CE1        3.9950   42.4020  -36.4530 C.ar  374  TYR374      0.0417
     71  CE2        6.0070   43.6080  -35.8410 C.ar  374  TYR374      0.0417
     72  CZ         5.2050   42.4610  -35.8000 C.ar  374  TYR374      0.1957
     73  OH         5.6330   41.3670  -35.1060 O.3   374  TYR374     -0.2866
     74  N         10.0780   46.0630  -38.3890 N.3   376  ARG376     -0.1245
     75  CA        11.0010   46.3070  -37.2910 C.3   376  ARG376      0.1563
     76  C         12.1410   47.1020  -37.9310 C.2   376  ARG376      0.2260
     77  O         12.7390   46.6450  -38.9260 O.2   376  ARG376     -0.2867
     78  CB        11.5200   45.0020  -36.6820 C.3   376  ARG376      0.0307
     79  CG        10.4600   44.2830  -35.8210 C.3   376  ARG376      0.0489
     80  CD        10.3760   44.9050  -34.4410 C.3   376  ARG376      0.2205
     81  NE         9.2670   44.3460  -33.6630 N.pl3 376  ARG376     -0.0865
     82  CZ         8.8250   44.8280  -32.5090 C.cat 376  ARG376      0.5346
     83  NH1        9.4000   45.8950  -31.9330 N.pl3 376  ARG376      0.1354
     84  NH2        7.7760   44.2420  -31.9310 N.pl3 376  ARG376      0.1354
     85  N          4.2280   53.2850  -32.5310 N.3   408  GLU408     -0.1245
     86  CA         5.2410   53.0830  -31.5320 C.3   408  GLU408      0.1567
     87  C          6.5920   53.1580  -32.2190 C.2   408  GLU408      0.2260
     88  O          6.7190   52.7440  -33.3730 O.2   408  GLU408     -0.2867
     89  CB         5.0420   51.7590  -30.7560 C.3   408  GLU408      0.0388
     90  CG         5.1890   50.5300  -31.5700 C.3   408  GLU408      0.1160
     91  CD         3.8050   49.8790  -31.9780 C.2   408  GLU408      0.3649
     92  OE1        3.8010   48.8090  -32.6490 O.co2 408  GLU408     -0.2457
     93  OE2        2.7430   50.4270  -31.6200 O.co2 408  GLU408     -0.2457
     94  N          8.5010   50.6220  -35.2270 N.3   411  VAL411     -0.1245
     95  CA         7.5430   49.7720  -35.8860 C.3   411  VAL411      0.1561
     96  C          6.6600   50.5860  -36.8420 C.2   411  VAL411      0.2260
     97  O          5.8450   51.4310  -36.4430 O.2   411  VAL411     -0.2867
     98  CB         6.6570   49.0510  -34.8520 C.3   411  VAL411      0.0252
     99  CG1        5.5950   48.2000  -35.5590 C.3   411  VAL411      0.0019
    100  CG2        7.5040   48.1860  -33.9050 C.3   411  VAL411      0.0019
    101  N          3.5990   50.3160  -39.7320 N.3   413  GLU413     -0.1245
    102  CA         2.5180   49.3980  -40.0160 C.3   413  GLU413      0.1567
    103  C          2.2380   49.4100  -41.5180 C.2   413  GLU413      0.2260
    104  O          2.7970   50.2310  -42.2500 O.2   413  GLU413     -0.2867
    105  CB         1.3310   49.6730  -39.0750 C.3   413  GLU413      0.0388
    106  CG         1.8450   49.2440  -37.6320 C.3   413  GLU413      0.1160
    107  CD         0.8030   49.3290  -36.5640 C.2   413  GLU413      0.3649
    108  OE1        1.2160   49.3300  -35.3850 O.co2 413  GLU413     -0.2457
    109  OE2       -0.4130   49.3040  -36.8920 O.co2 413  GLU413     -0.2457
    110  N         -0.1810   38.4490  -37.9580 N.3   481  TRP481     -0.1227
    111  CA        -0.0230   39.2820  -36.7540 C.3   481  TRP481      0.1737
    112  C          0.2280   40.7000  -37.2550 C.2   481  TRP481      0.2596
    113  O          1.3530   40.9830  -37.7290 O.2   481  TRP481     -0.2718
    114  CB         1.1680   38.7430  -35.9490 C.3   481  TRP481      0.0564
    115  CG         1.5010   39.5580  -34.7300 C.ar  481  TRP481      0.0003
    116  CD1        2.7330   40.0160  -34.3880 C.ar  481  TRP481      0.0946
    117  CD2        0.5970   39.9780  -33.6990 C.ar  481  TRP481      0.0152
    118  NE1        2.6630   40.7090  -33.1920 N.ar  481  TRP481     -0.2442
    119  CE2        1.3550   40.7090  -32.7550 C.ar  481  TRP481      0.0810
    120  CE3       -0.7840   39.8010  -33.4810 C.ar  481  TRP481      0.0012
    121  CZ2        0.7810   41.2610  -31.5850 C.ar  481  TRP481      0.0191
    122  CZ3       -1.3680   40.3680  -32.3370 C.ar  481  TRP481      0.0001
    123  CH2       -0.5840   41.0980  -31.4110 C.ar  481  TRP481      0.0015
    124  N         -0.7850   41.5700  -37.3030 N.am  482  SER482     -0.1952
    125  CA        -2.2180   41.2730  -37.0430 C.3   482  SER482      0.1924
    126  C         -3.0830   41.6670  -38.2400 C.2   482  SER482      0.2314
    127  O         -2.7080   42.5600  -39.0280 O.2   482  SER482     -0.2863
    128  CB        -2.6410   42.0440  -35.8030 C.3   482  SER482      0.2116
    129  OG        -2.5550   43.4670  -36.0000 O.3   482  SER482     -0.2180
    130  N         -5.8200   43.2700  -38.6380 N.3   484  ASP484     -0.1225
    131  CA        -6.3200   44.6450  -38.7110 C.3   484  ASP484      0.1805
    132  C         -5.3940   45.5380  -39.4990 C.2   484  ASP484      0.2597
    133  O         -5.8400   46.5930  -39.9820 O.2   484  ASP484     -0.2718
    134  CB        -6.5680   45.2370  -37.3160 C.3   484  ASP484      0.1424
    135  CG        -5.3680   45.1070  -36.4390 C.2   484  ASP484      0.3668
    136  OD1       -5.2490   44.0410  -35.7890 O.co2 484  ASP484     -0.2456
    137  OD2       -4.5230   46.0390  -36.4030 O.co2 484  ASP484     -0.2456
    138  N         -4.1090   45.1580  -39.6070 N.am  485  GLN485     -0.1979
    139  CA        -3.1270   45.9790  -40.3200 C.3   485  GLN485      0.1601
    140  C         -3.2350   45.8640  -41.8530 C.2   485  GLN485      0.2287
    141  O         -2.8680   46.7990  -42.5900 O.2   485  GLN485     -0.2864
    142  CB        -1.7100   45.6340  -39.8530 C.3   485  GLN485      0.0394
    143  CG        -1.4910   45.9120  -38.3080 C.3   485  GLN485      0.0908
    144  CD        -0.2090   45.2880  -37.7470 C.2   485  GLN485      0.2608
    145  OE1        0.2650   44.2540  -38.2110 O.2   485  GLN485     -0.2717
    146  NE2        0.3080   45.8880  -36.7090 N.am  485  GLN485     -0.0878
@<TRIPOS>BOND
     1   141   140    2
     2   104   103    2
     3   140   139    1
     4   103   102    1
     5   139   142    1
     6   139   138    1
     7    62    63    1
     8   102   101    1
     9   102   105    1
    10    65    64    2
    11   133   132    2
    12   142   143    1
    13    64    63    1
    14   138   132   am
    15    63    66    1
    16   132   131    1
    17   105   106    1
    18   127   126    2
    19    77    76    2
    20   131   130    1
    21   131   134    1
    22    25    24    2
    23    74    75    1
    24   143   144    1
    25   126   125    1
    26   145   144    2
    27    66    67    1
    28   110   111    1
    29    76    75    1
    30   144   146   am
    31   113   112    2
    32   106   107    1
    33    24    23    1
    34   134   135    1
    35   124   112   am
    36   124   125    1
    37    75    78    1
    38   112   111    1
    39    67    68   ar
    40    67    69   ar
    41    68    70   ar
    42   125   128    1
    43   109   107   ar
    44    96    97    2
    45    96    95    1
    46   111   114    1
    47    78    79    1
    48    23    26    1
    49    23    22    1
    50   107   108   ar
    51    69    71   ar
    52    70    72   ar
    53   135   137   ar
    54   135   136   ar
    55    26    27    1
    56   129   128    1
    57   114   115    1
    58    95    94    1
    59    95    98    1
    60    71    72   ar
    61    79    80    1
    62    72    73    1
    63    27    28    1
    64    99    98    1
    65    47    48    1
    66    28    29    1
    67    98   100    1
    68   115   116   ar
    69   115   117   ar
    70    29    30    2
    71    80    81    1
    72   116   118   ar
    73    48    49    1
    74    48    51    1
    75    49    50    2
    76    53    52   ar
    77   117   120   ar
    78   117   119   ar
    79    81    82    2
    80   120   122   ar
    81     1     2    1
    82    88    87    2
    83    30    31    1
    84    30    32    1
    85   118   119   ar
    86     6     5    1
    87    55    56    1
    88   119   121   ar
    89    52    51    1
    90    52    54   ar
    91     4     3    2
    92    92    91   ar
    93    85    86    1
    94    82    83    1
    95    82    84    1
    96   122   123   ar
    97     7     5    1
    98    87    86    1
    99     2     5    1
   100     2     3    1
   101    91    93   ar
   102    91    90    1
   103   121   123   ar
   104    90    89    1
   105    86    89    1
   106    56    57    1
   107    56    59    1
   108    58    57    2
   109    11    10    2
   110    10     9    1
   111    16    14   ar
   112    16    17   ar
   113    60    59    1
   114    59    61    1
   115    14    13   ar
   116     8     9    1
   117     9    12    1
   118    17    19   ar
   119    17    15   ar
   120    19    21   ar
   121    13    15   ar
   122    13    12    1
   123    15    18   ar
   124    21    20   ar
   125    18    20   ar
   126    37    38    1
   127    37    34    1
   128    43    45   ar
   129    43    40   ar
   130    45    46   ar
   131    38    40   ar
   132    38    39   ar
   133    40    42   ar
   134    33    34    1
   135    39    41   ar
   136    46    44   ar
   137    42    44   ar
   138    42    41   ar
   139    34    35    1
   140    35    36    2
