@<TRIPOS>MOLECULE
tmp/3oa6A00.pdb
 119 117 0 0 0
SMALL
GASTEIGER

@<TRIPOS>ATOM
      1  N         -7.9350   -4.5410   25.8320 N.3    13  GLU13      -0.1231
      2  CA        -6.9080   -5.5260   25.4840 C.3    13  GLU13       0.1684
      3  C         -6.6400   -5.4020   23.9890 C.2    13  GLU13       0.2434
      4  O         -7.5380   -5.5110   23.1770 O.2    13  GLU13      -0.2733
      5  CB        -7.4050   -6.9260   25.8210 C.3    13  GLU13       0.0402
      6  CG        -6.5060   -8.0790   25.3210 C.3    13  GLU13       0.1161
      7  CD        -5.1290   -8.0180   25.9600 C.2    13  GLU13       0.3649
      8  OE1       -4.1210   -7.8030   25.2100 O.co2  13  GLU13      -0.2457
      9  OE2       -5.0730   -8.1320   27.2380 O.co2  13  GLU13      -0.2457
     10  N         -5.4120   -5.1360   23.6120 N.am   14  PRO14      -0.2718
     11  CA        -5.2390   -4.9030   22.2070 C.3    14  PRO14       0.1535
     12  C         -5.1590   -6.1930   21.4340 C.2    14  PRO14       0.2598
     13  O         -5.3710   -6.1890   20.2440 O.2    14  PRO14      -0.2715
     14  CB        -3.8950   -4.1610   22.1280 C.3    14  PRO14       0.0310
     15  CG        -3.2380   -4.3920   23.3990 C.3    14  PRO14       0.0237
     16  CD        -4.1280   -5.2680   24.2790 C.3    14  PRO14       0.0939
     17  N         -4.9160   -7.2800   22.1550 N.am   15  ASP15      -0.1972
     18  CA        -4.7890   -8.6580   21.5420 C.3    15  ASP15       0.1709
     19  C         -6.0910   -9.4720   21.4540 C.2    15  ASP15       0.2293
     20  O         -6.5240  -10.0870   22.4310 O.2    15  ASP15      -0.2864
     21  CB        -3.7470   -9.5210   22.2840 C.3    15  ASP15       0.1436
     22  CG        -3.3390  -10.8100   21.4690 C.2    15  ASP15       0.3671
     23  OD1       -4.0270  -11.1910   20.4800 O.co2  15  ASP15      -0.2456
     24  OD2       -2.3190  -11.4480   21.8170 O.co2  15  ASP15      -0.2456
     25  N         -6.9970  -12.3210   20.6650 N.3    17  THR17      -0.1203
     26  CA        -7.0880  -13.7400   21.0500 C.3    17  THR17       0.1994
     27  C         -7.1980  -13.8920   22.5560 C.2    17  THR17       0.2618
     28  O         -7.3240  -15.0000   23.0700 O.2    17  THR17      -0.2717
     29  CB        -5.8880  -14.6010   20.5640 C.3    17  THR17       0.1784
     30  OG1       -4.7220  -14.3150   21.3520 O.3    17  THR17      -0.2211
     31  CG2       -5.6080  -14.3660   19.0750 C.3    17  THR17       0.0376
     32  N         -7.1300  -12.7610   23.2400 N.am   18  LYS18      -0.1965
     33  CA        -7.1660  -12.7160   24.7340 C.3    18  LYS18       0.1728
     34  C         -8.4910  -12.2210   25.2830 C.2    18  LYS18       0.2616
     35  O         -9.3100  -11.6280   24.5900 O.2    18  LYS18      -0.2715
     36  CB        -6.0310  -11.8590   25.3200 C.3    18  LYS18       0.0311
     37  CG        -4.6320  -12.4230   24.9810 C.3    18  LYS18       0.0038
     38  CD        -4.5120  -13.8770   25.3900 C.3    18  LYS18       0.0206
     39  CE        -3.5210  -14.7120   24.4540 C.3    18  LYS18       0.1093
     40  NZ        -4.1670  -15.3200   23.2540 N.3    18  LYS18      -0.1314
     41  N         -8.6870  -12.5330   26.5410 N.am   19  ALA19      -0.1977
     42  CA        -9.9000  -12.0950   27.2510 C.3    19  ALA19       0.1597
     43  C        -10.0720  -10.5960   27.0280 C.2    19  ALA19       0.2287
     44  O         -9.1130   -9.8210   27.1320 O.2    19  ALA19      -0.2864
     45  CB        -9.8240  -12.4050   28.7400 C.3    19  ALA19       0.0319
     46  N        -10.7140   -7.4830   28.2720 N.3    21  VAL21      -0.1245
     47  CA       -10.7170   -6.6950   29.4880 C.3    21  VAL21       0.1561
     48  C        -10.2390   -5.2890   29.2430 C.2    21  VAL21       0.2260
     49  O         -9.7290   -4.9440   28.1890 O.2    21  VAL21      -0.2867
     50  CB        -9.8710   -7.3380   30.5950 C.3    21  VAL21       0.0252
     51  CG1      -10.6090   -8.5230   31.1840 C.3    21  VAL21       0.0019
     52  CG2       -8.5330   -7.7750   30.0290 C.3    21  VAL21       0.0019
     53  N         -7.8300   -2.2580   30.5320 N.3    23  TYR23      -0.1241
     54  CA        -6.6400   -1.8740   31.3220 C.3    23  TYR23       0.1605
     55  C         -6.5340   -0.3880   31.5810 C.2    23  TYR23       0.2264
     56  O         -6.9170    0.4520   30.7660 O.2    23  TYR23      -0.2867
     57  CB        -5.4060   -2.3010   30.6230 C.3    23  TYR23       0.0534
     58  CG        -5.2600   -3.7780   30.5560 C.ar   23  TYR23      -0.0201
     59  CD1       -4.7610   -4.4940   31.6320 C.ar   23  TYR23      -0.0009
     60  CD2       -5.6140   -4.4560   29.4370 C.ar   23  TYR23      -0.0009
     61  CE1       -4.6090   -5.8730   31.5560 C.ar   23  TYR23       0.0417
     62  CE2       -5.4740   -5.8150   29.3570 C.ar   23  TYR23       0.0417
     63  CZ        -4.9790   -6.5130   30.4210 C.ar   23  TYR23       0.1957
     64  OH        -4.8490   -7.8780   30.3420 O.3    23  TYR23      -0.2866
     65  N          0.2090    0.9780   28.9890 N.3    48  PHE48      -0.1241
     66  CA        -0.5360    0.1780   29.9780 C.3    48  PHE48       0.1605
     67  C          0.0790    0.2690   31.3510 C.2    48  PHE48       0.2264
     68  O          1.1670   -0.2320   31.6150 O.2    48  PHE48      -0.2867
     69  CB        -0.6310   -1.2830   29.5430 C.3    48  PHE48       0.0534
     70  CG        -1.3720   -1.4670   28.2480 C.ar   48  PHE48      -0.0203
     71  CD1       -2.7370   -1.3150   28.2050 C.ar   48  PHE48      -0.0042
     72  CD2       -0.7060   -1.7270   27.0970 C.ar   48  PHE48      -0.0042
     73  CE1       -3.4140   -1.4300   27.0430 C.ar   48  PHE48      -0.0003
     74  CE2       -1.3930   -1.8530   25.8980 C.ar   48  PHE48      -0.0003
     75  CZ        -2.7620   -1.6960   25.8880 C.ar   48  PHE48      -0.0000
     76  N          2.8490   -1.9330   33.3490 N.3    51  TRP51      -0.1241
     77  CA         3.6980   -2.6540   32.3720 C.3    51  TRP51       0.1605
     78  C          4.6750   -1.6870   31.7320 C.2    51  TRP51       0.2264
     79  O          4.3770   -0.5110   31.5860 O.2    51  TRP51      -0.2867
     80  CB         2.8310   -3.3000   31.2880 C.3    51  TRP51       0.0550
     81  CG         1.7160   -4.0700   31.8530 C.ar   51  TRP51       0.0003
     82  CD1        0.4940   -3.5790   32.2890 C.ar   51  TRP51       0.0946
     83  CD2        1.6990   -5.4580   32.1090 C.ar   51  TRP51       0.0152
     84  NE1       -0.2750   -4.6010   32.7870 N.ar   51  TRP51      -0.2442
     85  CE2        0.4420   -5.7650   32.6900 C.ar   51  TRP51       0.0810
     86  CE3        2.6250   -6.4920   31.8950 C.ar   51  TRP51       0.0012
     87  CZ2        0.0910   -7.0540   33.0660 C.ar   51  TRP51       0.0191
     88  CZ3        2.2770   -7.7930   32.2660 C.ar   51  TRP51       0.0001
     89  CH2        1.0160   -8.0580   32.8580 C.ar   51  TRP51       0.0015
     90  N          5.5170   -2.7190   26.1390 N.3    55  TRP55      -0.1241
     91  CA         4.1570   -3.2700   25.9860 C.3    55  TRP55       0.1605
     92  C          3.2250   -2.2900   25.3270 C.2    55  TRP55       0.2264
     93  O          2.0630   -2.5640   25.1410 O.2    55  TRP55      -0.2867
     94  CB         3.5530   -3.7000   27.3210 C.3    55  TRP55       0.0550
     95  CG         4.1050   -4.9560   27.8520 C.ar   55  TRP55       0.0003
     96  CD1        5.0930   -5.0870   28.7770 C.ar   55  TRP55       0.0946
     97  CD2        3.7130   -6.2760   27.4940 C.ar   55  TRP55       0.0152
     98  NE1        5.3440   -6.4040   29.0190 N.ar   55  TRP55      -0.2442
     99  CE2        4.5030   -7.1610   28.2470 C.ar   55  TRP55       0.0810
    100  CE3        2.7780   -6.8020   26.5940 C.ar   55  TRP55       0.0012
    101  CZ2        4.3940   -8.5520   28.1290 C.ar   55  TRP55       0.0191
    102  CZ3        2.6770   -8.1910   26.4690 C.ar   55  TRP55       0.0001
    103  CH2        3.4810   -9.0450   27.2300 C.ar   55  TRP55       0.0015
    104  N          1.1770   -0.1810   22.7340 N.3    57  ARG57      -0.1245
    105  CA         0.4410   -0.6180   21.5560 C.3    57  ARG57       0.1563
    106  C         -0.2880    0.5130   20.9230 C.2    57  ARG57       0.2260
    107  O         -0.7540    1.4220   21.6330 O.2    57  ARG57      -0.2867
    108  CB        -0.5720   -1.6900   21.9110 C.3    57  ARG57       0.0307
    109  CG         0.0560   -2.9660   22.3420 C.3    57  ARG57       0.0489
    110  CD         0.9060   -3.5620   21.2520 C.3    57  ARG57       0.2205
    111  NE         1.5300   -4.7930   21.7290 N.pl3  57  ARG57      -0.0865
    112  CZ         2.8250   -4.9220   22.0170 C.cat  57  ARG57       0.5346
    113  NH1        3.6700   -3.9080   21.8470 N.pl3  57  ARG57       0.1354
    114  NH2        3.2740   -6.0680   22.4780 N.pl3  57  ARG57       0.1354
    115  N        -13.7380  -12.4900   33.1120 N.3    82  ALA82      -0.1245
    116  CA       -12.4430  -13.0870   32.7470 C.3    82  ALA82       0.1562
    117  C        -11.8800  -14.0140   33.8110 C.2    82  ALA82       0.2260
    118  O        -11.2230  -14.9730   33.4960 O.2    82  ALA82      -0.2867
    119  CB       -11.4250  -12.0460   32.3750 C.3    82  ALA82       0.0290
@<TRIPOS>BOND
     1    31    29    1
     2    13    12    2
     3    23    22   ar
     4    29    26    1
     5    29    30    1
     6    25    26    1
     7   106   105    1
     8   106   107    2
     9    26    27    1
    10   110   111    1
    11   110   109    1
    12    12    17   am
    13    12    11    1
    14    19    18    1
    15    19    20    2
    16    22    24   ar
    17    22    21    1
    18    18    17    1
    19    18    21    1
    20   105   108    1
    21   105   104    1
    22   111   112    2
    23   113   112    1
    24   108   109    1
    25   112   114    1
    26    14    11    1
    27    14    15    1
    28    11    10    1
    29    27    28    2
    30    27    32   am
    31     4     3    2
    32    32    33    1
    33    40    39    1
    34    15    16    1
    35    10     3   am
    36    10    16    1
    37     3     2    1
    38    39    38    1
    39    35    34    2
    40    33    34    1
    41    33    36    1
    42    37    36    1
    43    37    38    1
    44    93    92    2
    45     8     7   ar
    46    34    41   am
    47     6     5    1
    48     6     7    1
    49    92    91    1
    50     2     5    1
    51     2     1    1
    52    75    74   ar
    53    75    73   ar
    54    74    72   ar
    55     7     9   ar
    56    91    90    1
    57    91    94    1
    58   102   100   ar
    59   102   103   ar
    60    41    42    1
    61   100    97   ar
    62    43    44    2
    63    43    42    1
    64    73    71   ar
    65    72    70   ar
    66   103   101   ar
    67    42    45    1
    68    94    95    1
    69    97    95   ar
    70    97    99   ar
    71    95    96   ar
    72   101    99   ar
    73    49    48    2
    74    71    70   ar
    75    99    98   ar
    76    70    69    1
    77    46    47    1
    78    96    98   ar
    79    65    66    1
    80    48    47    1
    81    62    60   ar
    82    62    63   ar
    83    60    58   ar
    84    47    50    1
    85    69    66    1
    86    66    67    1
    87    52    50    1
    88    64    63    1
    89    63    61   ar
    90    53    54    1
    91    58    57    1
    92    58    59   ar
    93    50    51    1
    94    57    54    1
    95    56    55    2
    96    80    81    1
    97    80    77    1
    98    54    55    1
    99    67    68    2
   100    61    59   ar
   101    79    78    2
   102    78    77    1
   103    81    83   ar
   104    81    82   ar
   105    86    83   ar
   106    86    88   ar
   107    83    85   ar
   108    88    89   ar
   109    82    84   ar
   110    77    76    1
   111   119   116    1
   112    85    84   ar
   113    85    87   ar
   114   116   115    1
   115   116   117    1
   116    89    87   ar
   117   118   117    2
