@<TRIPOS>MOLECULE
tmp/3oa8D00.pdb
 194 183 0 0 0
SMALL
GASTEIGER

@<TRIPOS>ATOM
      1  N         -4.3900    9.8020   67.1530 N.3    76  VAL76      -0.1245
      2  CA        -5.1150   10.9660   66.5790 C.3    76  VAL76       0.1561
      3  C         -5.9520   10.5030   65.3870 C.2    76  VAL76       0.2260
      4  O         -7.1450   10.7910   65.3090 O.2    76  VAL76      -0.2867
      5  CB        -4.1400   12.0970   66.1370 C.3    76  VAL76       0.0252
      6  CG1       -4.8940   13.2610   65.4630 C.3    76  VAL76       0.0019
      7  CG2       -3.3620   12.5940   67.3320 C.3    76  VAL76       0.0019
      8  N         -8.5740   13.3560   65.3730 N.3    95  GLY95      -0.1210
      9  CA        -8.6280   13.8620   63.9980 C.3    95  GLY95       0.1956
     10  C         -9.5600   13.0740   63.0880 C.2    95  GLY95       0.2612
     11  O         -9.9290   13.5480   62.0030 O.2    95  GLY95      -0.2717
     12  N         -9.8940   11.8570   63.5210 N.am   96  ASN96      -0.1960
     13  CA       -10.7350   10.9120   62.7640 C.3    96  ASN96       0.1819
     14  C        -10.3190   10.7960   61.2890 C.2    96  ASN96       0.2621
     15  O        -11.1680   10.7130   60.4020 O.2    96  ASN96      -0.2715
     16  CB       -12.2020   11.3330   62.8930 C.3    96  ASN96       0.1195
     17  CG       -13.1910   10.1500   62.8250 C.2    96  ASN96       0.2630
     18  OD1      -12.8210    8.9800   62.8850 O.2    96  ASN96      -0.2716
     19  ND2      -14.4690   10.4860   62.7370 N.am   96  ASN96      -0.0877
     20  N         -9.0020   10.7610   61.0380 N.am   97  CYS97      -0.1968
     21  CA        -8.4770   10.6930   59.6800 C.3    97  CYS97       0.1712
     22  C         -8.9630    9.4380   58.9330 C.2    97  CYS97       0.2296
     23  O         -9.2560    9.4840   57.7220 O.2    97  CYS97      -0.2864
     24  CB        -6.9360   10.7270   59.7160 C.3    97  CYS97       0.0983
     25  SG        -6.2350   12.0250   60.8260 S.3    97  CYS97      -0.0798
     26  N        -11.7010    8.1110   59.1110 N.3    99  ALA99      -0.1231
     27  CA       -13.0880    8.2620   58.6610 C.3    99  ALA99       0.1694
     28  C        -13.1000    8.5260   57.1550 C.2    99  ALA99       0.2592
     29  O        -14.0120    8.0730   56.4560 O.2    99  ALA99      -0.2718
     30  CB       -13.7840    9.3840   59.4120 C.3    99  ALA99       0.0304
     31  N        -12.0890    9.2460   56.6760 N.am  100  CYS100     -0.1956
     32  CA       -12.0540    9.6780   55.2810 C.3   100  CYS100      0.1843
     33  C        -10.9170    9.1230   54.4240 C.2   100  CYS100      0.2625
     34  O        -10.9780    9.2180   53.2080 O.2   100  CYS100     -0.2714
     35  CB       -12.0760   11.2120   55.2000 C.3   100  CYS100      0.0997
     36  SG       -13.5800   11.8730   55.9960 S.3   100  CYS100     -0.0797
     37  N         -9.8680    8.5910   55.0450 N.am  101  HIS101     -0.1973
     38  CA        -8.6140    8.3150   54.3480 C.3   101  HIS101      0.1656
     39  C         -8.1060    6.9050   54.6620 C.2   101  HIS101      0.2291
     40  O         -8.1870    6.4500   55.7970 O.2   101  HIS101     -0.2864
     41  CB        -7.5330    9.2790   54.8500 C.3   101  HIS101      0.0771
     42  CG        -7.6910   10.7060   54.4090 C.ar  101  HIS101      0.0820
     43  ND1       -7.5600   11.0980   53.0940 N.ar  101  HIS101     -0.2267
     44  CD2       -7.8430   11.8450   55.1250 C.ar  101  HIS101      0.1154
     45  CE1       -7.6450   12.4280   53.0220 C.ar  101  HIS101      0.1986
     46  NE2       -7.7840   12.9020   54.2450 N.ar  101  HIS101     -0.2212
     47  N         -4.7770    5.0200   55.4090 N.3   103  LEU103     -0.1245
     48  CA        -3.4840    5.4520   56.0020 C.3   103  LEU103      0.1561
     49  C         -2.5570    4.2320   56.1020 C.2   103  LEU103      0.2260
     50  O         -1.7990    3.9770   55.1950 O.2   103  LEU103     -0.2867
     51  CB        -3.6810    6.1340   57.3660 C.3   103  LEU103      0.0270
     52  CG        -4.3300    7.5100   57.2510 C.3   103  LEU103      0.0019
     53  CD1       -5.6270    7.5830   58.0460 C.3   103  LEU103      0.0001
     54  CD2       -3.3730    8.5570   57.6960 C.3   103  LEU103      0.0001
     55  N        -14.0060    9.1360   51.5240 N.3   113  LEU113     -0.1231
     56  CA       -14.3790   10.5260   51.2420 C.3   113  LEU113      0.1693
     57  C        -13.1820   11.3250   50.7370 C.2   113  LEU113      0.2593
     58  O        -13.3260   12.2080   49.8880 O.2   113  LEU113     -0.2718
     59  CB       -15.0410   11.1880   52.4370 C.3   113  LEU113      0.0284
     60  CG       -16.4820   10.7300   52.7910 C.3   113  LEU113      0.0019
     61  CD1      -16.9140   11.4030   54.0990 C.3   113  LEU113      0.0001
     62  CD2      -17.5050   11.0600   51.6810 C.3   113  LEU113      0.0001
     63  N        -12.0120   10.9820   51.2340 N.am  114  GLY114     -0.1943
     64  CA       -10.7840   11.5810   50.8090 C.3   114  GLY114      0.1998
     65  C         -9.8460   10.5850   50.1510 C.2   114  GLY114      0.2480
     66  O        -10.1050    9.3740   50.1510 O.2   114  GLY114     -0.2729
     67  N         -8.7280   11.0890   49.5910 N.am  115  PRO115     -0.2726
     68  CA        -7.7580   10.2690   48.8550 C.3   115  PRO115      0.1402
     69  C         -7.0230    9.2850   49.7600 C.2   115  PRO115      0.2269
     70  O         -6.9290    9.5100   50.9540 O.2   115  PRO115     -0.2865
     71  CB        -6.7900   11.3130   48.2610 C.3   115  PRO115      0.0296
     72  CG        -6.9190   12.5170   49.1550 C.3   115  PRO115      0.0237
     73  CD        -8.4040   12.5290   49.5440 C.3   115  PRO115      0.0939
     74  N         -3.9480    7.7730   51.5620 N.3   117  LEU117     -0.1245
     75  CA        -2.7040    8.3680   52.0060 C.3   117  LEU117      0.1561
     76  C         -1.5950    7.3270   52.2390 C.2   117  LEU117      0.2260
     77  O         -0.5490    7.6260   52.8060 O.2   117  LEU117     -0.2867
     78  CB        -2.9290    9.1860   53.2940 C.3   117  LEU117      0.0270
     79  CG        -3.9880   10.2990   53.2800 C.3   117  LEU117      0.0019
     80  CD1       -4.1480   10.9010   54.6790 C.3   117  LEU117      0.0001
     81  CD2       -3.7250   11.3670   52.2030 C.3   117  LEU117      0.0001
     82  N          2.3080    7.9760   52.1040 N.3   120  TYR120     -0.1241
     83  CA         2.3490    9.4190   51.8580 C.3   120  TYR120      0.1605
     84  C          3.7730    9.9980   51.9400 C.2   120  TYR120      0.2264
     85  O          4.1990   10.7040   51.0380 O.2   120  TYR120     -0.2867
     86  CB         1.4390   10.1690   52.8110 C.3   120  TYR120      0.0534
     87  CG         1.0540   11.4830   52.2710 C.ar  120  TYR120     -0.0201
     88  CD1        0.0520   11.5830   51.2870 C.ar  120  TYR120     -0.0009
     89  CD2        1.6950   12.6330   52.7000 C.ar  120  TYR120     -0.0009
     90  CE1       -0.3170   12.8330   50.7800 C.ar  120  TYR120      0.0417
     91  CE2        1.3220   13.9010   52.2030 C.ar  120  TYR120      0.0417
     92  CZ         0.3060   13.9780   51.2590 C.ar  120  TYR120      0.1957
     93  OH        -0.0330   15.2070   50.7270 O.3   120  TYR120     -0.2866
     94  N          7.0290   10.8450   48.7680 N.3   124  ARG124     -0.1245
     95  CA         7.6170   12.1740   48.7810 C.3   124  ARG124      0.1563
     96  C          9.0990   12.1270   49.2310 C.2   124  ARG124      0.2260
     97  O          9.6730   13.1410   49.6240 O.2   124  ARG124     -0.2867
     98  CB         6.7640   13.0960   49.6640 C.3   124  ARG124      0.0307
     99  CG         5.4720   13.5520   48.9520 C.3   124  ARG124      0.0489
    100  CD         4.3280   14.0500   49.9030 C.3   124  ARG124      0.2205
    101  NE         3.1130   14.2920   49.1110 N.pl3 124  ARG124     -0.0865
    102  CZ         2.3050   13.3240   48.6790 C.cat 124  ARG124      0.5346
    103  NH1        2.5460   12.0620   48.9860 N.pl3 124  ARG124      0.1354
    104  NH2        1.2320   13.6090   47.9400 N.pl3 124  ARG124      0.1354
    105  N          2.4180   19.2600   54.7450 N.3   134  ALA134     -0.1245
    106  CA         1.3830   18.3980   55.3510 C.3   134  ALA134      0.1562
    107  C          0.9020   19.0070   56.6560 C.2   134  ALA134      0.2260
    108  O         -0.3050   18.9300   57.0100 O.2   134  ALA134     -0.2867
    109  CB         1.8970   16.9630   55.5820 C.3   134  ALA134      0.0290
    110  N         -1.5880   21.4980   55.7480 N.3   137  LYS137     -0.1231
    111  CA        -2.8110   20.8860   55.2400 C.3   137  LYS137      0.1693
    112  C         -3.6860   20.4970   56.3970 C.2   137  LYS137      0.2591
    113  O         -4.8890   20.7550   56.4070 O.2   137  LYS137     -0.2718
    114  CB        -2.5110   19.6410   54.3650 C.3   137  LYS137      0.0285
    115  CG        -3.7130   19.1020   53.5790 C.3   137  LYS137      0.0035
    116  CD        -4.2120   20.0890   52.5470 C.3   137  LYS137      0.0206
    117  CE        -5.6340   19.7440   52.2350 C.3   137  LYS137      0.1093
    118  NZ        -6.0110   20.6930   51.1290 N.3   137  LYS137     -0.1314
    119  N         -3.0840   19.8740   57.3930 N.am  138  VAL138     -0.1980
    120  CA        -3.8490   19.4420   58.5490 C.3   138  VAL138      0.1595
    121  C         -4.3060   20.6520   59.3460 C.2   138  VAL138      0.2287
    122  O         -5.4410   20.6710   59.8160 O.2   138  VAL138     -0.2864
    123  CB        -3.0490   18.4480   59.4380 C.3   138  VAL138      0.0276
    124  CG1       -3.8390   18.0390   60.6300 C.3   138  VAL138      0.0022
    125  CG2       -2.6790   17.2050   58.6290 C.3   138  VAL138      0.0022
    126  N         -6.7720   24.3500   49.2530 N.3   145  LEU145     -0.1245
    127  CA        -7.8760   23.9390   48.3700 C.3   145  LEU145      0.1561
    128  C         -9.1400   24.5830   48.8790 C.2   145  LEU145      0.2260
    129  O         -9.6030   24.2150   49.9420 O.2   145  LEU145     -0.2867
    130  CB        -8.0330   22.4150   48.3300 C.3   145  LEU145      0.0270
    131  CG        -8.9060   21.9760   47.1200 C.3   145  LEU145      0.0019
    132  CD1       -8.3580   20.8330   46.2420 C.3   145  LEU145      0.0001
    133  CD2      -10.3540   21.7510   47.5030 C.3   145  LEU145      0.0001
    134  N        -12.5010   22.7770   50.5210 N.3   148  SER148     -0.1202
    135  CA       -12.2170   21.3800   50.8660 C.3   148  SER148      0.2020
    136  C        -13.2340   20.8820   51.8940 C.2   148  SER148      0.2619
    137  O        -13.6220   21.6470   52.7730 O.2   148  SER148     -0.2717
    138  CB       -10.8310   21.2900   51.4810 C.3   148  SER148      0.2103
    139  OG       -10.5800   19.9340   51.8750 O.3   148  SER148     -0.2182
    140  N        -13.6220   19.6000   51.7850 N.am  149  SER149     -0.1937
    141  CA       -14.4350   18.8860   52.7950 C.3   149  SER149      0.2055
    142  C        -13.6840   18.5450   54.0660 C.2   149  SER149      0.2643
    143  O        -14.2880   18.2310   55.0880 O.2   149  SER149     -0.2714
    144  CB       -14.9340   17.5670   52.1760 C.3   149  SER149      0.2130
    145  OG       -15.7760   17.9090   51.0940 O.3   149  SER149     -0.2179
    146  N        -12.3560   18.5920   54.0280 N.am  150  MET150     -0.1963
    147  CA       -11.5750   18.2640   55.2340 C.3   150  MET150      0.1722
    148  C        -11.7410   19.3810   56.2820 C.2   150  MET150      0.2458
    149  O        -11.6520   20.5530   55.9380 O.2   150  MET150     -0.2730
    150  CB       -10.1040   18.1240   54.8310 C.3   150  MET150      0.0427
    151  CG        -9.2510   17.5580   55.9390 C.3   150  MET150      0.0599
    152  SD        -7.6810   17.1590   55.1810 S.3   150  MET150     -0.1393
    153  CE        -6.5270   17.3790   56.4670 C.3   150  MET150      0.0692
    154  N        -12.0180   19.0240   57.5480 N.am  151  PRO151     -0.2727
    155  CA       -12.1290   19.9660   58.6430 C.3   151  PRO151      0.1402
    156  C        -10.8240   20.7570   58.8200 C.2   151  PRO151      0.2269
    157  O         -9.7440   20.2200   58.6200 O.2   151  PRO151     -0.2865
    158  CB       -12.3640   19.0620   59.8620 C.3   151  PRO151      0.0296
    159  CG       -13.0320   17.8720   59.3300 C.3   151  PRO151      0.0237
    160  CD       -12.3000   17.6470   57.9910 C.3   151  PRO151      0.0939
    161  N         -8.6030   21.5470   61.1060 N.3   153  PHE153     -0.1241
    162  CA        -8.3460   21.0990   62.4880 C.3   153  PHE153      0.1605
    163  C         -7.6050   22.0820   63.3890 C.2   153  PHE153      0.2264
    164  O         -7.8580   22.1340   64.6020 O.2   153  PHE153     -0.2867
    165  CB        -7.5770   19.7750   62.4540 C.3   153  PHE153      0.0534
    166  CG        -8.3670   18.6360   61.8570 C.ar  153  PHE153     -0.0203
    167  CD1       -9.3430   17.9770   62.6210 C.ar  153  PHE153     -0.0042
    168  CD2       -8.1410   18.2160   60.5450 C.ar  153  PHE153     -0.0042
    169  CE1      -10.0930   16.8960   62.0570 C.ar  153  PHE153     -0.0003
    170  CE2       -8.8520   17.1500   60.0070 C.ar  153  PHE153     -0.0003
    171  CZ        -9.8260   16.4970   60.7560 C.ar  153  PHE153     -0.0000
    172  N         -7.6510   20.0810   66.9360 N.3   159  LEU159     -0.1245
    173  CA        -6.3480   19.4700   67.2620 C.3   159  LEU159      0.1561
    174  C         -5.3180   20.4810   67.7590 C.2   159  LEU159      0.2260
    175  O         -5.2110   21.5690   67.1900 O.2   159  LEU159     -0.2867
    176  CB        -5.7760   18.7660   66.0340 C.3   159  LEU159      0.0270
    177  CG        -6.6330   17.6270   65.4970 C.3   159  LEU159      0.0019
    178  CD1       -6.0210   16.9970   64.2370 C.3   159  LEU159      0.0001
    179  CD2       -6.8790   16.6050   66.5740 C.3   159  LEU159      0.0001
    180  N          0.4210   13.5010   64.0270 N.3   167  VAL167     -0.1245
    181  CA        -0.2340   12.9050   62.8610 C.3   167  VAL167      0.1561
    182  C          0.6120   13.1050   61.5900 C.2   167  VAL167      0.2260
    183  O          0.6700   12.2440   60.6810 O.2   167  VAL167     -0.2867
    184  CB        -1.6980   13.3980   62.7690 C.3   167  VAL167      0.0252
    185  CG1       -1.8430   14.6450   61.9390 C.3   167  VAL167      0.0019
    186  CG2       -2.5880   12.2470   62.2350 C.3   167  VAL167      0.0019
    187  N          2.2230   10.2740   58.9820 N.3   171  LEU171     -0.1245
    188  CA         2.3220   10.3030   57.4930 C.3   171  LEU171      0.1561
    189  C          3.7350   10.1750   56.9530 C.2   171  LEU171      0.2260
    190  O          3.9450    9.5120   55.9160 O.2   171  LEU171     -0.2867
    191  CB         1.7300   11.5940   56.9010 C.3   171  LEU171      0.0270
    192  CG         0.2370   11.8570   57.1230 C.3   171  LEU171      0.0019
    193  CD1       -0.0950   13.2790   56.6070 C.3   171  LEU171      0.0001
    194  CD2       -0.6140   10.7680   56.4510 C.3   171  LEU171      0.0001
@<TRIPOS>BOND
     1   132   131    1
     2   131   133    1
     3   131   130    1
     4   104   102    1
     5    71    68    1
     6    71    72    1
     7   130   127    1
     8   127   128    1
     9   127   126    1
    10   102   103    1
    11   102   101    2
    12    94    95    1
    13    95    96    1
    14    95    98    1
    15    68    67    1
    16    68    69    1
    17   128   129    2
    18    99    98    1
    19    99   100    1
    20   101   100    1
    21    72    73    1
    22    96    97    2
    23    73    67    1
    24    67    65   am
    25    69    70    2
    26    58    57    2
    27    65    66    2
    28    65    64    1
    29   134   135    1
    30    93    92    1
    31    57    63   am
    32    57    56    1
    33    90    92   ar
    34    90    88   ar
    35    64    63    1
    36   135   138    1
    37   135   136    1
    38    85    84    2
    39   145   144    1
    40   118   117    1
    41    56    55    1
    42    56    59    1
    43    92    91   ar
    44    88    87   ar
    45   138   139    1
    46    74    75    1
    47    62    60    1
    48   140   136   am
    49   140   141    1
    50    83    84    1
    51    83    82    1
    52    83    86    1
    53   136   137    2
    54    75    76    1
    55    75    78    1
    56   144   141    1
    57    81    79    1
    58    91    89   ar
    59   117   116    1
    60    76    77    2
    61    87    89   ar
    62    87    86    1
    63    59    60    1
    64   116   115    1
    65    60    61    1
    66   141   142    1
    67    45    43   ar
    68    45    46   ar
    69    43    42   ar
    70    34    33    2
    71    79    78    1
    72    79    80    1
    73   115   114    1
    74   146   142   am
    75   146   147    1
    76   142   143    2
    77    46    44   ar
    78    38    39    1
    79    38    41    1
    80    38    37    1
    81   114   111    1
    82    42    41    1
    83    42    44   ar
    84    33    37   am
    85    33    32    1
    86    39    40    2
    87   105   106    1
    88   150   147    1
    89   150   151    1
    90   152   151    1
    91   152   153    1
    92    50    49    2
    93    35    32    1
    94    35    36    1
    95   147   148    1
    96   111   110    1
    97   111   112    1
    98    32    31    1
    99   106   109    1
   100   106   107    1
   101    47    48    1
   102   190   189    2
   103   149   148    2
   104    48    49    1
   105    48    51    1
   106   148   154   am
   107   112   113    2
   108   112   119   am
   109   194   192    1
   110    29    28    2
   111   193   192    1
   112   107   108    2
   113    31    28   am
   114   191   192    1
   115   191   188    1
   116   189   188    1
   117    28    27    1
   118    52    51    1
   119    52    54    1
   120    52    53    1
   121   119   120    1
   122   188   187    1
   123   154   160    1
   124   154   155    1
   125    23    22    2
   126   160   159    1
   127   120   121    1
   128   120   123    1
   129   157   156    2
   130   125   123    1
   131   155   156    1
   132   155   158    1
   133    27    26    1
   134    27    30    1
   135    22    21    1
   136   159   158    1
   137   121   122    2
   138   123   124    1
   139    21    24    1
   140    21    20    1
   141    24    25    1
   142   170   168   ar
   143   170   171   ar
   144    15    14    2
   145   168   166   ar
   146   183   182    2
   147   171   169   ar
   148    20    14   am
   149   161   162    1
   150    14    13    1
   151   182   181    1
   152   166   165    1
   153   166   167   ar
   154   185   184    1
   155    11    10    2
   156   169   167   ar
   157   186   184    1
   158   165   162    1
   159   162   163    1
   160    19    17   am
   161    13    16    1
   162    13    12    1
   163   184   181    1
   164    17    18    2
   165    17    16    1
   166   181   180    1
   167    10    12   am
   168    10     9    1
   169   163   164    2
   170     9     8    1
   171   178   177    1
   172     4     3    2
   173     3     2    1
   174     6     5    1
   175   177   176    1
   176   177   179    1
   177   176   173    1
   178     5     2    1
   179     5     7    1
   180     2     1    1
   181   172   173    1
   182   175   174    2
   183   173   174    1
