@<TRIPOS>MOLECULE
tmp/3oaaY00.pdb
 154 149 0 0 0
SMALL
GASTEIGER

@<TRIPOS>ATOM
      1  N         11.2530    4.4500  -91.6900 N.3   127  TYR127     -0.1241
      2  CA         9.9520    4.6040  -92.3350 C.3   127  TYR127      0.1605
      3  C          8.9770    5.4410  -91.5090 C.2   127  TYR127      0.2264
      4  O          8.7870    5.1950  -90.3180 O.2   127  TYR127     -0.2867
      5  CB         9.3420    3.2360  -92.6470 C.3   127  TYR127      0.0534
      6  CG        10.0020    2.5280  -93.8070 C.ar  127  TYR127     -0.0201
      7  CD1       10.9810    1.5670  -93.5960 C.ar  127  TYR127     -0.0009
      8  CD2        9.6510    2.8280  -95.1160 C.ar  127  TYR127     -0.0009
      9  CE1       11.5870    0.9200  -94.6570 C.ar  127  TYR127      0.0417
     10  CE2       10.2510    2.1890  -96.1820 C.ar  127  TYR127      0.0417
     11  CZ        11.2190    1.2350  -95.9480 C.ar  127  TYR127      0.1957
     12  OH        11.8180    0.5970  -97.0100 O.3   127  TYR127     -0.2866
     13  N          2.8390  -13.0150  -99.4800 N.3   148  ARG148     -0.1231
     14  CA         3.9840  -13.0010 -100.3810 C.3   148  ARG148      0.1694
     15  C          4.0600  -11.6700 -101.1210 C.2   148  ARG148      0.2592
     16  O          3.0390  -11.1240 -101.5410 O.2   148  ARG148     -0.2718
     17  CB         3.8980  -14.1520 -101.3860 C.3   148  ARG148      0.0321
     18  CG         2.8300  -13.9650 -102.4530 C.3   148  ARG148      0.0489
     19  CD         2.8310  -15.1130 -103.4500 C.3   148  ARG148      0.2205
     20  NE         2.4940  -16.3830 -102.8150 N.pl3 148  ARG148     -0.0865
     21  CZ         1.2550  -16.8490 -102.6940 C.cat 148  ARG148      0.5346
     22  NH1        0.2340  -16.1500 -103.1680 N.pl3 148  ARG148      0.1354
     23  NH2        1.0370  -18.0150 -102.1000 N.pl3 148  ARG148      0.1354
     24  N          5.2750  -11.1530 -101.2720 N.am  149  GLN149     -0.1966
     25  CA         5.4990   -9.9070 -101.9980 C.3   149  GLN149      0.1733
     26  C          4.6340   -8.7720 -101.4590 C.2   149  GLN149      0.2617
     27  O          3.6300   -8.4060 -102.0680 O.2   149  GLN149     -0.2715
     28  CB         5.2290  -10.1070 -103.4890 C.3   149  GLN149      0.0408
     29  CG         5.9900  -11.2690 -104.1020 C.3   149  GLN149      0.0908
     30  CD         5.6030  -11.5200 -105.5440 C.2   149  GLN149      0.2608
     31  OE1        5.3150  -10.5860 -106.2940 O.2   149  GLN149     -0.2717
     32  NE2        5.5860  -12.7880 -105.9390 N.am  149  GLN149     -0.0878
     33  N          5.0270   -8.2200 -100.3150 N.am  150  THR150     -0.1937
     34  CA         4.2860   -7.1210  -99.7040 C.3   150  THR150      0.2028
     35  C          5.2160   -6.0430  -99.1540 C.2   150  THR150      0.2643
     36  O          4.7660   -4.9690  -98.7540 O.2   150  THR150     -0.2714
     37  CB         3.3490   -7.6140  -98.5780 C.3   150  THR150      0.1808
     38  OG1        4.0670   -8.4940  -97.7050 O.3   150  THR150     -0.2208
     39  CG2        2.1560   -8.3500  -99.1600 C.3   150  THR150      0.0379
     40  N          6.5140   -6.3310  -99.1380 N.am  151  GLY151     -0.1939
     41  CA         7.4930   -5.3710  -98.6650 C.3   151  GLY151      0.2014
     42  C          8.2090   -5.7970  -97.3990 C.2   151  GLY151      0.2639
     43  O          8.9140   -4.9990  -96.7830 O.2   151  GLY151     -0.2714
     44  N          8.0280   -7.0550  -97.0100 N.am  152  LYS152     -0.1963
     45  CA         8.6470   -7.5820  -95.7980 C.3   152  LYS152      0.1728
     46  C         10.1620   -7.4050  -95.6680 C.2   152  LYS152      0.2617
     47  O         10.6390   -6.6140  -94.8530 O.2   152  LYS152     -0.2715
     48  CB         8.2150   -9.0350  -95.5730 C.3   152  LYS152      0.0311
     49  CG         6.7310   -9.2030  -95.2700 C.3   152  LYS152      0.0038
     50  CD         6.4080  -10.6200  -94.8400 C.3   152  LYS152      0.0206
     51  CE         5.7900  -11.4310  -95.9670 C.3   152  LYS152      0.1093
     52  NZ         6.7050  -11.6000  -97.1290 N.3   152  LYS152     -0.1314
     53  N         10.8640   -8.0720  -96.5710 N.am  153  THR153     -0.1937
     54  CA        12.3070   -8.0920  -96.6270 C.3   153  THR153      0.2028
     55  C         12.8250   -6.6900  -96.8760 C.2   153  THR153      0.2642
     56  O         13.7530   -6.2220  -96.2380 O.2   153  THR153     -0.2714
     57  CB        12.7330   -8.9860  -97.8020 C.3   153  THR153      0.1808
     58  OG1       12.2470  -10.3130  -97.5790 O.3   153  THR153     -0.2208
     59  CG2       14.2420   -9.0710  -97.9000 C.3   153  THR153      0.0379
     60  N         12.1630   -6.0170  -97.7950 N.am  154  ALA154     -0.1977
     61  CA        12.4820   -4.6730  -98.2700 C.3   154  ALA154      0.1597
     62  C         12.5430   -3.8210  -97.0080 C.2   154  ALA154      0.2287
     63  O         13.5620   -3.1950  -96.7170 O.2   154  ALA154     -0.2864
     64  CB        11.5150   -4.0580  -99.2750 C.3   154  ALA154      0.0319
     65  N         16.4510  -18.4870  -98.6150 N.3   177  GLN177     -0.1245
     66  CA        16.4080  -17.4040  -99.5910 C.3   177  GLN177      0.1566
     67  C         17.0340  -17.8300 -100.9110 C.2   177  GLN177      0.2260
     68  O         17.9260  -18.6760 -100.9410 O.2   177  GLN177     -0.2867
     69  CB        17.1160  -16.1600  -99.0510 C.3   177  GLN177      0.0367
     70  CG        16.3550  -15.4570  -97.9420 C.3   177  GLN177      0.0905
     71  CD        15.0070  -14.9420  -98.4030 C.2   177  GLN177      0.2608
     72  OE1       14.9050  -14.2650  -99.4270 O.2   177  GLN177     -0.2717
     73  NE2       13.9610  -15.2660  -97.6530 N.am  177  GLN177     -0.0878
     74  N         15.0330  -13.4790  -91.8440 N.3   238  ASP238     -0.1225
     75  CA        14.2080  -13.4240  -93.0390 C.3   238  ASP238      0.1805
     76  C         13.5620  -14.7750  -93.3030 C.2   238  ASP238      0.2597
     77  O         14.2350  -15.7330  -93.6800 O.2   238  ASP238     -0.2718
     78  CB        15.0200  -12.9760  -94.2530 C.3   238  ASP238      0.1424
     79  CG        14.1410  -12.4830  -95.3880 C.2   238  ASP238      0.3668
     80  OD1       12.9830  -12.9370  -95.4830 O.co2 238  ASP238     -0.2456
     81  OD2       14.6030  -11.6340  -96.1790 O.co2 238  ASP238     -0.2456
     82  N         12.2510  -14.8390  -93.0940 N.am  239  ASP239     -0.1974
     83  CA        11.4760  -16.0440  -93.3690 C.3   239  ASP239      0.1709
     84  C         11.7690  -17.1850  -92.3980 C.2   239  ASP239      0.2293
     85  O         12.1350  -18.2800  -92.8230 O.2   239  ASP239     -0.2864
     86  CB        11.7180  -16.5140  -94.8090 C.3   239  ASP239      0.1436
     87  CG        10.4950  -16.3550  -95.6890 C.2   239  ASP239      0.3671
     88  OD1       10.6550  -15.9780  -96.8700 O.co2 239  ASP239     -0.2456
     89  OD2        9.3730  -16.6110  -95.2030 O.co2 239  ASP239     -0.2456
     90  N          5.5950  -15.4900  -93.2600 N.3   308  GLU308     -0.1245
     91  CA         4.7800  -15.4350  -94.4640 C.3   308  GLU308      0.1567
     92  C          3.4160  -16.0640  -94.2110 C.2   308  GLU308      0.2260
     93  O          3.3230  -17.1810  -93.7020 O.2   308  GLU308     -0.2867
     94  CB         5.4930  -16.1430  -95.6150 C.3   308  GLU308      0.0388
     95  CG         4.8090  -15.9930  -96.9610 C.3   308  GLU308      0.1160
     96  CD         5.7360  -16.3150  -98.1160 C.2   308  GLU308      0.3649
     97  OE1        6.6750  -15.5280  -98.3620 O.co2 308  GLU308     -0.2457
     98  OE2        5.5330  -17.3570  -98.7740 O.co2 308  GLU308     -0.2457
     99  N         -0.3990   -2.9300 -100.4560 N.3   337  PHE337     -0.1241
    100  CA         0.8690   -2.8860 -101.1720 C.3   337  PHE337      0.1605
    101  C          0.6920   -2.7250 -102.6780 C.2   337  PHE337      0.2264
    102  O          1.0960   -1.7140 -103.2510 O.2   337  PHE337     -0.2867
    103  CB         1.6870   -4.1440 -100.8740 C.3   337  PHE337      0.0534
    104  CG         2.8290   -4.3610 -101.8220 C.ar  337  PHE337     -0.0203
    105  CD1        4.0540   -3.7550 -101.6030 C.ar  337  PHE337     -0.0042
    106  CD2        2.6790   -5.1750 -102.9330 C.ar  337  PHE337     -0.0042
    107  CE1        5.1060   -3.9560 -102.4740 C.ar  337  PHE337     -0.0003
    108  CE2        3.7260   -5.3790 -103.8070 C.ar  337  PHE337     -0.0003
    109  CZ         4.9420   -4.7690 -103.5780 C.ar  337  PHE337     -0.0000
    110  N          2.7230    1.8610 -100.7170 N.3   342  ARG342     -0.1231
    111  CA         3.7790    0.8500 -100.5980 C.3   342  ARG342      0.1679
    112  C          4.1710    0.3840  -99.1890 C.2   342  ARG342      0.2434
    113  O          4.0670   -0.8060  -98.8960 O.2   342  ARG342     -0.2733
    114  CB         5.0190    1.2670 -101.3950 C.3   342  ARG342      0.0321
    115  CG         5.5520    0.1710 -102.2920 C.3   342  ARG342      0.0489
    116  CD         4.4800   -0.3320 -103.2400 C.3   342  ARG342      0.2205
    117  NE         5.0280   -1.2470 -104.2350 N.pl3 342  ARG342     -0.0865
    118  CZ         4.3200   -1.8010 -105.2140 C.cat 342  ARG342      0.5346
    119  NH1        3.0260   -1.5350 -105.3320 N.pl3 342  ARG342      0.1354
    120  NH2        4.9080   -2.6210 -106.0750 N.pl3 342  ARG342      0.1354
    121  N          4.6590    1.2970  -98.3280 N.am  343  PRO343     -0.2729
    122  CA         4.8990    0.8550  -96.9490 C.3   343  PRO343      0.1401
    123  C          3.5710    0.4260  -96.3450 C.2   343  PRO343      0.2269
    124  O          2.9920    1.1430  -95.5310 O.2   343  PRO343     -0.2865
    125  CB         5.4180    2.1200  -96.2620 C.3   343  PRO343      0.0296
    126  CG         5.9960    2.9370  -97.3670 C.3   343  PRO343      0.0237
    127  CD         5.1140    2.6800  -98.5520 C.3   343  PRO343      0.0939
    128  N          6.3110    6.2180  -98.7800 N.3   410  GLN410     -0.1231
    129  CA         7.6090    6.6820  -99.2520 C.3   410  GLN410      0.1698
    130  C          8.3360    5.6320 -100.0860 C.2   410  GLN410      0.2592
    131  O          8.0520    4.4370  -99.9890 O.2   410  GLN410     -0.2718
    132  CB         8.4780    7.0860  -98.0600 C.3   410  GLN410      0.0381
    133  CG         8.6570    5.9810  -97.0280 C.3   410  GLN410      0.0905
    134  CD         9.4980    6.4150  -95.8450 C.2   410  GLN410      0.2608
    135  OE1        9.0070    6.5040  -94.7210 O.2   410  GLN410     -0.2717
    136  NE2       10.7750    6.6830  -96.0920 N.am  410  GLN410     -0.0878
    137  N          9.2790    6.0920 -100.9040 N.am  411  LYS411     -0.1966
    138  CA        10.0880    5.2020 -101.7280 C.3   411  LYS411      0.1728
    139  C         10.9010    4.2460 -100.8600 C.2   411  LYS411      0.2616
    140  O         10.9850    4.4170  -99.6440 O.2   411  LYS411     -0.2715
    141  CB        11.0070    6.0110 -102.6450 C.3   411  LYS411      0.0311
    142  CG        10.7250    5.8210 -104.1270 C.3   411  LYS411      0.0038
    143  CD        10.8610    7.1290 -104.8900 C.3   411  LYS411      0.0206
    144  CE        11.0200    6.8810 -106.3820 C.3   411  LYS411      0.1093
    145  NZ         9.9440    6.0070 -106.9260 N.3   411  LYS411     -0.1314
    146  N         11.5030    3.2420 -101.4900 N.am  412  GLN412     -0.1977
    147  CA        12.1680    2.1720 -100.7520 C.3   412  GLN412      0.1601
    148  C         13.4860    2.5870 -100.0980 C.2   412  GLN412      0.2287
    149  O         13.5280    2.8830  -98.9040 O.2   412  GLN412     -0.2864
    150  CB        12.3900    0.9550 -101.6560 C.3   412  GLN412      0.0394
    151  CG        12.8470   -0.2920 -100.9130 C.3   412  GLN412      0.0908
    152  CD        12.9980   -1.4940 -101.8260 C.2   412  GLN412      0.2608
    153  OE1       12.6980   -1.4250 -103.0180 O.2   412  GLN412     -0.2717
    154  NE2       13.4700   -2.6030 -101.2690 N.am  412  GLN412     -0.0878
@<TRIPOS>BOND
     1   145   144    1
     2   144   143    1
     3    31    30    2
     4   120   118    1
     5    32    30   am
     6    30    29    1
     7   119   118    1
     8   118   117    2
     9   143   142    1
    10   117   116    1
    11   142   141    1
    12    29    28    1
    13   108   109   ar
    14   108   106   ar
    15   109   107   ar
    16    28    25    1
    17    19    20    1
    18    19    18    1
    19   102   101    2
    20   116   115    1
    21    22    21    1
    22   153   152    2
    23   106   104   ar
    24    20    21    2
    25    21    23    1
    26   101   100    1
    27   141   138    1
    28   107   105   ar
    29    18    17    1
    30   115   114    1
    31    27    26    2
    32    25    26    1
    33    25    24    1
    34   152   154   am
    35   152   151    1
    36   104   105   ar
    37   104   103    1
    38   138   137    1
    39   138   139    1
    40   150   151    1
    41   150   147    1
    42    16    15    2
    43   146   139   am
    44   146   147    1
    45    26    33   am
    46   114   111    1
    47    17    14    1
    48    24    15   am
    49   100   103    1
    50   100    99    1
    51    15    14    1
    52    68    67    2
    53    67    66    1
    54   137   130   am
    55   139   140    2
    56   147   148    1
    57   110   111    1
    58   111   112    1
    59    14    13    1
    60    33    34    1
    61   148   149    2
    62   130   131    2
    63   130   129    1
    64    34    35    1
    65    34    37    1
    66    66    69    1
    67    66    65    1
    68    72    71    2
    69    64    61    1
    70   129   128    1
    71   129   132    1
    72   112   113    2
    73   112   121   am
    74    39    37    1
    75    35    40   am
    76    35    36    2
    77    40    41    1
    78    69    70    1
    79    98    96   ar
    80    41    42    1
    81    37    38    1
    82   127   121    1
    83   127   126    1
    84    71    70    1
    85    71    73   am
    86    97    96   ar
    87   121   122    1
    88    61    60    1
    89    61    62    1
    90    96    95    1
    91   132   133    1
    92    59    57    1
    93    57    58    1
    94    57    54    1
    95    60    55   am
    96    42    44   am
    97    42    43    2
    98   126   125    1
    99    52    51    1
   100   133   134    1
   101    44    45    1
   102    12    11    1
   103    62    63    2
   104    95    94    1
   105   122   123    1
   106   122   125    1
   107    55    54    1
   108    55    56    2
   109    88    87   ar
   110    54    53    1
   111    53    46   am
   112   123   124    2
   113    10    11   ar
   114    10     8   ar
   115    81    79   ar
   116   136   134   am
   117    51    50    1
   118    11     9   ar
   119   134   135    2
   120    45    46    1
   121    45    48    1
   122    87    89   ar
   123    87    86    1
   124    46    47    2
   125    94    91    1
   126    48    49    1
   127    80    79   ar
   128    79    78    1
   129    49    50    1
   130     8     6   ar
   131    86    83    1
   132     9     7   ar
   133    91    92    1
   134    91    90    1
   135    78    75    1
   136    92    93    2
   137     6     7   ar
   138     6     5    1
   139    77    76    2
   140    83    82    1
   141    83    84    1
   142    76    82   am
   143    76    75    1
   144    75    74    1
   145    85    84    2
   146     5     2    1
   147     2     1    1
   148     2     3    1
   149     3     4    2
