@<TRIPOS>MOLECULE
tmp/3oadC00.pdb
 203 197 0 0 0
SMALL
GASTEIGER

@<TRIPOS>ATOM
      1  N         30.6730    7.5430  -14.2760 N.3    18  THR18      -0.1203
      2  CA        31.1460    8.7110  -13.5140 C.3    18  THR18       0.1994
      3  C         32.6610    8.8820  -13.4940 C.2    18  THR18       0.2618
      4  O         33.1550    9.9680  -13.2550 O.2    18  THR18      -0.2717
      5  CB        30.5340    8.8440  -12.0670 C.3    18  THR18       0.1784
      6  OG1       31.1340    7.9130  -11.1560 O.3    18  THR18      -0.2211
      7  CG2       29.0380    8.6810  -12.0830 C.3    18  THR18       0.0376
      8  N         33.3930    7.8070  -13.7730 N.am   19  GLN19      -0.1965
      9  CA        34.8370    7.8610  -13.8090 C.3    19  GLN19       0.1733
     10  C         35.3260    7.1580  -15.0680 C.2    19  GLN19       0.2616
     11  O         34.9670    6.0060  -15.3300 O.2    19  GLN19      -0.2715
     12  CB        35.4520    7.2150  -12.5640 C.3    19  GLN19       0.0408
     13  CG        35.2640    7.9510  -11.2320 C.3    19  GLN19       0.0908
     14  CD        35.6950    7.0730  -10.0440 C.2    19  GLN19       0.2608
     15  OE1       36.7650    6.4720  -10.0790 O.2    19  GLN19      -0.2717
     16  NE2       34.8520    6.9770   -9.0130 N.am   19  GLN19      -0.0878
     17  N         36.1240    7.9010  -15.8380 N.am   20  TYR20      -0.1974
     18  CA        36.6810    7.5080  -17.1150 C.3    20  TYR20       0.1639
     19  C         38.1900    7.6610  -16.9830 C.2    20  TYR20       0.2290
     20  O         38.6950    8.7680  -16.7280 O.2    20  TYR20      -0.2864
     21  CB        36.1730    8.4670  -18.2020 C.3    20  TYR20       0.0560
     22  CG        34.7390    8.2400  -18.6070 C.ar   20  TYR20      -0.0198
     23  CD1       34.4250    7.3760  -19.6640 C.ar   20  TYR20      -0.0009
     24  CD2       33.6950    8.8370  -17.9120 C.ar   20  TYR20      -0.0009
     25  CE1       33.0990    7.1320  -20.0290 C.ar   20  TYR20       0.0417
     26  CE2       32.3780    8.5970  -18.2790 C.ar   20  TYR20       0.0417
     27  CZ        32.0800    7.7570  -19.3380 C.ar   20  TYR20       0.1957
     28  OH        30.7570    7.5050  -19.6980 O.3    20  TYR20      -0.2866
     29  N         42.9950    9.6940  -15.0110 N.3    36  VAL36      -0.1245
     30  CA        42.0420   10.5270  -15.7590 C.3    36  VAL36       0.1561
     31  C         42.8080   11.5700  -16.6010 C.2    36  VAL36       0.2260
     32  O         43.7650   12.1740  -16.1200 O.2    36  VAL36      -0.2867
     33  CB        41.1100   11.3030  -14.7900 C.3    36  VAL36       0.0252
     34  CG1       40.1830   12.2610  -15.5370 C.3    36  VAL36       0.0019
     35  CG2       40.2970   10.3660  -13.9130 C.3    36  VAL36       0.0019
     36  N         42.4570   15.0910  -17.9940 N.3    38  ASP38      -0.1239
     37  CA        41.5850   16.1630  -17.5740 C.3    38  ASP38       0.1674
     38  C         41.8830   17.4190  -18.3650 C.2    38  ASP38       0.2266
     39  O         42.8760   18.0860  -18.1350 O.2    38  ASP38      -0.2867
     40  CB        41.7980   16.3930  -16.0790 C.3    38  ASP38       0.1410
     41  CG        40.9750   17.5510  -15.5250 C.2    38  ASP38       0.3668
     42  OD1       39.8640   17.8200  -16.0340 O.co2  38  ASP38      -0.2456
     43  OD2       41.4470   18.1680  -14.5490 O.co2  38  ASP38      -0.2456
     44  N         40.4260   19.9320  -17.8220 N.3    40  GLY40      -0.1210
     45  CA        40.2500   20.9430  -16.7590 C.3    40  GLY40       0.1956
     46  C         41.4660   21.2000  -15.8780 C.2    40  GLY40       0.2612
     47  O         41.4280   22.0620  -15.0210 O.2    40  GLY40      -0.2717
     48  N         42.5380   20.4230  -16.0600 N.am   41  SER41      -0.1952
     49  CA        43.8150   20.6600  -15.3550 C.3    41  SER41       0.1924
     50  C         44.9940   20.4800  -16.3020 C.2    41  SER41       0.2314
     51  O         44.8460   19.8340  -17.3490 O.2    41  SER41      -0.2863
     52  CB        43.9580   19.7950  -14.1040 C.3    41  SER41       0.2116
     53  OG        43.8690   18.3920  -14.3600 O.3    41  SER41      -0.2180
     54  N         49.7870   14.3950  -11.9540 N.3    45  TRP45      -0.1227
     55  CA        49.9720   13.9700  -10.5670 C.3    45  TRP45       0.1737
     56  C         49.8200   12.4550  -10.3800 C.2    45  TRP45       0.2595
     57  O         48.8610   11.8620  -10.8880 O.2    45  TRP45      -0.2718
     58  CB        48.9130   14.5720   -9.6750 C.3    45  TRP45       0.0564
     59  CG        48.7840   16.0550   -9.6300 C.ar   45  TRP45       0.0003
     60  CD1       47.9170   16.8300  -10.3530 C.ar   45  TRP45       0.0946
     61  CD2       49.4640   16.9360   -8.7420 C.ar   45  TRP45       0.0152
     62  NE1       48.0430   18.1460   -9.9880 N.ar   45  TRP45      -0.2442
     63  CE2       48.9890   18.2420   -9.0050 C.ar   45  TRP45       0.0810
     64  CE3       50.4540   16.7540   -7.7580 C.ar   45  TRP45       0.0012
     65  CZ2       49.4730   19.3710   -8.3170 C.ar   45  TRP45       0.0191
     66  CZ3       50.9260   17.8700   -7.0590 C.ar   45  TRP45       0.0001
     67  CH2       50.4260   19.1630   -7.3370 C.ar   45  TRP45       0.0015
     68  N         50.7490   11.8410   -9.6470 N.am   46  VAL46      -0.1966
     69  CA        50.5160   10.5250   -9.0350 C.3    46  VAL46       0.1712
     70  C         50.8840   10.5670   -7.5560 C.2    46  VAL46       0.2458
     71  O         51.5880   11.4810   -7.1290 O.2    46  VAL46      -0.2730
     72  CB        51.2440    9.3480   -9.7460 C.3    46  VAL46       0.0289
     73  CG1       50.7310    9.2030  -11.1540 C.3    46  VAL46       0.0023
     74  CG2       52.7520    9.5240   -9.7210 C.3    46  VAL46       0.0023
     75  N         50.3840    9.6070   -6.7620 N.am   47  PRO47      -0.2727
     76  CA        50.8240    9.4520   -5.3700 C.3    47  PRO47       0.1402
     77  C         52.3150    9.1130   -5.2420 C.2    47  PRO47       0.2269
     78  O         52.8200    8.2420   -5.9510 O.2    47  PRO47      -0.2865
     79  CB        49.9750    8.2800   -4.8810 C.3    47  PRO47       0.0296
     80  CG        48.7720    8.2450   -5.7890 C.3    47  PRO47       0.0237
     81  CD        49.3450    8.6140   -7.1100 C.3    47  PRO47       0.0939
     82  N         43.8410    8.1560    1.1930 N.3    57  ALA57      -0.1245
     83  CA        43.8070    8.1710   -0.2720 C.3    57  ALA57       0.1562
     84  C         45.1030    7.6390   -0.8870 C.2    57  ALA57       0.2260
     85  O         45.1080    7.1240   -2.0070 O.2    57  ALA57      -0.2867
     86  CB        43.5380    9.5740   -0.7610 C.3    57  ALA57       0.0290
     87  N         45.7770    3.4850   -3.0300 N.3    61  HIS61      -0.1241
     88  CA        46.1110    3.7020   -4.4480 C.3    61  HIS61       0.1621
     89  C         47.5430    3.2850   -4.7340 C.2    61  HIS61       0.2264
     90  O         48.3200    3.0960   -3.8010 O.2    61  HIS61      -0.2867
     91  CB        45.8480    5.1460   -4.8650 C.3    61  HIS61       0.0745
     92  CG        44.3910    5.4640   -4.9910 C.ar   61  HIS61       0.0817
     93  ND1       43.7160    6.2500   -4.0810 N.ar   61  HIS61      -0.2268
     94  CD2       43.4670    5.0490   -5.8890 C.ar   61  HIS61       0.1154
     95  CE1       42.4440    6.3220   -4.4240 C.ar   61  HIS61       0.1986
     96  NE2       42.2690    5.6010   -5.5180 N.ar   61  HIS61      -0.2212
     97  N         47.8690   22.2470   -4.7960 N.3    81  LEU81      -0.1245
     98  CA        46.5860   22.3550   -5.4520 C.3    81  LEU81       0.1561
     99  C         45.5540   22.5810   -4.3590 C.2    81  LEU81       0.2260
    100  O         45.3160   21.6980   -3.5310 O.2    81  LEU81      -0.2867
    101  CB        46.2770   21.0480   -6.1940 C.3    81  LEU81       0.0270
    102  CG        45.2360   20.9670   -7.3170 C.3    81  LEU81       0.0019
    103  CD1       44.6000   19.6110   -7.2870 C.3    81  LEU81       0.0001
    104  CD2       44.1590   22.0380   -7.2230 C.3    81  LEU81       0.0001
    105  N         42.0330   22.6860   -3.1220 N.3    83  TYR83      -0.1241
    106  CA        40.8390   21.9610   -3.5910 C.3    83  TYR83       0.1605
    107  C         39.7450   21.9390   -2.5320 C.2    83  TYR83       0.2264
    108  O         40.0350   21.7830   -1.3500 O.2    83  TYR83      -0.2867
    109  CB        41.2230   20.5230   -3.9890 C.3    83  TYR83       0.0534
    110  CG        40.0810   19.6650   -4.5260 C.ar   83  TYR83      -0.0201
    111  CD1       39.4990   18.6630   -3.7370 C.ar   83  TYR83      -0.0009
    112  CD2       39.5900   19.8440   -5.8280 C.ar   83  TYR83      -0.0009
    113  CE1       38.4540   17.8760   -4.2330 C.ar   83  TYR83       0.0417
    114  CE2       38.5470   19.0700   -6.3240 C.ar   83  TYR83       0.0417
    115  CZ        37.9850   18.0890   -5.5270 C.ar   83  TYR83       0.1957
    116  OH        36.9550   17.3200   -6.0250 O.3    83  TYR83      -0.2866
    117  N         45.7710   19.3710   -1.8480 N.3    88  VAL88      -0.1245
    118  CA        46.6020   18.3830   -2.5370 C.3    88  VAL88       0.1561
    119  C         47.9820   19.0150   -2.6910 C.2    88  VAL88       0.2260
    120  O         48.1150   20.1280   -3.2240 O.2    88  VAL88      -0.2867
    121  CB        46.0240   17.9730   -3.9440 C.3    88  VAL88       0.0252
    122  CG1       47.0930   17.3390   -4.8230 C.3    88  VAL88       0.0019
    123  CG2       44.8500   17.0440   -3.8090 C.3    88  VAL88       0.0019
    124  N         52.4390   13.2000   -5.1670 N.3   111  VAL111     -0.1245
    125  CA        51.5330   13.6260   -4.0910 C.3   111  VAL111      0.1561
    126  C         51.8960   12.9980   -2.7420 C.2   111  VAL111      0.2260
    127  O         52.0250   11.7780   -2.6180 O.2   111  VAL111     -0.2867
    128  CB        50.0500   13.3820   -4.4600 C.3   111  VAL111      0.0252
    129  CG1       49.1120   13.5910   -3.2570 C.3   111  VAL111      0.0019
    130  CG2       49.6410   14.2910   -5.6360 C.3   111  VAL111      0.0019
    131  N         46.9920   14.6300    0.6160 N.3   114  MET114     -0.1245
    132  CA        45.6790   14.9450    0.0460 C.3   114  MET114      0.1570
    133  C         44.5590   14.5620    1.0200 C.2   114  MET114      0.2261
    134  O         44.7530   13.6730    1.8490 O.2   114  MET114     -0.2867
    135  CB        45.5040   14.2370   -1.3130 C.3   114  MET114      0.0387
    136  CG        45.5890   12.6770   -1.2920 C.3   114  MET114      0.0595
    137  SD        45.7190   11.8930   -2.9330 S.3   114  MET114     -0.1393
    138  CE        44.9670   13.1380   -3.9510 C.3   114  MET114      0.0692
    139  N         37.3340   13.6470   -1.8650 N.3   118  PRO118     -0.2102
    140  CA        36.7680   12.5110   -2.6320 C.3   118  PRO118      0.1504
    141  C         37.7950   11.4620   -3.0180 C.2   118  PRO118      0.2575
    142  O         37.4260   10.3820   -3.4760 O.2   118  PRO118     -0.2718
    143  CB        36.2890   13.1720   -3.9180 C.3   118  PRO118      0.0282
    144  CG        37.2770   14.2980   -4.1230 C.3   118  PRO118      0.0208
    145  CD        37.6000   14.8120   -2.7300 C.3   118  PRO118      0.0893
    146  N         39.0650   11.7840   -2.8210 N.am  119  PHE119     -0.1977
    147  CA        40.1440   11.0630   -3.4760 C.3   119  PHE119      0.1639
    148  C         40.2840    9.6070   -3.1030 C.2   119  PHE119      0.2290
    149  O         40.5890    8.8010   -3.9650 O.2   119  PHE119     -0.2864
    150  CB        41.4850   11.7990   -3.3130 C.3   119  PHE119      0.0560
    151  CG        41.4570   13.2040   -3.8440 C.ar  119  PHE119     -0.0200
    152  CD1       41.5810   13.4440   -5.2080 C.ar  119  PHE119     -0.0042
    153  CD2       41.2910   14.2820   -2.9790 C.ar  119  PHE119     -0.0042
    154  CE1       41.5160   14.7420   -5.7020 C.ar  119  PHE119     -0.0003
    155  CE2       41.2370   15.5680   -3.4540 C.ar  119  PHE119     -0.0003
    156  CZ        41.3530   15.8170   -4.8150 C.ar  119  PHE119     -0.0000
    157  N         38.4250    7.2770   -5.4030 N.3   122  ALA122     -0.1245
    158  CA        38.7480    7.2040   -6.8250 C.3   122  ALA122      0.1562
    159  C         39.1620    5.7720   -7.2470 C.2   122  ALA122      0.2260
    160  O         39.8730    5.0890   -6.5100 O.2   122  ALA122     -0.2867
    161  CB        39.8340    8.2010   -7.1570 C.3   122  ALA122      0.0290
    162  N         40.8730    5.3660  -10.0450 N.3   124  PHE124     -0.1227
    163  CA        42.1760    5.6380  -10.6420 C.3   124  PHE124      0.1736
    164  C         43.1480    6.1110   -9.5500 C.2   124  PHE124      0.2595
    165  O         42.7270    6.4180   -8.4280 O.2   124  PHE124     -0.2718
    166  CB        42.0130    6.7090  -11.7350 C.3   124  PHE124      0.0547
    167  CG        41.2640    7.9110  -11.2670 C.ar  124  PHE124     -0.0202
    168  CD1       39.8570    7.9020  -11.2230 C.ar  124  PHE124     -0.0042
    169  CD2       41.9630    9.0540  -10.8170 C.ar  124  PHE124     -0.0042
    170  CE1       39.1600    9.0040  -10.7390 C.ar  124  PHE124     -0.0003
    171  CE2       41.2710   10.1620  -10.3420 C.ar  124  PHE124     -0.0003
    172  CZ        39.8710   10.1440  -10.3070 C.ar  124  PHE124     -0.0000
    173  N         44.4350    6.1760   -9.9020 N.am  125  ASP125     -0.1960
    174  CA        45.5160    6.5670   -9.0080 C.3   125  ASP125      0.1843
    175  C         45.9740    8.0130   -9.1810 C.2   125  ASP125      0.2662
    176  O         46.6640    8.5310   -8.3290 O.2   125  ASP125     -0.2711
    177  CB        46.7360    5.6810   -9.2790 C.3   125  ASP125      0.1450
    178  CG        46.4330    4.2320   -9.1210 C.2   125  ASP125      0.3671
    179  OD1       46.1100    3.8610   -7.9750 O.co2 125  ASP125     -0.2456
    180  OD2       46.5290    3.4650  -10.1210 O.co2 125  ASP125     -0.2456
    181  N         45.6620    8.6370  -10.3090 N.am  126  GLY126     -0.1716
    182  CA        46.1740    9.9770  -10.5890 C.2   126  GLY126      0.1480
    183  C         45.5430   10.6940  -11.7630 C.2   126  GLY126      0.2820
    184  O         44.5050   10.2730  -12.2760 O.2   126  GLY126     -0.2669
    185  N         46.1630   11.7920  -12.1680 N.am  127  VAL127     -0.1943
    186  CA        45.6010   12.6590  -13.1980 C.3   127  VAL127      0.1599
    187  C         46.6450   13.1670  -14.1780 C.2   127  VAL127      0.2287
    188  O         47.7500   13.5750  -13.8020 O.2   127  VAL127     -0.2864
    189  CB        44.7240   13.8480  -12.6060 C.3   127  VAL127      0.0276
    190  CG1       45.5550   14.8050  -11.7510 C.3   127  VAL127      0.0022
    191  CG2       44.0790   14.6380  -13.7350 C.3   127  VAL127      0.0022
    192  N         33.8370    8.9530  -24.9600 N.3   162  TYR162     -0.1241
    193  CA        33.3400    8.3630  -23.7260 C.3   162  TYR162      0.1605
    194  C         32.0880    7.5720  -24.0550 C.2   162  TYR162      0.2264
    195  O         31.1020    8.1480  -24.5180 O.2   162  TYR162     -0.2867
    196  CB        32.9550    9.4820  -22.7650 C.3   162  TYR162      0.0534
    197  CG        34.0860   10.0780  -21.9680 C.ar  162  TYR162     -0.0201
    198  CD1       35.4200    9.6630  -22.1430 C.ar  162  TYR162     -0.0009
    199  CD2       33.8280   11.0830  -21.0450 C.ar  162  TYR162     -0.0009
    200  CE1       36.4630   10.2450  -21.3970 C.ar  162  TYR162      0.0417
    201  CE2       34.8590   11.6660  -20.3000 C.ar  162  TYR162      0.0417
    202  CZ        36.1640   11.2420  -20.4820 C.ar  162  TYR162      0.1957
    203  OH        37.1450   11.8310  -19.7270 O.3   162  TYR162     -0.2866
@<TRIPOS>BOND
     1   192   193    1
     2   195   194    2
     3   194   193    1
     4   193   196    1
     5   196   197    1
     6   198   197   ar
     7   198   200   ar
     8   197   199   ar
     9   200   202   ar
    10   199   201   ar
    11   202   201   ar
    12   202   203    1
    13    25    23   ar
    14    25    27   ar
    15    28    27    1
    16    23    22   ar
    17    27    26   ar
    18    22    21    1
    19    22    24   ar
    20    38    39    2
    21    38    37    1
    22    26    24   ar
    23    21    18    1
    24    36    37    1
    25    44    45    1
    26    37    40    1
    27    51    50    2
    28    18    19    1
    29    18    17    1
    30    19    20    2
    31    45    46    1
    32    31    32    2
    33    31    30    1
    34    50    49    1
    35    40    41    1
    36    48    46   am
    37    48    49    1
    38    42    41   ar
    39    46    47    2
    40    17    10   am
    41    30    29    1
    42    30    33    1
    43    34    33    1
    44    41    43   ar
    45    49    52    1
    46    11    10    2
    47    10     9    1
    48    33    35    1
    49    53    52    1
    50     1     2    1
    51   187   188    2
    52   187   186    1
    53     9     8    1
    54     9    12    1
    55     8     3   am
    56   191   189    1
    57     2     3    1
    58     2     5    1
    59     3     4    2
    60   186   189    1
    61   186   185    1
    62   189   190    1
    63    12    13    1
    64   184   183    2
    65   185   183   am
    66     7     5    1
    67     5     6    1
    68    54    55    1
    69   183   182    1
    70   166   167    1
    71   166   163    1
    72   167   168   ar
    73   167   169   ar
    74    13    14    1
    75   168   170   ar
    76    73    72    1
    77    57    56    2
    78   169   171   ar
    79   170   172   ar
    80   163   162    1
    81   163   164    1
    82   182   181    2
    83    55    56    1
    84    55    58    1
    85    56    68   am
    86    60    62   ar
    87    60    59   ar
    88   171   172   ar
    89   181   175    1
    90   180   178   ar
    91    15    14    2
    92    14    16   am
    93    62    63   ar
    94   173   164   am
    95   173   174    1
    96    72    74    1
    97    72    69    1
    98    58    59    1
    99    68    69    1
   100    59    61   ar
   101   164   165    2
   102   177   178    1
   103   177   174    1
   104   175   174    1
   105   175   176    2
   106   178   179   ar
   107    69    70    1
   108    63    61   ar
   109    63    65   ar
   110    61    64   ar
   111    65    67   ar
   112    64    66   ar
   113    70    71    2
   114    70    75   am
   115    67    66   ar
   116   102   103    1
   117   102   104    1
   118   102   101    1
   119   159   158    1
   120   159   160    2
   121   161   158    1
   122    81    75    1
   123    81    80    1
   124   158   157    1
   125    75    76    1
   126   114   112   ar
   127   114   115   ar
   128   101    98    1
   129   116   115    1
   130    78    77    2
   131    94    96   ar
   132    94    92   ar
   133   112   110   ar
   134    80    79    1
   135   154   152   ar
   136   154   156   ar
   137   130   128    1
   138   115   113   ar
   139    96    95   ar
   140    98    97    1
   141    98    99    1
   142    76    77    1
   143    76    79    1
   144   152   151   ar
   145   124   125    1
   146    92    91    1
   147    92    93   ar
   148    91    88    1
   149   122   121    1
   150   156   155   ar
   151    89    88    1
   152    89    90    2
   153   110   109    1
   154   110   111   ar
   155   128   125    1
   156   128   129    1
   157    88    87    1
   158    95    93   ar
   159    99   100    2
   160   113   111   ar
   161   144   143    1
   162   144   145    1
   163   125   126    1
   164   109   106    1
   165   149   148    2
   166   138   137    1
   167   121   123    1
   168   121   118    1
   169   143   140    1
   170   151   150    1
   171   151   153   ar
   172   106   105    1
   173   106   107    1
   174   147   150    1
   175   147   148    1
   176   147   146    1
   177   142   141    2
   178   155   153   ar
   179   120   119    2
   180   141   146   am
   181   141   140    1
   182   137   136    1
   183   126   127    2
   184   145   139    1
   185   119   118    1
   186   140   139    1
   187   118   117    1
   188   107   108    2
   189    85    84    2
   190   135   136    1
   191   135   132    1
   192    84    83    1
   193    86    83    1
   194    83    82    1
   195   132   131    1
   196   132   133    1
   197   133   134    2
