@<TRIPOS>MOLECULE
tmp/3oagC00.pdb
 206 201 0 0 0
SMALL
GASTEIGER

@<TRIPOS>ATOM
      1  N         30.9180    7.7540  -14.3750 N.3    18  THR18      -0.1203
      2  CA        31.4030    8.8940  -13.5740 C.3    18  THR18       0.1994
      3  C         32.9190    8.9990  -13.5540 C.2    18  THR18       0.2618
      4  O         33.4690   10.0550  -13.2870 O.2    18  THR18      -0.2717
      5  CB        30.8850    8.8850  -12.0900 C.3    18  THR18       0.1784
      6  OG1       31.5490    7.8550  -11.3300 O.3    18  THR18      -0.2211
      7  CG2       29.3690    8.7060  -12.0240 C.3    18  THR18       0.0376
      8  N         33.5960    7.8970  -13.8200 N.am   19  GLN19      -0.1965
      9  CA        35.0510    7.8850  -13.8330 C.3    19  GLN19       0.1733
     10  C         35.5070    7.2000  -15.1100 C.2    19  GLN19       0.2616
     11  O         35.1000    6.0690  -15.4030 O.2    19  GLN19      -0.2715
     12  CB        35.6150    7.1690  -12.5930 C.3    19  GLN19       0.0408
     13  CG        35.4230    7.9180  -11.2730 C.3    19  GLN19       0.0908
     14  CD        35.8700    7.1040  -10.0640 C.2    19  GLN19       0.2608
     15  OE1       37.0000    6.6090  -10.0140 O.2    19  GLN19      -0.2717
     16  NE2       34.9850    6.9750   -9.0750 N.am   19  GLN19      -0.0878
     17  N         36.3420    7.9070  -15.8640 N.am   20  TYR20      -0.1974
     18  CA        36.8840    7.4200  -17.0970 C.3    20  TYR20       0.1639
     19  C         38.3940    7.5400  -17.0030 C.2    20  TYR20       0.2290
     20  O         38.9500    8.6450  -16.9680 O.2    20  TYR20      -0.2864
     21  CB        36.3660    8.2600  -18.2710 C.3    20  TYR20       0.0560
     22  CG        34.8910    8.0900  -18.6020 C.ar   20  TYR20      -0.0198
     23  CD1       34.4730    7.1370  -19.5410 C.ar   20  TYR20      -0.0009
     24  CD2       33.9180    8.8990  -18.0030 C.ar   20  TYR20      -0.0009
     25  CE1       33.1430    6.9850  -19.8670 C.ar   20  TYR20       0.0417
     26  CE2       32.5730    8.7470  -18.3180 C.ar   20  TYR20       0.0417
     27  CZ        32.1890    7.7800  -19.2540 C.ar   20  TYR20       0.1957
     28  OH        30.8450    7.6160  -19.5850 O.3    20  TYR20      -0.2866
     29  N         43.0080    9.7060  -14.8370 N.3    36  VAL36      -0.1245
     30  CA        42.0260   10.4770  -15.5850 C.3    36  VAL36       0.1561
     31  C         42.7630   11.4990  -16.4390 C.2    36  VAL36       0.2260
     32  O         43.7600   12.0960  -15.9980 O.2    36  VAL36      -0.2867
     33  CB        41.0170   11.2030  -14.6470 C.3    36  VAL36       0.0252
     34  CG1       40.1870   12.2070  -15.4260 C.3    36  VAL36       0.0019
     35  CG2       40.1230   10.1940  -13.9440 C.3    36  VAL36       0.0019
     36  N         42.4250   15.0180  -17.9200 N.3    38  ASP38      -0.1239
     37  CA        41.6010   16.1050  -17.4060 C.3    38  ASP38       0.1674
     38  C         41.8730   17.4480  -18.0800 C.2    38  ASP38       0.2266
     39  O         42.9340   18.0500  -17.8840 O.2    38  ASP38      -0.2867
     40  CB        41.8240   16.2120  -15.8910 C.3    38  ASP38       0.1410
     41  CG        40.9650   17.2710  -15.2470 C.2    38  ASP38       0.3668
     42  OD1       39.8890   17.5940  -15.7770 O.co2  38  ASP38      -0.2456
     43  OD2       41.3690   17.7910  -14.2010 O.co2  38  ASP38      -0.2456
     44  N         40.3910   20.1250  -17.4770 N.3    40  GLY40      -0.1210
     45  CA        40.1790   21.1660  -16.4800 C.3    40  GLY40       0.1956
     46  C         41.3430   21.3630  -15.5300 C.2    40  GLY40       0.2612
     47  O         41.1980   22.0470  -14.5180 O.2    40  GLY40      -0.2717
     48  N         42.4830   20.7430  -15.8460 N.am   41  SER41      -0.1952
     49  CA        43.7390   20.9240  -15.1010 C.3    41  SER41       0.1924
     50  C         44.9630   20.6700  -16.0000 C.2    41  SER41       0.2314
     51  O         44.8120   20.1430  -17.1040 O.2    41  SER41      -0.2863
     52  CB        43.7670   20.0420  -13.8520 C.3    41  SER41       0.2116
     53  OG        43.7030   18.6590  -14.1660 O.3    41  SER41      -0.2180
     54  N         49.6680   14.4610  -11.7400 N.3    45  TRP45      -0.1227
     55  CA        49.8680   14.0610  -10.3430 C.3    45  TRP45       0.1737
     56  C         49.7050   12.5560  -10.1860 C.2    45  TRP45       0.2595
     57  O         48.7550   11.9680  -10.7100 O.2    45  TRP45      -0.2718
     58  CB        48.8490   14.7040   -9.4070 C.3    45  TRP45       0.0564
     59  CG        48.7400   16.1840   -9.4250 C.ar   45  TRP45       0.0003
     60  CD1       47.9200   16.9310  -10.2180 C.ar   45  TRP45       0.0946
     61  CD2       49.4210   17.1060   -8.5690 C.ar   45  TRP45       0.0152
     62  NE1       48.0580   18.2620   -9.9230 N.ar   45  TRP45      -0.2442
     63  CE2       48.9780   18.4000   -8.9170 C.ar   45  TRP45       0.0810
     64  CE3       50.3780   16.9660   -7.5520 C.ar   45  TRP45       0.0012
     65  CZ2       49.4600   19.5570   -8.2830 C.ar   45  TRP45       0.0191
     66  CZ3       50.8550   18.1130   -6.9140 C.ar   45  TRP45       0.0001
     67  CH2       50.3950   19.3920   -7.2870 C.ar   45  TRP45       0.0015
     68  N         50.6290   11.9420   -9.4580 N.am   46  VAL46      -0.1966
     69  CA        50.4240   10.6040   -8.9160 C.3    46  VAL46       0.1712
     70  C         50.8500   10.5870   -7.4420 C.2    46  VAL46       0.2458
     71  O         51.6800   11.4100   -7.0400 O.2    46  VAL46      -0.2730
     72  CB        51.1450    9.5000   -9.7280 C.3    46  VAL46       0.0289
     73  CG1       50.6110    9.4470  -11.1650 C.3    46  VAL46       0.0023
     74  CG2       52.6530    9.6780   -9.7020 C.3    46  VAL46       0.0023
     75  N         50.2740    9.6660   -6.6290 N.am   47  PRO47      -0.2727
     76  CA        50.6860    9.5650   -5.2310 C.3    47  PRO47       0.1402
     77  C         52.1500    9.1450   -5.0920 C.2    47  PRO47       0.2269
     78  O         52.6470    8.3240   -5.8690 O.2    47  PRO47      -0.2865
     79  CB        49.7670    8.4740   -4.6670 C.3    47  PRO47       0.0296
     80  CG        48.6150    8.3870   -5.6220 C.3    47  PRO47       0.0237
     81  CD        49.2300    8.6740   -6.9530 C.3    47  PRO47       0.0939
     82  N         45.8460    3.4030   -2.9680 N.3    61  HIS61      -0.1241
     83  CA        46.1970    3.6430   -4.3710 C.3    61  HIS61       0.1621
     84  C         47.6380    3.2790   -4.6560 C.2    61  HIS61       0.2264
     85  O         48.4470    3.1950   -3.7330 O.2    61  HIS61      -0.2867
     86  CB        45.9350    5.0980   -4.7670 C.3    61  HIS61       0.0745
     87  CG        44.4840    5.4140   -4.9310 C.ar   61  HIS61       0.0817
     88  ND1       43.8220    6.3180   -4.1290 N.ar   61  HIS61      -0.2268
     89  CD2       43.5570    4.9130   -5.7800 C.ar   61  HIS61       0.1154
     90  CE1       42.5510    6.3650   -4.4800 C.ar   61  HIS61       0.1986
     91  NE2       42.3660    5.5300   -5.4870 N.ar   61  HIS61      -0.2212
     92  N         47.9200   22.4180   -4.4790 N.3    81  LEU81      -0.1245
     93  CA        46.6380   22.6000   -5.1360 C.3    81  LEU81       0.1561
     94  C         45.5820   22.8810   -4.0700 C.2    81  LEU81       0.2260
     95  O         45.5160   22.1840   -3.0580 O.2    81  LEU81      -0.2867
     96  CB        46.2770   21.3180   -5.8900 C.3    81  LEU81       0.0270
     97  CG        45.2530   21.2350   -7.0280 C.3    81  LEU81       0.0019
     98  CD1       44.5550   19.8980   -6.9190 C.3    81  LEU81       0.0001
     99  CD2       44.2170   22.3570   -7.0600 C.3    81  LEU81       0.0001
    100  N         41.7780   22.7290   -2.9310 N.3    83  TYR83      -0.1241
    101  CA        40.6310   21.8770   -3.2450 C.3    83  TYR83       0.1605
    102  C         39.5830   21.8860   -2.1260 C.2    83  TYR83       0.2264
    103  O         39.9220   21.7530   -0.9520 O.2    83  TYR83      -0.2867
    104  CB        41.1070   20.4460   -3.5370 C.3    83  TYR83       0.0534
    105  CG        40.0450   19.5410   -4.1240 C.ar   83  TYR83      -0.0201
    106  CD1       39.4190   18.5730   -3.3420 C.ar   83  TYR83      -0.0009
    107  CD2       39.6680   19.6540   -5.4630 C.ar   83  TYR83      -0.0009
    108  CE1       38.4420   17.7380   -3.8780 C.ar   83  TYR83       0.0417
    109  CE2       38.6880   18.8250   -6.0090 C.ar   83  TYR83       0.0417
    110  CZ        38.0830   17.8670   -5.2120 C.ar   83  TYR83       0.1957
    111  OH        37.1170   17.0460   -5.7500 O.3    83  TYR83      -0.2866
    112  N         45.7500   19.3120   -1.6700 N.3    88  VAL88      -0.1245
    113  CA        46.6930   18.4140   -2.3090 C.3    88  VAL88       0.1561
    114  C         48.0320   19.1380   -2.4400 C.2    88  VAL88       0.2260
    115  O         48.1100   20.2420   -2.9790 O.2    88  VAL88      -0.2867
    116  CB        46.1810   17.9310   -3.6830 C.3    88  VAL88       0.0252
    117  CG1       47.1810   16.9950   -4.3280 C.3    88  VAL88       0.0019
    118  CG2       44.8380   17.2390   -3.5230 C.3    88  VAL88       0.0019
    119  N         52.4350   13.2350   -5.0370 N.3   111  VAL111     -0.1245
    120  CA        51.5590   13.7200   -3.9700 C.3   111  VAL111      0.1561
    121  C         51.8970   13.0270   -2.6560 C.2   111  VAL111      0.2260
    122  O         51.9380   11.7940   -2.5910 O.2   111  VAL111     -0.2867
    123  CB        50.0560   13.5250   -4.3240 C.3   111  VAL111      0.0252
    124  CG1       49.1440   13.7350   -3.0940 C.3   111  VAL111      0.0019
    125  CG2       49.6510   14.4620   -5.4540 C.3   111  VAL111      0.0019
    126  N         47.0150   14.5140    0.8100 N.3   114  MET114     -0.1196
    127  CA        45.7220   14.8510    0.2110 C.3   114  MET114      0.1786
    128  C         44.5710   14.4310    1.1350 C.2   114  MET114      0.2306
    129  O         44.7280   13.5020    1.9280 O.2   114  MET114     -0.2863
    130  CB        45.5850   14.2200   -1.1910 C.2   114  MET114      0.0070
    131  CG        45.2630   12.7190   -1.2240 C.2   114  MET114      0.0282
    132  SD        45.5620   11.8690   -2.8060 S.3   114  MET114     -0.1125
    133  CE        45.2310   13.1750   -3.9860 C.3   114  MET114      0.0742
    134  N         37.2730   13.4100   -2.1100 N.3   118  PRO118     -0.2102
    135  CA        36.7550   12.1510   -2.6650 C.3   118  PRO118      0.1504
    136  C         37.8520   11.1750   -3.0680 C.2   118  PRO118      0.2575
    137  O         37.5580   10.1030   -3.6000 O.2   118  PRO118     -0.2718
    138  CB        36.0210   12.6180   -3.9200 C.3   118  PRO118      0.0282
    139  CG        36.8470   13.7650   -4.3990 C.3   118  PRO118      0.0208
    140  CD        37.3960   14.4450   -3.1570 C.3   118  PRO118      0.0893
    141  N         39.1000   11.5390   -2.7970 N.am  119  PHE119     -0.1977
    142  CA        40.2510   10.8330   -3.3510 C.3   119  PHE119      0.1639
    143  C         40.3440    9.3440   -3.0370 C.2   119  PHE119      0.2290
    144  O         40.6030    8.5570   -3.9420 O.2   119  PHE119     -0.2864
    145  CB        41.5470   11.5500   -2.9980 C.3   119  PHE119      0.0560
    146  CG        41.6070   12.9530   -3.5090 C.ar  119  PHE119     -0.0200
    147  CD1       41.8920   13.2060   -4.8490 C.ar  119  PHE119     -0.0042
    148  CD2       41.3740   14.0260   -2.6570 C.ar  119  PHE119     -0.0042
    149  CE1       41.9490   14.5090   -5.3240 C.ar  119  PHE119     -0.0003
    150  CE2       41.4270   15.3220   -3.1280 C.ar  119  PHE119     -0.0003
    151  CZ        41.7140   15.5670   -4.4620 C.ar  119  PHE119     -0.0000
    152  N         38.1130    7.2810   -2.5810 N.3   121  LEU121     -0.1231
    153  CA        37.0620    6.6140   -3.3430 C.3   121  LEU121      0.1693
    154  C         37.2120    6.6590   -4.8800 C.2   121  LEU121      0.2591
    155  O         36.3290    6.1830   -5.6040 O.2   121  LEU121     -0.2718
    156  CB        35.6910    7.1490   -2.9220 C.3   121  LEU121      0.0284
    157  CG        35.1690    6.8040   -1.5200 C.3   121  LEU121      0.0019
    158  CD1       33.6970    7.2170   -1.4150 C.3   121  LEU121      0.0001
    159  CD2       35.3350    5.3110   -1.1780 C.3   121  LEU121      0.0001
    160  N         38.3150    7.2330   -5.3680 N.am  122  ALA122     -0.1980
    161  CA        38.6510    7.2020   -6.7850 C.3   122  ALA122      0.1597
    162  C         39.1610    5.8160   -7.1830 C.2   122  ALA122      0.2287
    163  O         39.9110    5.1930   -6.4250 O.2   122  ALA122     -0.2864
    164  CB        39.6850    8.2680   -7.1130 C.3   122  ALA122      0.0319
    165  N         40.9210    5.3780   -9.9530 N.3   124  PHE124     -0.1227
    166  CA        42.1940    5.6750  -10.6100 C.3   124  PHE124      0.1736
    167  C         43.2090    6.1750   -9.5810 C.2   124  PHE124      0.2595
    168  O         42.8310    6.6400   -8.5030 O.2   124  PHE124     -0.2718
    169  CB        41.9670    6.7520  -11.6770 C.3   124  PHE124      0.0547
    170  CG        41.1910    7.9490  -11.1700 C.ar  124  PHE124     -0.0202
    171  CD1       39.7930    7.9220  -11.1270 C.ar  124  PHE124     -0.0042
    172  CD2       41.8590    9.0910  -10.7270 C.ar  124  PHE124     -0.0042
    173  CE1       39.0720    9.0220  -10.6620 C.ar  124  PHE124     -0.0003
    174  CE2       41.1450   10.2070  -10.2460 C.ar  124  PHE124     -0.0003
    175  CZ        39.7530   10.1760  -10.2220 C.ar  124  PHE124     -0.0000
    176  N         44.4900    6.1000   -9.9220 N.am  125  ASP125     -0.1960
    177  CA        45.5490    6.5130   -9.0020 C.3   125  ASP125      0.1843
    178  C         45.9560    7.9680   -9.1480 C.2   125  ASP125      0.2662
    179  O         46.4940    8.5480   -8.2140 O.2   125  ASP125     -0.2711
    180  CB        46.7610    5.5910   -9.1250 C.3   125  ASP125      0.1450
    181  CG        46.3670    4.1340   -9.1430 C.2   125  ASP125      0.3671
    182  OD1       45.7940    3.6680   -8.1330 O.co2 125  ASP125     -0.2456
    183  OD2       46.6090    3.4650  -10.1720 O.co2 125  ASP125     -0.2456
    184  N         45.6840    8.5730  -10.3000 N.am  126  GLY126     -0.1716
    185  CA        46.0750    9.9590  -10.5030 C.2   126  GLY126      0.1480
    186  C         45.4660   10.6580  -11.6920 C.2   126  GLY126      0.2820
    187  O         44.3980   10.2920  -12.1680 O.2   126  GLY126     -0.2669
    188  N         46.1590   11.6870  -12.1610 N.am  127  VAL127     -0.1943
    189  CA        45.5840   12.6470  -13.0840 C.3   127  VAL127      0.1599
    190  C         46.6300   13.1150  -14.0630 C.2   127  VAL127      0.2287
    191  O         47.7710   13.3950  -13.6840 O.2   127  VAL127     -0.2864
    192  CB        45.0090   13.8890  -12.3420 C.3   127  VAL127      0.0276
    193  CG1       44.2280   14.7750  -13.2890 C.3   127  VAL127      0.0022
    194  CG2       44.0940   13.4570  -11.2390 C.3   127  VAL127      0.0022
    195  N         33.8410    9.0720  -24.8510 N.3   162  TYR162     -0.1241
    196  CA        33.3060    8.4130  -23.6570 C.3   162  TYR162      0.1605
    197  C         32.0660    7.5870  -24.0470 C.2   162  TYR162      0.2264
    198  O         31.1630    8.0970  -24.7010 O.2   162  TYR162     -0.2867
    199  CB        32.9000    9.4470  -22.6060 C.3   162  TYR162      0.0534
    200  CG        34.0190   10.1150  -21.8440 C.ar  162  TYR162     -0.0201
    201  CD1       35.3370    9.6330  -21.8850 C.ar  162  TYR162     -0.0009
    202  CD2       33.7490   11.2100  -21.0310 C.ar  162  TYR162     -0.0009
    203  CE1       36.3580   10.2650  -21.1530 C.ar  162  TYR162      0.0417
    204  CE2       34.7530   11.8330  -20.2940 C.ar  162  TYR162      0.0417
    205  CZ        36.0480   11.3530  -20.3540 C.ar  162  TYR162      0.1957
    206  OH        37.0230   11.9830  -19.6110 O.3   162  TYR162     -0.2866
@<TRIPOS>BOND
     1   195   196    1
     2   198   197    2
     3   197   196    1
     4   196   199    1
     5   199   200    1
     6   201   200   ar
     7   201   203   ar
     8   200   202   ar
     9   203   205   ar
    10   202   204   ar
    11   205   204   ar
    12   205   206    1
    13    25    23   ar
    14    25    27   ar
    15    28    27    1
    16    23    22   ar
    17    27    26   ar
    18    22    21    1
    19    22    24   ar
    20    26    24   ar
    21    21    18    1
    22    38    39    2
    23    38    37    1
    24    36    37    1
    25    44    45    1
    26    37    40    1
    27    51    50    2
    28    18    19    1
    29    18    17    1
    30    19    20    2
    31    45    46    1
    32    31    32    2
    33    31    30    1
    34    50    49    1
    35    40    41    1
    36    17    10   am
    37    48    46   am
    38    48    49    1
    39    42    41   ar
    40    30    29    1
    41    30    33    1
    42    46    47    2
    43    34    33    1
    44    11    10    2
    45    41    43   ar
    46    10     9    1
    47    49    52    1
    48    33    35    1
    49     1     2    1
    50    53    52    1
    51   190   191    2
    52   190   189    1
    53     9     8    1
    54     9    12    1
    55     8     3   am
    56     2     3    1
    57     2     5    1
    58     3     4    2
    59   193   192    1
    60   189   192    1
    61   189   188    1
    62    12    13    1
    63   192   194    1
    64   187   186    2
    65   188   186   am
    66     5     7    1
    67     5     6    1
    68    54    55    1
    69   186   185    1
    70   169   170    1
    71   169   166    1
    72    13    14    1
    73   170   171   ar
    74   170   172   ar
    75    73    72    1
    76   171   173   ar
    77   172   174   ar
    78    57    56    2
    79   173   175   ar
    80   166   165    1
    81   166   167    1
    82   185   184    2
    83    55    56    1
    84    55    58    1
    85   184   178    1
    86   174   175   ar
    87    60    62   ar
    88    60    59   ar
    89    56    68   am
    90   183   181   ar
    91    14    15    2
    92    14    16   am
    93    62    63   ar
    94   176   167   am
    95   176   177    1
    96    72    74    1
    97    72    69    1
    98   167   168    2
    99    68    69    1
   100    59    58    1
   101    59    61   ar
   102   178   177    1
   103   178   179    2
   104   181   180    1
   105   181   182   ar
   106   180   177    1
   107    63    61   ar
   108    63    65   ar
   109    69    70    1
   110    61    64   ar
   111    65    67   ar
   112    64    66   ar
   113    70    71    2
   114    70    75   am
   115    67    66   ar
   116   162   161    1
   117   162   163    2
   118   164   161    1
   119    99    97    1
   120    97    98    1
   121    97    96    1
   122    81    75    1
   123    81    80    1
   124   161   160    1
   125    75    76    1
   126   109   107   ar
   127   109   110   ar
   128    96    93    1
   129    78    77    2
   130    89    91   ar
   131    89    87   ar
   132   111   110    1
   133    80    79    1
   134   155   154    2
   135    91    90   ar
   136   107   105   ar
   137   125   123    1
   138   160   154   am
   139   149   147   ar
   140   149   151   ar
   141    76    77    1
   142    76    79    1
   143   110   108   ar
   144    93    92    1
   145    93    94    1
   146   119   120    1
   147    87    86    1
   148    87    88   ar
   149   154   153    1
   150   147   146   ar
   151    86    83    1
   152    84    83    1
   153    84    85    2
   154    90    88   ar
   155   151   150   ar
   156   139   138    1
   157   139   140    1
   158    83    82    1
   159   117   116    1
   160   123   120    1
   161   123   124    1
   162   105   104    1
   163   105   106   ar
   164    94    95    2
   165   133   132    1
   166   120   121    1
   167   144   143    2
   168   138   135    1
   169   108   106   ar
   170   116   118    1
   171   116   113    1
   172   137   136    2
   173   104   101    1
   174   146   145    1
   175   146   148   ar
   176   142   143    1
   177   142   145    1
   178   142   141    1
   179   153   156    1
   180   153   152    1
   181   101   100    1
   182   101   102    1
   183   140   134    1
   184   150   148   ar
   185   136   141   am
   186   136   135    1
   187   115   114    2
   188   156   157    1
   189   132   131    1
   190   135   134    1
   191   121   122    2
   192   114   113    1
   193   113   112    1
   194   102   103    2
   195   157   158    1
   196   157   159    1
   197   131   130    2
   198   130   127    1
   199   127   126    1
   200   127   128    1
   201   128   129    2
