@<TRIPOS>MOLECULE
tmp/3oauA00.pdb
 86 83 0 0 0
SMALL
GASTEIGER

@<TRIPOS>ATOM
      1  N        -19.6860   28.9480  -31.4610 N.3    31  ALA31      -0.1231
      2  CA       -20.2980   28.2890  -32.6200 C.3    31  ALA31       0.1694
      3  C        -20.5570   26.7860  -32.4220 C.2    31  ALA31       0.2592
      4  O        -21.0520   26.1320  -33.3390 O.2    31  ALA31      -0.2718
      5  CB       -19.4490   28.5200  -33.8690 C.3    31  ALA31       0.0304
      6  N        -20.2790   26.2480  -31.2290 N.am   32  HIS32      -0.1962
      7  CA       -20.4360   24.8110  -30.9860 C.3    32  HIS32       0.1787
      8  C        -21.4930   24.4140  -29.9890 C.2    32  HIS32       0.2620
      9  O        -21.5290   24.9500  -28.8860 O.2    32  HIS32      -0.2715
     10  CB       -19.0860   24.1790  -30.5160 C.3    32  HIS32       0.0785
     11  CG       -17.9910   24.2640  -31.5250 C.ar   32  HIS32       0.0821
     12  ND1      -17.9550   23.4160  -32.6240 N.ar   32  HIS32      -0.2267
     13  CD2      -16.9580   25.1350  -31.6090 C.ar   32  HIS32       0.1154
     14  CE1      -16.9090   23.8030  -33.3450 C.ar   32  HIS32       0.1986
     15  NE2      -16.2760   24.8330  -32.7760 N.ar   32  HIS32      -0.2212
     16  N        -22.2480   23.3480  -30.3250 N.am   33  THR33      -0.1951
     17  CA       -23.1280   22.6420  -29.4030 C.3    33  THR33       0.1897
     18  C        -22.1130   21.8560  -28.5380 C.2    33  THR33       0.2313
     19  O        -21.1550   21.2830  -29.0820 O.2    33  THR33      -0.2863
     20  CB       -24.0820   21.6900  -30.1640 C.3    33  THR33       0.1794
     21  OG1      -25.0730   22.4760  -30.8160 O.3    33  THR33      -0.2208
     22  CG2      -24.7900   20.6510  -29.2310 C.3    33  THR33       0.0378
     23  N        -27.1070   23.6220  -27.0000 N.3    52  SER52      -0.1202
     24  CA       -26.9080   24.2150  -28.3270 C.3    52  SER52       0.2020
     25  C        -26.2900   25.6140  -28.2220 C.2    52  SER52       0.2619
     26  O        -26.2210   26.1800  -27.1290 O.2    52  SER52      -0.2717
     27  CB       -28.2420   24.2990  -29.0730 C.3    52  SER52       0.2103
     28  OG       -29.0630   25.3250  -28.5400 O.3    52  SER52      -0.2182
     29  N        -25.8900   26.1810  -29.3660 N.am   53  THR53      -0.1952
     30  CA       -25.3810   27.5590  -29.4650 C.3    53  THR53       0.1897
     31  C        -26.4750   28.5170  -28.9430 C.2    53  THR53       0.2313
     32  O        -27.6630   28.2290  -29.1200 O.2    53  THR53      -0.2863
     33  CB       -24.9940   27.8790  -30.9210 C.3    53  THR53       0.1794
     34  OG1      -26.1530   27.7330  -31.7480 O.3    53  THR53      -0.2208
     35  CG2      -23.8750   26.9630  -31.4380 C.3    53  THR53       0.0378
     36  N        -19.3570   19.1900  -30.3600 N.3    99  LYS99      -0.1231
     37  CA       -19.9920   18.7200  -31.5840 C.3    99  LYS99       0.1693
     38  C        -19.3790   19.6130  -32.6630 C.2    99  LYS99       0.2592
     39  O        -19.3940   20.8390  -32.5270 O.2    99  LYS99      -0.2718
     40  CB       -21.5210   18.9380  -31.4980 C.3    99  LYS99       0.0285
     41  CG       -22.3210   17.9480  -32.2960 C.3    99  LYS99       0.0035
     42  CD       -23.8090   18.0430  -31.9790 C.3    99  LYS99       0.0206
     43  CE       -24.6650   17.4780  -33.0940 C.3    99  LYS99       0.1093
     44  NZ       -24.5280   15.9970  -33.2250 N.3    99  LYS99      -0.1314
     45  N        -18.7620   18.9960  -33.6620 N.am  100  GLY100     -0.1957
     46  CA       -18.1030   19.7010  -34.7560 C.3   100  GLY100      0.1869
     47  C        -17.4900   18.8040  -35.8130 C.2   100  GLY100      0.2309
     48  O        -17.4810   17.5770  -35.6900 O.2   100  GLY100     -0.2863
     49  N        -18.7020   23.0210  -40.3960 N.3   104  LEU104     -0.1231
     50  CA       -19.8530   22.8930  -39.4930 C.3   104  LEU104      0.1693
     51  C        -21.1990   22.7340  -40.2180 C.2   104  LEU104      0.2593
     52  O        -21.5750   23.5980  -41.0200 O.2   104  LEU104     -0.2718
     53  CB       -19.9170   24.0600  -38.4760 C.3   104  LEU104      0.0284
     54  CG       -18.7050   24.3050  -37.5530 C.3   104  LEU104      0.0019
     55  CD1      -18.9590   25.4770  -36.6350 C.3   104  LEU104      0.0001
     56  CD2      -18.3540   23.0570  -36.7030 C.3   104  LEU104      0.0001
     57  N        -21.9220   21.6260  -39.9170 N.am  105  SER105     -0.1938
     58  CA       -23.2540   21.3090  -40.4610 C.3   105  SER105      0.2055
     59  C        -24.2640   21.1020  -39.3150 C.2   105  SER105      0.2643
     60  O        -23.8620   21.0880  -38.1470 O.2   105  SER105     -0.2714
     61  CB       -23.1960   20.0670  -41.3500 C.3   105  SER105      0.2130
     62  OG       -23.0260   18.8800  -40.5900 O.3   105  SER105     -0.2179
     63  N        -25.5560   20.8980  -39.6540 N.am  106  ASP106     -0.1957
     64  CA       -26.6530   20.6960  -38.6940 C.3   106  ASP106      0.1840
     65  C        -26.5540   19.4500  -37.8160 C.2   106  ASP106      0.2622
     66  O        -27.2340   19.3830  -36.7860 O.2   106  ASP106     -0.2715
     67  CB       -28.0130   20.7540  -39.3920 C.3   106  ASP106      0.1450
     68  CG       -28.3700   22.1320  -39.9130 C.2   106  ASP106      0.3671
     69  OD1      -27.7680   23.1270  -39.4350 O.co2 106  ASP106     -0.2456
     70  OD2      -29.2710   22.2220  -40.7760 O.co2 106  ASP106     -0.2456
     71  N        -25.7310   18.4620  -38.2260 N.am  107  ASN107     -0.1958
     72  CA       -25.5190   17.2370  -37.4610 C.3   107  ASN107      0.1819
     73  C        -24.0930   16.6830  -37.6240 C.2   107  ASN107      0.2621
     74  O        -23.8170   15.9130  -38.5420 O.2   107  ASN107     -0.2715
     75  CB       -26.5980   16.1810  -37.7650 C.3   107  ASN107      0.1195
     76  CG       -26.5940   15.0580  -36.7710 C.2   107  ASN107      0.2630
     77  OD1      -26.2590   15.2380  -35.6040 O.2   107  ASN107     -0.2716
     78  ND2      -26.9250   13.8680  -37.2150 N.am  107  ASN107     -0.0877
     79  N        -23.2060   17.0660  -36.7010 N.am  108  ASP108     -0.1971
     80  CA       -21.7930   16.6750  -36.6800 C.3   108  ASP108      0.1709
     81  C        -21.4670   15.7130  -35.5430 C.2   108  ASP108      0.2293
     82  O        -22.1720   15.7120  -34.5350 O.2   108  ASP108     -0.2864
     83  CB       -20.9020   17.9290  -36.5830 C.3   108  ASP108      0.1436
     84  CG       -20.9280   18.7910  -37.8350 C.2   108  ASP108      0.3671
     85  OD1      -20.9210   18.2200  -38.9480 O.co2 108  ASP108     -0.2456
     86  OD2      -20.9400   20.0410  -37.7010 O.co2 108  ASP108     -0.2456
@<TRIPOS>BOND
     1    61    62    1
     2    61    58    1
     3    52    51    2
     4    70    68   ar
     5    58    57    1
     6    58    59    1
     7    49    50    1
     8    51    57   am
     9    51    50    1
    10    68    69   ar
    11    68    67    1
    12    63    59   am
    13    63    64    1
    14    50    53    1
    15    67    64    1
    16    59    60    2
    17    85    84   ar
    18    64    65    1
    19    74    73    2
    20    53    54    1
    21    71    65   am
    22    71    72    1
    23    84    86   ar
    24    84    83    1
    25    65    66    2
    26    75    72    1
    27    75    76    1
    28    73    72    1
    29    73    79   am
    30    54    56    1
    31    54    55    1
    32    78    76   am
    33    76    77    2
    34    79    80    1
    35    80    83    1
    36    80    81    1
    37    47    48    2
    38    47    46    1
    39    81    82    2
    40    46    45    1
    41     5     2    1
    42    45    38   am
    43    14    15   ar
    44    14    12   ar
    45     4     3    2
    46    44    43    1
    47    43    42    1
    48    15    13   ar
    49    38    39    2
    50    38    37    1
    51    12    11   ar
    52     2     3    1
    53     2     1    1
    54     3     6   am
    55    41    42    1
    56    41    40    1
    57    34    33    1
    58    13    11   ar
    59    37    40    1
    60    37    36    1
    61    11    10    1
    62    35    33    1
    63     6     7    1
    64     7    10    1
    65     7     8    1
    66    33    30    1
    67    21    20    1
    68    16     8   am
    69    16    17    1
    70    20    17    1
    71    20    22    1
    72     8     9    2
    73    30    29    1
    74    30    31    1
    75    17    18    1
    76    29    25   am
    77    32    31    2
    78    19    18    2
    79    27    28    1
    80    27    24    1
    81    24    25    1
    82    24    23    1
    83    25    26    2
