@<TRIPOS>MOLECULE
tmp/3oawA00.pdb
 178 166 0 0 0
SMALL
GASTEIGER

@<TRIPOS>ATOM
      1  N         47.3760   18.0600   40.4960 N.3   561  MET561     -0.1245
      2  CA        47.1740   19.0920   39.4940 C.3   561  MET561      0.1570
      3  C         46.2240   20.2130   39.8490 C.2   561  MET561      0.2261
      4  O         45.3460   20.0540   40.7010 O.2   561  MET561     -0.2867
      5  CB        46.9620   18.4990   38.1020 C.3   561  MET561      0.0387
      6  CG        48.2400   17.9090   37.5500 C.3   561  MET561      0.0595
      7  SD        48.0800   16.6510   36.2640 S.3   561  MET561     -0.1393
      8  CE        47.0030   15.4370   37.0610 C.3   561  MET561      0.0692
      9  N         43.3010   16.1380   40.5640 N.3   567  PRO567     -0.2116
     10  CA        43.8190   14.8260   40.1680 C.3   567  PRO567      0.1372
     11  C         45.2790   14.6150   40.4770 C.2   567  PRO567      0.2244
     12  O         46.0420   15.5740   40.6430 O.2   567  PRO567     -0.2868
     13  CB        43.5320   14.7550   38.6610 C.3   567  PRO567      0.0268
     14  CG        43.3760   16.1420   38.2190 C.3   567  PRO567      0.0207
     15  CD        43.2870   17.0590   39.4100 C.3   567  PRO567      0.0892
     16  N         48.9010   13.0090   39.2360 N.3   569  TRP569     -0.1241
     17  CA        49.7390   12.7380   38.0640 C.3   569  TRP569      0.1605
     18  C         50.8130   11.8110   38.5920 C.2   569  TRP569      0.2264
     19  O         51.6810   12.2680   39.3160 O.2   569  TRP569     -0.2867
     20  CB        50.3610   14.0430   37.5550 C.3   569  TRP569      0.0550
     21  CG        51.3440   13.8950   36.4410 C.ar  569  TRP569      0.0003
     22  CD1       52.6420   13.4840   36.5390 C.ar  569  TRP569      0.0946
     23  CD2       51.1510   14.2920   35.0790 C.ar  569  TRP569      0.0152
     24  NE1       53.2530   13.5410   35.3040 N.ar  569  TRP569     -0.2442
     25  CE2       52.3670   14.0580   34.3950 C.ar  569  TRP569      0.0810
     26  CE3       50.0590   14.8060   34.3610 C.ar  569  TRP569      0.0012
     27  CZ2       52.5190   14.3290   33.0310 C.ar  569  TRP569      0.0191
     28  CZ3       50.2120   15.0810   33.0160 C.ar  569  TRP569      0.0001
     29  CH2       51.4300   14.8520   32.3640 C.ar  569  TRP569      0.0015
     30  N         47.0300    9.0370   35.3190 N.3   588  ILE588     -0.1245
     31  CA        46.3080   10.0450   36.0890 C.3   588  ILE588      0.1561
     32  C         45.2350    9.2870   36.8900 C.2   588  ILE588      0.2260
     33  O         44.6110    8.3800   36.3500 O.2   588  ILE588     -0.2867
     34  CB        45.6950   11.1800   35.2130 C.3   588  ILE588      0.0252
     35  CG1       46.7660   11.9450   34.4280 C.3   588  ILE588      0.0019
     36  CG2       44.8420   12.1470   36.0440 C.3   588  ILE588      0.0019
     37  CD1       46.2420   12.6740   33.2000 C.3   588  ILE588      0.0001
     38  N         41.8460   10.0170   39.0450 N.3   590  LYS590     -0.1245
     39  CA        40.9350   11.1310   39.1830 C.3   590  LYS590      0.1561
     40  C         39.6030   10.7750   39.8120 C.2   590  LYS590      0.2260
     41  O         39.0560    9.6940   39.5590 O.2   590  LYS590     -0.2867
     42  CB        40.7340   11.7910   37.7880 C.3   590  LYS590      0.0271
     43  CG        40.1390   13.1910   37.8170 C.3   590  LYS590      0.0035
     44  CD        40.1790   13.9000   36.4870 C.3   590  LYS590      0.0206
     45  CE        39.9540   15.3950   36.6800 C.3   590  LYS590      0.1093
     46  NZ        40.1970   16.1710   35.4310 N.3   590  LYS590     -0.1314
     47  N         35.1780   13.2690   37.3990 N.3   593  ASP593     -0.1239
     48  CA        34.7030   12.9490   36.0540 C.3   593  ASP593      0.1674
     49  C         34.1500   11.5150   35.9950 C.2   593  ASP593      0.2266
     50  O         34.7420   10.6070   36.5950 O.2   593  ASP593     -0.2867
     51  CB        35.8700   13.0500   35.0530 C.3   593  ASP593      0.1410
     52  CG        36.6290   14.3640   35.0310 C.2   593  ASP593      0.3668
     53  OD1       36.0580   15.3920   35.4660 O.co2 593  ASP593     -0.2456
     54  OD2       37.7640   14.3790   34.5110 O.co2 593  ASP593     -0.2456
     55  N         34.2620    8.4930   34.1830 N.3   595  LEU595     -0.1245
     56  CA        35.1820    7.7950   33.2930 C.3   595  LEU595      0.1561
     57  C         34.5440    6.6640   32.5030 C.2   595  LEU595      0.2260
     58  O         35.1210    6.1830   31.5340 O.2   595  LEU595     -0.2867
     59  CB        36.3460    7.2910   34.1180 C.3   595  LEU595      0.0270
     60  CG        37.6280    8.0740   34.0240 C.3   595  LEU595      0.0019
     61  CD1       37.4750    9.5040   34.5010 C.3   595  LEU595      0.0001
     62  CD2       38.6660    7.4010   34.8130 C.3   595  LEU595      0.0001
     63  N         33.7890    8.3930   29.2650 N.3   598  ASP598     -0.1239
     64  CA        35.0300    8.5220   28.5000 C.3   598  ASP598      0.1674
     65  C         35.2940    7.2120   27.7800 C.2   598  ASP598      0.2266
     66  O         35.4300    7.2260   26.5630 O.2   598  ASP598     -0.2867
     67  CB        36.2280    8.8800   29.4050 C.3   598  ASP598      0.1410
     68  CG        36.4520   10.3650   29.7200 C.2   598  ASP598      0.3668
     69  OD1       35.6330   10.9430   30.4650 O.co2 598  ASP598     -0.2456
     70  OD2       37.5350   10.9050   29.3420 O.co2 598  ASP598     -0.2456
     71  N         43.3950    7.5930   23.9930 N.3   624  TYR624     -0.1241
     72  CA        44.1650    7.2280   25.1850 C.3   624  TYR624      0.1605
     73  C         43.4610    6.1770   26.0860 C.2   624  TYR624      0.2264
     74  O         42.2380    6.0220   26.0380 O.2   624  TYR624     -0.2867
     75  CB        44.5360    8.4880   25.9930 C.3   624  TYR624      0.0534
     76  CG        43.3390    9.3240   26.4120 C.ar  624  TYR624     -0.0201
     77  CD1       42.6960    9.1010   27.6300 C.ar  624  TYR624     -0.0009
     78  CD2       42.8580   10.3520   25.5970 C.ar  624  TYR624     -0.0009
     79  CE1       41.5560    9.8210   27.9880 C.ar  624  TYR624      0.0417
     80  CE2       41.7330   11.0970   25.9590 C.ar  624  TYR624      0.0417
     81  CZ        41.0900   10.8320   27.1570 C.ar  624  TYR624      0.1957
     82  OH        39.9880   11.5760   27.5200 O.3   624  TYR624     -0.2866
     83  N         43.4560    7.2530   33.8810 N.3   636  ILE636     -0.1231
     84  CA        43.7010    7.8050   32.5470 C.3   636  ILE636      0.1693
     85  C         45.2030    7.5850   32.1720 C.2   636  ILE636      0.2595
     86  O         46.0900    7.8490   32.9870 O.2   636  ILE636     -0.2718
     87  CB        43.3290    9.3210   32.5790 C.3   636  ILE636      0.0266
     88  CG1       41.8030    9.5360   32.6480 C.3   636  ILE636      0.0019
     89  CG2       43.9690   10.1110   31.4250 C.3   636  ILE636      0.0020
     90  CD1       41.3470   10.8320   33.3970 C.3   636  ILE636      0.0001
     91  N         45.4760    7.1160   30.9480 N.am  637  GLU637     -0.1920
     92  CA        46.8410    6.9610   30.4170 C.3   637  GLU637      0.1949
     93  C         47.3630    8.3860   30.0870 C.2   637  GLU637      0.2659
     94  O         46.6340    9.1520   29.4440 O.2   637  GLU637     -0.2711
     95  CB        46.7760    6.1130   29.1290 C.2   637  GLU637      0.0111
     96  CG        48.0170    6.1060   28.2590 C.2   637  GLU637      0.0838
     97  CD        47.9220    5.3870   26.9170 C.2   637  GLU637      0.3877
     98  OE1       48.9910    4.9780   26.4070 O.co2 637  GLU637     -0.2406
     99  OE2       46.8060    5.2600   26.3540 O.co2 637  GLU637     -0.2406
    100  N         48.5900    8.7480   30.5410 N.am  638  ILE638     -0.1961
    101  CA        49.1730   10.0500   30.1960 C.3   638  ILE638      0.1727
    102  C         49.7770    9.9430   28.7850 C.2   638  ILE638      0.2616
    103  O         50.5990    9.0540   28.5290 O.2   638  ILE638     -0.2715
    104  CB        50.2450   10.5400   31.2150 C.3   638  ILE638      0.0290
    105  CG1       49.6060   10.9570   32.5540 C.3   638  ILE638      0.0022
    106  CG2       51.0700   11.6940   30.6330 C.3   638  ILE638      0.0023
    107  CD1       50.5360   11.0710   33.7350 C.3   638  ILE638      0.0001
    108  N         49.3790   10.8600   27.8790 N.am  639  VAL639     -0.1977
    109  CA        49.9560   10.9490   26.5440 C.3   639  VAL639      0.1596
    110  C         51.1950   11.8360   26.6760 C.2   639  VAL639      0.2287
    111  O         51.1050   12.9800   27.1210 O.2   639  VAL639     -0.2864
    112  CB        48.9630   11.4410   25.4710 C.3   639  VAL639      0.0276
    113  CG1       49.6810   11.7060   24.1520 C.3   639  VAL639      0.0022
    114  CG2       47.8330   10.4270   25.2710 C.3   639  VAL639      0.0022
    115  N         52.9000   16.1510   25.6580 N.3   642  ALA642     -0.1245
    116  CA        51.6460   16.8440   25.3200 C.3   642  ALA642      0.1562
    117  C         51.2780   18.0060   26.2030 C.2   642  ALA642      0.2260
    118  O         51.4660   17.9560   27.4190 O.2   642  ALA642     -0.2867
    119  CB        50.4920   15.8560   25.2720 C.3   642  ALA642      0.0290
    120  N         48.0770   21.3050   26.5490 N.3   644  THR644     -0.1218
    121  CA        46.7270   21.7270   26.2370 C.3   644  THR644      0.1862
    122  C         46.8220   22.9290   25.2800 C.2   644  THR644      0.2287
    123  O         47.8460   23.6240   25.2790 O.2   644  THR644     -0.2866
    124  CB        45.9670   21.9110   27.5540 C.3   644  THR644      0.1770
    125  OG1       44.7820   21.1290   27.5120 O.3   644  THR644     -0.2211
    126  CG2       45.6700   23.3430   27.9000 C.3   644  THR644      0.0375
    127  N         46.9960   26.3230   27.3840 N.3   647  LYS647     -0.1245
    128  CA        48.2880   26.6200   28.0370 C.3   647  LYS647      0.1561
    129  C         49.2590   27.2500   27.0440 C.2   647  LYS647      0.2260
    130  O         50.0170   28.1380   27.4320 O.2   647  LYS647     -0.2867
    131  CB        48.9270   25.3610   28.6610 C.3   647  LYS647      0.0271
    132  CG        48.3390   24.9260   29.9950 C.3   647  LYS647      0.0035
    133  CD        48.6040   23.4410   30.2390 C.3   647  LYS647      0.0206
    134  CE        47.5530   22.8080   31.1150 C.3   647  LYS647      0.1093
    135  NZ        47.6710   21.3280   31.1200 N.3   647  LYS647     -0.1314
    136  N         41.0470   24.0630   26.7240 N.3   707  ASP707     -0.1239
    137  CA        41.5910   23.3180   27.8550 C.3   707  ASP707      0.1674
    138  C         41.3660   21.7890   27.6900 C.2   707  ASP707      0.2266
    139  O         42.0460   20.9940   28.3530 O.2   707  ASP707     -0.2867
    140  CB        40.9200   23.8220   29.1500 C.3   707  ASP707      0.1410
    141  CG        41.8540   24.2490   30.2680 C.2   707  ASP707      0.3668
    142  OD1       43.0370   24.5690   29.9760 O.co2 707  ASP707     -0.2456
    143  OD2       41.3950   24.3010   31.4350 O.co2 707  ASP707     -0.2456
    144  N         44.1700   18.7690   23.2880 N.3   710  MET710     -0.1245
    145  CA        45.5820   18.6000   23.5200 C.3   710  MET710      0.1570
    146  C         46.3290   18.3930   22.2210 C.2   710  MET710      0.2261
    147  O         45.7400   17.9560   21.2350 O.2   710  MET710     -0.2867
    148  CB        45.8160   17.4150   24.4700 C.3   710  MET710      0.0387
    149  CG        45.5290   17.7180   25.9320 C.3   710  MET710      0.0595
    150  SD        46.6150   16.7430   26.9930 S.3   710  MET710     -0.1393
    151  CE        47.1460   17.9410   28.0980 C.3   710  MET710      0.0692
    152  N         44.6420   15.8220   19.9250 N.3   718  PHE718     -0.1241
    153  CA        43.6530   14.9010   20.5360 C.3   718  PHE718      0.1605
    154  C         42.7760   15.5770   21.5570 C.2   718  PHE718      0.2264
    155  O         43.2520   16.4900   22.2420 O.2   718  PHE718     -0.2867
    156  CB        44.3010   13.6490   21.1530 C.3   718  PHE718      0.0534
    157  CG        45.2660   13.8860   22.2870 C.ar  718  PHE718     -0.0203
    158  CD1       44.8790   13.6850   23.6050 C.ar  718  PHE718     -0.0042
    159  CD2       46.5930   14.2240   22.0350 C.ar  718  PHE718     -0.0042
    160  CE1       45.7970   13.8470   24.6560 C.ar  718  PHE718     -0.0003
    161  CE2       47.4980   14.4210   23.0890 C.ar  718  PHE718     -0.0003
    162  CZ        47.0950   14.2210   24.3890 C.ar  718  PHE718     -0.0000
    163  N         40.3410   15.4070   25.0850 N.3   720  ILE720     -0.1231
    164  CA        40.3930   14.8010   26.4180 C.3   720  ILE720      0.1692
    165  C         39.1340   15.1460   27.2070 C.2   720  ILE720      0.2592
    166  O         38.4020   16.0240   26.7990 O.2   720  ILE720     -0.2718
    167  CB        41.6910   15.1450   27.2090 C.3   720  ILE720      0.0266
    168  CG1       41.8410   16.6520   27.4770 C.3   720  ILE720      0.0019
    169  CG2       42.9350   14.5530   26.5540 C.3   720  ILE720      0.0020
    170  CD1       41.9970   16.9790   28.8860 C.3   720  ILE720      0.0001
    171  N         38.8880   14.4630   28.3430 N.am  721  ASP721     -0.1974
    172  CA        37.7740   14.7110   29.2580 C.3   721  ASP721      0.1709
    173  C         36.3930   14.7040   28.6250 C.2   721  ASP721      0.2293
    174  O         35.7040   15.7270   28.6350 O.2   721  ASP721     -0.2864
    175  CB        38.0190   15.9790   30.1010 C.3   721  ASP721      0.1436
    176  CG        37.5160   15.8940   31.5310 C.2   721  ASP721      0.3671
    177  OD1       36.8120   14.9130   31.8570 O.co2 721  ASP721     -0.2456
    178  OD2       37.8480   16.7980   32.3320 O.co2 721  ASP721     -0.2456
@<TRIPOS>BOND
     1   152   153    1
     2   153   156    1
     3   153   154    1
     4   156   157    1
     5   147   146    2
     6   154   155    2
     7   159   157   ar
     8   159   161   ar
     9   146   145    1
    10   157   158   ar
    11   161   162   ar
    12   144   145    1
    13   145   148    1
    14   158   160   ar
    15    71    72    1
    16   113   112    1
    17   162   160   ar
    18   148   149    1
    19   163   164    1
    20    72    75    1
    21    72    73    1
    22   114   112    1
    23   119   116    1
    24   123   122    2
    25   122   121    1
    26   116   115    1
    27   116   117    1
    28   112   109    1
    29    78    80   ar
    30    78    76   ar
    31   149   150    1
    32    80    81   ar
    33    75    76    1
    34    74    73    2
    35   117   118    2
    36   121   120    1
    37   121   124    1
    38    99    97   ar
    39    98    97   ar
    40    76    77   ar
    41   164   165    1
    42   164   167    1
    43   109   110    1
    44   109   108    1
    45   169   167    1
    46    66    65    2
    47   110   111    2
    48   136   137    1
    49   166   165    2
    50    97    96    1
    51   150   151    1
    52   129   130    2
    53   129   128    1
    54    81    82    1
    55    81    79   ar
    56   165   171   am
    57   167   168    1
    58   127   128    1
    59   168   170    1
    60   125   124    1
    61   124   126    1
    62    77    79   ar
    63   138   137    1
    64   138   139    2
    65    65    64    1
    66   137   140    1
    67   108   102   am
    68   128   131    1
    69    96    95    2
    70   171   172    1
    71    64    63    1
    72    64    67    1
    73   103   102    2
    74   173   174    2
    75   173   172    1
    76   131   132    1
    77   102   101    1
    78    95    92    1
    79   140   141    1
    80   172   175    1
    81    70    68   ar
    82    67    68    1
    83    94    93    2
    84    68    69   ar
    85   142   141   ar
    86   132   133    1
    87    93    92    1
    88    93   100   am
    89   175   176    1
    90   101   100    1
    91   101   104    1
    92   133   134    1
    93   141   143   ar
    94    92    91    1
    95   106   104    1
    96    91    85   am
    97   134   135    1
    98   104   105    1
    99    89    87    1
   100   176   177   ar
   101   176   178   ar
   102    58    57    2
   103    85    84    1
   104    85    86    2
   105    29    28   ar
   106    29    27   ar
   107    57    56    1
   108    84    87    1
   109    84    83    1
   110   105   107    1
   111    87    88    1
   112    88    90    1
   113    28    26   ar
   114    27    25   ar
   115    37    35    1
   116    56    59    1
   117    56    55    1
   118    60    59    1
   119    60    61    1
   120    60    62    1
   121    26    23   ar
   122    25    23   ar
   123    25    24   ar
   124    35    34    1
   125    54    52   ar
   126    52    51    1
   127    52    53   ar
   128    51    48    1
   129    23    21   ar
   130    34    36    1
   131    34    31    1
   132    24    22   ar
   133    30    31    1
   134    46    45    1
   135    49    48    1
   136    49    50    2
   137    48    47    1
   138    31    32    1
   139     7     8    1
   140     7     6    1
   141    33    32    2
   142    21    22   ar
   143    21    20    1
   144    44    45    1
   145    44    43    1
   146     6     5    1
   147    20    17    1
   148    42    43    1
   149    42    39    1
   150    17    18    1
   151    17    16    1
   152     5     2    1
   153    14    13    1
   154    14    15    1
   155    18    19    2
   156    13    10    1
   157    38    39    1
   158    39    40    1
   159    15     9    1
   160     2     3    1
   161     2     1    1
   162    41    40    2
   163     3     4    2
   164    10    11    1
   165    10     9    1
   166    11    12    2
