@<TRIPOS>MOLECULE
tmp/3oaxA05.pdb
 106 99 0 0 0
SMALL
GASTEIGER

@<TRIPOS>ATOM
      1  N         13.8240   42.0210    8.6110 N.3    43  TYR43      -0.1241
      2  CA        13.4790   43.3820    8.2320 C.3    43  TYR43       0.1605
      3  C         14.5880   44.3580    8.6320 C.2    43  TYR43       0.2264
      4  O         15.0490   45.1590    7.7860 O.2    43  TYR43      -0.2867
      5  CB        12.1530   43.7420    8.9040 C.3    43  TYR43       0.0534
      6  CG        11.6810   45.1590    8.7190 C.ar   43  TYR43      -0.0201
      7  CD1       11.3490   45.6540    7.4540 C.ar   43  TYR43      -0.0009
      8  CD2       11.5220   45.9960    9.8200 C.ar   43  TYR43      -0.0009
      9  CE1       10.8590   46.9580    7.2950 C.ar   43  TYR43       0.0417
     10  CE2       11.0400   47.2870    9.6780 C.ar   43  TYR43       0.0417
     11  CZ        10.7070   47.7650    8.4160 C.ar   43  TYR43       0.1957
     12  OH        10.2060   49.0440    8.2970 O.3    43  TYR43      -0.2866
     13  N         17.7280   43.9600    6.5540 N.3    46  LEU46      -0.1231
     14  CA        17.5520   44.6180    5.2470 C.3    46  LEU46       0.1693
     15  C         17.6260   46.1400    5.3520 C.2    46  LEU46       0.2591
     16  O         18.2120   46.7750    4.4530 O.2    46  LEU46      -0.2718
     17  CB        16.2220   44.1880    4.6230 C.3    46  LEU46       0.0284
     18  CG        16.0670   42.6850    4.3560 C.3    46  LEU46       0.0019
     19  CD1       14.6830   42.3890    3.8070 C.3    46  LEU46       0.0001
     20  CD2       17.1340   42.2350    3.3710 C.3    46  LEU46       0.0001
     21  N         17.0480   46.7320    6.4000 N.am   47  LEU47      -0.1980
     22  CA        17.1020   48.1990    6.5820 C.3    47  LEU47       0.1596
     23  C         18.5490   48.6590    6.7770 C.2    47  LEU47       0.2287
     24  O         18.9440   49.7040    6.2450 O.2    47  LEU47      -0.2864
     25  CB        16.2840   48.6270    7.8050 C.3    47  LEU47       0.0297
     26  CG        14.7850   48.8700    7.6630 C.3    47  LEU47       0.0022
     27  CD1       14.2390   49.4300    8.9760 C.3    47  LEU47       0.0001
     28  CD2       14.5350   49.8510    6.5440 C.3    47  LEU47       0.0001
     29  N         20.3750   48.4900    3.6060 N.3    50  LEU50      -0.1245
     30  CA        19.9390   49.5630    2.6900 C.3    50  LEU50       0.1561
     31  C         20.3830   50.8970    3.2350 C.2    50  LEU50       0.2260
     32  O         20.9370   51.7240    2.4980 O.2    50  LEU50      -0.2867
     33  CB        18.4140   49.5880    2.5630 C.3    50  LEU50       0.0270
     34  CG        17.7170   48.6420    1.5920 C.3    50  LEU50       0.0019
     35  CD1       16.2390   48.5790    1.9240 C.3    50  LEU50       0.0001
     36  CD2       17.9320   49.1210    0.1680 C.3    50  LEU50       0.0001
     37  N          7.5120   67.1210   -0.9020 N.3   256  ILE256     -0.1245
     38  CA         7.4170   65.6620   -0.9010 C.3   256  ILE256      0.1561
     39  C          8.0500   65.1290    0.3770 C.2   256  ILE256      0.2260
     40  O          7.4860   64.2160    1.0090 O.2   256  ILE256     -0.2867
     41  CB         8.1400   65.0430   -2.1350 C.3   256  ILE256      0.0252
     42  CG1        7.3240   65.2910   -3.4070 C.3   256  ILE256      0.0019
     43  CG2        8.3270   63.5430   -1.9440 C.3   256  ILE256      0.0019
     44  CD1        5.9910   64.5730   -3.4200 C.3   256  ILE256      0.0001
     45  N          5.5700   65.1540    3.0250 N.3   259  ILE259     -0.1231
     46  CA         4.5350   64.1520    2.8240 C.3   259  ILE259      0.1692
     47  C          5.0550   62.8280    3.3510 C.2   259  ILE259      0.2591
     48  O          4.3300   62.0870    4.0490 O.2   259  ILE259     -0.2718
     49  CB         4.2110   63.9790    1.3140 C.3   259  ILE259      0.0266
     50  CG1        3.7760   65.3200    0.6970 C.3   259  ILE259      0.0019
     51  CG2        3.1410   62.9120    1.1320 C.3   259  ILE259      0.0020
     52  CD1        2.4180   65.8310    1.1620 C.3   259  ILE259      0.0001
     53  N          6.3110   62.5360    3.0270 N.am  260  ALA260     -0.1980
     54  CA         6.9360   61.2970    3.4250 C.3   260  ALA260      0.1597
     55  C          7.1050   61.2580    4.9260 C.2   260  ALA260      0.2287
     56  O          6.7410   60.2470    5.5630 O.2   260  ALA260     -0.2864
     57  CB         8.2770   61.1450    2.7190 C.3   260  ALA260      0.0319
     58  N          3.7840   60.4990    6.4450 N.3   263  ILE263     -0.1245
     59  CA         3.3940   59.1110    6.1690 C.3   263  ILE263      0.1561
     60  C          4.1690   58.1410    7.0630 C.2   263  ILE263      0.2260
     61  O          3.6600   57.0690    7.4180 O.2   263  ILE263     -0.2867
     62  CB         3.7040   58.7350    4.7130 C.3   263  ILE263      0.0252
     63  CG1        2.8680   59.5710    3.7560 C.3   263  ILE263      0.0019
     64  CG2        3.4460   57.2590    4.4880 C.3   263  ILE263      0.0019
     65  CD1        3.1500   59.2470    2.3000 C.3   263  ILE263      0.0001
     66  N         11.8520   53.2590    8.7250 N.3   297  THR297     -0.1218
     67  CA        12.2600   53.4500    7.3260 C.3   297  THR297      0.1862
     68  C         12.7370   54.8810    7.1550 C.2   297  THR297      0.2287
     69  O         13.3400   55.2290    6.1120 O.2   297  THR297     -0.2866
     70  CB        11.1050   53.2000    6.3320 C.3   297  THR297      0.1770
     71  OG1        9.9810   54.0220    6.6820 O.3   297  THR297     -0.2211
     72  CG2       10.7180   51.7310    6.3190 C.3   297  THR297      0.0375
     73  N         16.1130   55.7140    5.6580 N.3   300  VAL300     -0.1231
     74  CA        16.5980   55.6220    4.2750 C.3   300  VAL300      0.1692
     75  C         15.7640   56.3650    3.2310 C.2   300  VAL300      0.2592
     76  O         16.2870   56.6050    2.1340 O.2   300  VAL300     -0.2718
     77  CB        16.7620   54.1300    3.8110 C.3   300  VAL300      0.0266
     78  CG1       17.0070   53.2280    5.0060 C.3   300  VAL300      0.0020
     79  CG2       15.5470   53.6690    3.0200 C.3   300  VAL300      0.0020
     80  N         14.5320   56.7670    3.5200 N.am  301  TYR301     -0.1976
     81  CA        13.7240   57.4070    2.4670 C.3   301  TYR301      0.1639
     82  C         14.2000   58.7810    2.0460 C.2   301  TYR301      0.2290
     83  O         14.1120   59.0840    0.8510 O.2   301  TYR301     -0.2864
     84  CB        12.2270   57.4450    2.8470 C.3   301  TYR301      0.0560
     85  CG        11.8180   58.5160    3.8240 C.ar  301  TYR301     -0.0198
     86  CD1       11.6630   59.8450    3.4150 C.ar  301  TYR301     -0.0009
     87  CD2       11.6130   58.2110    5.1690 C.ar  301  TYR301     -0.0009
     88  CE1       11.3170   60.8480    4.3360 C.ar  301  TYR301      0.0417
     89  CE2       11.2680   59.2010    6.0880 C.ar  301  TYR301      0.0417
     90  CZ        11.1250   60.5120    5.6690 C.ar  301  TYR301      0.1957
     91  OH        10.8050   61.4780    6.5910 O.3   301  TYR301     -0.2866
     92  N         16.6330   58.8350   -0.8120 N.3   304  VAL304     -0.1231
     93  CA        16.0120   58.3270   -2.0270 C.3   304  VAL304      0.1692
     94  C         15.2650   59.4610   -2.7190 C.2   304  VAL304      0.2591
     95  O         15.3010   59.5620   -3.9590 O.2   304  VAL304     -0.2718
     96  CB        15.0350   57.1460   -1.7170 C.3   304  VAL304      0.0266
     97  CG1       14.5560   56.4960   -3.0110 C.3   304  VAL304      0.0020
     98  CG2       15.7340   56.1100   -0.8490 C.3   304  VAL304      0.0020
     99  N         14.6030   60.3160   -1.9440 N.am  305  ILE305     -0.1980
    100  CA        13.8590   61.4360   -2.5170 C.3   305  ILE305      0.1595
    101  C         14.8390   62.4210   -3.1120 C.2   305  ILE305      0.2287
    102  O         14.5880   63.0010   -4.1890 O.2   305  ILE305     -0.2864
    103  CB        13.0150   62.1610   -1.4400 C.3   305  ILE305      0.0276
    104  CG1       12.0160   61.1820   -0.8160 C.3   305  ILE305      0.0022
    105  CG2       12.2780   63.3480   -2.0630 C.3   305  ILE305      0.0022
    106  CD1       11.1320   61.7990    0.2330 C.3   305  ILE305      0.0001
@<TRIPOS>BOND
     1   102   101    2
     2    95    94    2
     3    44    42    1
     4    42    41    1
     5   101   100    1
     6    97    96    1
     7    94    93    1
     8    94    99   am
     9   100    99    1
    10   100   103    1
    11    41    43    1
    12    41    38    1
    13   105   103    1
    14    93    96    1
    15    93    92    1
    16    96    98    1
    17   103   104    1
    18    37    38    1
    19    38    39    1
    20   104   106    1
    21    36    34    1
    22    39    40    2
    23    50    52    1
    24    50    49    1
    25    83    82    2
    26    51    49    1
    27    49    46    1
    28    34    35    1
    29    34    33    1
    30    82    81    1
    31    76    75    2
    32    65    63    1
    33    81    84    1
    34    81    80    1
    35    32    31    2
    36    33    30    1
    37    30    31    1
    38    30    29    1
    39    57    54    1
    40    46    45    1
    41    46    47    1
    42    84    85    1
    43    79    77    1
    44    53    47   am
    45    53    54    1
    46    75    80   am
    47    75    74    1
    48    47    48    2
    49    20    18    1
    50    86    85   ar
    51    86    88   ar
    52    54    55    1
    53    63    62    1
    54    19    18    1
    55    77    74    1
    56    77    78    1
    57    85    87   ar
    58    74    73    1
    59    88    90   ar
    60    18    17    1
    61    16    15    2
    62    64    62    1
    63    17    14    1
    64    62    59    1
    65    55    56    2
    66    87    89   ar
    67    14    15    1
    68    14    13    1
    69    15    21   am
    70    90    89   ar
    71    90    91    1
    72    69    68    2
    73    59    58    1
    74    59    60    1
    75    24    23    2
    76    72    70    1
    77    70    71    1
    78    70    67    1
    79    21    22    1
    80    28    26    1
    81    22    23    1
    82    22    25    1
    83    60    61    2
    84    68    67    1
    85     9     7   ar
    86     9    11   ar
    87    67    66    1
    88     7     6   ar
    89    26    25    1
    90    26    27    1
    91     4     3    2
    92     2     1    1
    93     2     3    1
    94     2     5    1
    95    12    11    1
    96    11    10   ar
    97     6     5    1
    98     6     8   ar
    99    10     8   ar
