@<TRIPOS>MOLECULE
tmp/3oazA00.pdb
 86 83 0 0 0
SMALL
GASTEIGER

@<TRIPOS>ATOM
      1  N         46.0490  -27.9450   33.9630 N.3    31  ALA31      -0.1231
      2  CA        47.0530  -28.0700   35.0130 C.3    31  ALA31       0.1694
      3  C         47.4240  -26.7500   35.7250 C.2    31  ALA31       0.2592
      4  O         48.0790  -26.7820   36.7700 O.2    31  ALA31      -0.2718
      5  CB        48.3040  -28.6770   34.4240 C.3    31  ALA31       0.0304
      6  N         47.0480  -25.6110   35.1450 N.am   32  HIS32      -0.1962
      7  CA        47.5860  -24.3220   35.5740 C.3    32  HIS32       0.1787
      8  C         46.5450  -23.3930   36.1760 C.2    32  HIS32       0.2620
      9  O         45.3980  -23.2940   35.6700 O.2    32  HIS32      -0.2715
     10  CB        48.2350  -23.5850   34.3800 C.3    32  HIS32       0.0785
     11  CG        49.4030  -24.3090   33.7920 C.ar   32  HIS32       0.0821
     12  ND1       50.6820  -24.1740   34.2820 N.ar   32  HIS32      -0.2267
     13  CD2       49.4800  -25.1990   32.7730 C.ar   32  HIS32       0.1154
     14  CE1       51.5000  -24.9470   33.5910 C.ar   32  HIS32       0.1986
     15  NE2       50.7950  -25.5810   32.6710 N.ar   32  HIS32      -0.2212
     16  N         46.9510  -22.6550   37.2090 N.am   33  THR33      -0.1951
     17  CA        46.2000  -21.4650   37.6390 C.3    33  THR33       0.1897
     18  C         46.4300  -20.4350   36.5280 C.2    33  THR33       0.2313
     19  O         47.5720  -20.2740   36.0720 O.2    33  THR33      -0.2863
     20  CB        46.7210  -20.9700   39.0130 C.3    33  THR33       0.1794
     21  OG1       46.3840  -21.9570   40.0070 O.3    33  THR33      -0.2208
     22  CG2       46.1280  -19.5900   39.4220 C.3    33  THR33       0.0378
     23  N         41.8720  -20.7540   39.6910 N.3    52  SER52      -0.1202
     24  CA        42.6050  -21.9800   40.0340 C.3    52  SER52       0.2020
     25  C         42.1390  -23.1220   39.1510 C.2    52  SER52       0.2619
     26  O         41.1380  -22.9890   38.4390 O.2    52  SER52      -0.2717
     27  CB        42.3820  -22.3460   41.5080 C.3    52  SER52       0.2103
     28  OG        41.0890  -22.9180   41.6830 O.3    52  SER52      -0.2182
     29  N         42.8340  -24.2560   39.2140 N.am   53  THR53      -0.1952
     30  CA        42.3730  -25.4530   38.5010 C.3    53  THR53       0.1897
     31  C         40.9570  -25.8320   38.9790 C.2    53  THR53       0.2313
     32  O         40.6000  -25.6110   40.1580 O.2    53  THR53      -0.2863
     33  CB        43.3350  -26.6600   38.6920 C.3    53  THR53       0.1794
     34  OG1       43.4160  -26.9820   40.0860 O.3    53  THR53      -0.2208
     35  CG2       44.7370  -26.3380   38.1700 C.3    53  THR53       0.0378
     36  N         50.4730  -19.2670   35.4530 N.3    99  LYS99      -0.1231
     37  CA        51.2960  -19.5330   36.6060 C.3    99  LYS99       0.1693
     38  C         51.8910  -20.9210   36.3930 C.2    99  LYS99       0.2592
     39  O         51.1750  -21.8870   36.1300 O.2    99  LYS99      -0.2718
     40  CB        50.4240  -19.4410   37.8710 C.3    99  LYS99       0.0285
     41  CG        51.1420  -19.4140   39.1980 C.3    99  LYS99       0.0035
     42  CD        50.0930  -19.2110   40.3040 C.3    99  LYS99       0.0206
     43  CE        50.7010  -19.2760   41.6750 C.3    99  LYS99       0.1093
     44  NZ        51.6640  -18.1470   41.8640 N.3    99  LYS99      -0.1314
     45  N         53.2160  -21.0080   36.4520 N.am  100  GLY100     -0.1957
     46  CA        53.8890  -22.2450   36.1270 C.3   100  GLY100      0.1869
     47  C         55.3880  -22.1100   36.2550 C.2   100  GLY100      0.2309
     48  O         55.9210  -21.0220   36.4610 O.2   100  GLY100     -0.2863
     49  N         56.0600  -28.1440   38.2290 N.3   104  LEU104     -0.1231
     50  CA        54.9710  -27.4510   38.9370 C.3   104  LEU104      0.1693
     51  C         55.0680  -27.5930   40.4530 C.2   104  LEU104      0.2593
     52  O         55.4280  -28.6620   40.9570 O.2   104  LEU104     -0.2718
     53  CB        53.5890  -27.9080   38.4430 C.3   104  LEU104      0.0284
     54  CG        53.2420  -27.5730   36.9820 C.3   104  LEU104      0.0019
     55  CD1       51.8140  -27.9730   36.6340 C.3   104  LEU104      0.0001
     56  CD2       53.4470  -26.0930   36.6990 C.3   104  LEU104      0.0001
     57  N         54.7710  -26.5010   41.1630 N.am  105  SER105     -0.1938
     58  CA        54.7690  -26.4660   42.6310 C.3   105  SER105      0.2055
     59  C         53.5110  -25.7600   43.1360 C.2   105  SER105      0.2643
     60  O         52.6900  -25.3050   42.3460 O.2   105  SER105     -0.2714
     61  CB        56.0110  -25.7390   43.1670 C.3   105  SER105      0.2130
     62  OG        55.8540  -24.3190   43.0840 O.3   105  SER105     -0.2179
     63  N         53.3820  -25.6710   44.4600 N.am  106  ASP106     -0.1957
     64  CA        52.2700  -24.9660   45.1060 C.3   106  ASP106      0.1840
     65  C         52.2620  -23.4490   44.8840 C.2   106  ASP106      0.2622
     66  O         51.2520  -22.7950   45.1410 O.2   106  ASP106     -0.2715
     67  CB        52.2780  -25.2430   46.6220 C.3   106  ASP106      0.1450
     68  CG        52.0240  -26.7090   46.9660 C.2   106  ASP106      0.3671
     69  OD1       51.5800  -27.4820   46.0870 O.co2 106  ASP106     -0.2456
     70  OD2       52.2800  -27.0900   48.1310 O.co2 106  ASP106     -0.2456
     71  N         53.3710  -22.8790   44.4150 N.am  107  ASN107     -0.1958
     72  CA        53.4690  -21.4270   44.1910 C.3   107  ASN107      0.1819
     73  C         54.5810  -21.0770   43.1750 C.2   107  ASN107      0.2621
     74  O         55.7600  -20.9470   43.5330 O.2   107  ASN107     -0.2715
     75  CB        53.6860  -20.6700   45.5270 C.3   107  ASN107      0.1195
     76  CG        53.5090  -19.1740   45.3700 C.2   107  ASN107      0.2630
     77  OD1       52.7780  -18.7280   44.4870 O.2   107  ASN107     -0.2716
     78  ND2       54.1620  -18.3930   46.2270 N.am  107  ASN107     -0.0877
     79  N         54.1950  -20.9790   41.9090 N.am  108  ASP108     -0.1971
     80  CA        55.1160  -20.6580   40.8270 C.3   108  ASP108      0.1709
     81  C         54.9200  -19.2210   40.3020 C.2   108  ASP108      0.2293
     82  O         53.8930  -18.5800   40.5750 O.2   108  ASP108     -0.2864
     83  CB        54.9370  -21.6670   39.6710 C.3   108  ASP108      0.1436
     84  CG        55.2870  -23.0790   40.0760 C.2   108  ASP108      0.3671
     85  OD1       56.3160  -23.2530   40.7750 O.co2 108  ASP108     -0.2456
     86  OD2       54.5490  -24.0160   39.6880 O.co2 108  ASP108     -0.2456
@<TRIPOS>BOND
     1    15    13   ar
     2    15    14   ar
     3    13    11   ar
     4    14    12   ar
     5    11    12   ar
     6    11    10    1
     7     1     2    1
     8    10     7    1
     9     5     2    1
    10     2     3    1
    11     6     7    1
    12     6     3   am
    13    36    37    1
    14     7     8    1
    15     9     8    2
    16     3     4    2
    17    19    18    2
    18    46    47    1
    19    46    45    1
    20    39    38    2
    21     8    16   am
    22    47    48    2
    23    38    45   am
    24    38    37    1
    25    18    17    1
    26    37    40    1
    27    55    54    1
    28    56    54    1
    29    54    53    1
    30    16    17    1
    31    17    20    1
    32    40    41    1
    33    35    33    1
    34    49    50    1
    35    26    25    2
    36    53    50    1
    37    30    33    1
    38    30    31    1
    39    30    29    1
    40    33    34    1
    41    50    51    1
    42    31    32    2
    43    20    22    1
    44    20    21    1
    45    25    29   am
    46    25    24    1
    47    41    42    1
    48    83    84    1
    49    83    80    1
    50    86    84   ar
    51    23    24    1
    52    24    27    1
    53    84    85   ar
    54    81    82    2
    55    81    80    1
    56    42    43    1
    57    51    52    2
    58    51    57   am
    59    80    79    1
    60    57    58    1
    61    27    28    1
    62    43    44    1
    63    79    73   am
    64    60    59    2
    65    58    59    1
    66    58    61    1
    67    62    61    1
    68    59    63   am
    69    73    74    2
    70    73    72    1
    71    72    71    1
    72    72    75    1
    73    71    65   am
    74    63    64    1
    75    77    76    2
    76    65    64    1
    77    65    66    2
    78    64    67    1
    79    76    75    1
    80    76    78   am
    81    69    68   ar
    82    67    68    1
    83    68    70   ar
