@<TRIPOS>MOLECULE
tmp/3ob0D00.pdb
 101 98 0 0 0
SMALL
GASTEIGER

@<TRIPOS>ATOM
      1  N         23.2570  -28.9760  -41.7510 N.3    31  ALA31      -0.1231
      2  CA        22.8670  -30.3270  -41.3750 C.3    31  ALA31       0.1694
      3  C         22.4310  -30.5190  -39.9260 C.2    31  ALA31       0.2592
      4  O         22.0650  -31.6460  -39.5440 O.2    31  ALA31      -0.2718
      5  CB        23.9810  -31.2990  -41.7200 C.3    31  ALA31       0.0304
      6  N         22.4620  -29.4320  -39.1100 N.am   32  HIS32      -0.1962
      7  CA        22.0900  -29.5120  -37.6950 C.3    32  HIS32       0.1787
      8  C         20.6980  -29.0310  -37.4000 C.2    32  HIS32       0.2620
      9  O         20.2410  -28.0430  -37.9790 O.2    32  HIS32      -0.2715
     10  CB        23.0730  -28.7410  -36.8400 C.3    32  HIS32       0.0785
     11  CG        24.4480  -29.3070  -36.8420 C.ar   32  HIS32       0.0821
     12  ND1       24.9070  -30.0750  -35.7880 N.ar   32  HIS32      -0.2267
     13  CD2       25.4380  -29.1770  -37.7580 C.ar   32  HIS32       0.1154
     14  CE1       26.1570  -30.3960  -36.0980 C.ar   32  HIS32       0.1986
     15  NE2       26.5240  -29.8770  -37.2730 N.ar   32  HIS32      -0.2212
     16  N         20.0280  -29.7110  -36.4620 N.am   33  THR33      -0.1951
     17  CA        18.7080  -29.2880  -36.0160 C.3    33  THR33       0.1897
     18  C         19.0020  -28.2070  -34.9710 C.2    33  THR33       0.2313
     19  O         19.6020  -28.5020  -33.9350 O.2    33  THR33      -0.2863
     20  CB        17.8880  -30.4560  -35.4580 C.3    33  THR33       0.1794
     21  OG1       17.9470  -31.5510  -36.3680 O.3    33  THR33      -0.2208
     22  CG2       16.4360  -30.0790  -35.2280 C.3    33  THR33       0.0378
     23  N         14.1150  -27.8910  -37.7530 N.3    52  SER52      -0.1202
     24  CA        14.6980  -29.0430  -38.4240 C.3    52  SER52       0.2020
     25  C         15.6130  -28.6070  -39.5300 C.2    52  SER52       0.2619
     26  O         15.6330  -27.4210  -39.9010 O.2    52  SER52      -0.2717
     27  CB        13.6190  -29.9810  -38.9570 C.3    52  SER52       0.2103
     28  OG        13.4820  -29.8500  -40.3610 O.3    52  SER52      -0.2182
     29  N         16.3630  -29.5810  -40.0620 N.am   53  THR53      -0.1952
     30  CA        17.3040  -29.4060  -41.1550 C.3    53  THR53       0.1897
     31  C         16.5870  -28.8390  -42.3860 C.2    53  THR53       0.2313
     32  O         15.5450  -29.3610  -42.7940 O.2    53  THR53      -0.2863
     33  CB        18.1710  -30.6520  -41.2670 C.3    53  THR53       0.1794
     34  OG1       19.5210  -30.2370  -41.4090 O.3    53  THR53      -0.2208
     35  CG2       17.7090  -31.6510  -42.3450 C.3    53  THR53       0.0378
     36  N         12.4050  -27.8320  -42.4500 N.3    56  THR56      -0.1203
     37  CA        11.3310  -28.7850  -42.7310 C.3    56  THR56       0.1994
     38  C         10.2620  -28.8080  -41.6480 C.2    56  THR56       0.2617
     39  O          9.0790  -28.7020  -41.9650 O.2    56  THR56      -0.2717
     40  CB        11.8640  -30.1930  -43.0490 C.3    56  THR56       0.1784
     41  OG1       13.1410  -30.1510  -43.7060 O.3    56  THR56      -0.2211
     42  CG2       10.8630  -31.0400  -43.8230 C.3    56  THR56       0.0376
     43  N         10.6790  -28.9380  -40.3810 N.am   57  TYR57      -0.1975
     44  CA         9.7970  -28.9950  -39.2210 C.3    57  TYR57       0.1639
     45  C         10.1890  -27.9230  -38.1810 C.2    57  TYR57       0.2290
     46  O         11.3750  -27.7470  -37.8960 O.2    57  TYR57      -0.2864
     47  CB         9.8560  -30.3980  -38.5860 C.3    57  TYR57       0.0560
     48  CG         9.7330  -31.5560  -39.5600 C.ar   57  TYR57      -0.0198
     49  CD1       10.7990  -32.4270  -39.7780 C.ar   57  TYR57      -0.0009
     50  CD2        8.5350  -31.8110  -40.2290 C.ar   57  TYR57      -0.0009
     51  CE1       10.6780  -33.5230  -40.6330 C.ar   57  TYR57       0.0417
     52  CE2        8.4060  -32.9010  -41.0960 C.ar   57  TYR57       0.0417
     53  CZ         9.4830  -33.7540  -41.2950 C.ar   57  TYR57       0.1957
     54  OH         9.3770  -34.8240  -42.1600 O.3    57  TYR57      -0.2866
     55  N         21.7220  -30.0670  -31.9800 N.3    99  LYS99      -0.1245
     56  CA        21.6060  -31.5120  -31.7360 C.3    99  LYS99       0.1561
     57  C         22.7680  -32.0930  -32.5070 C.2    99  LYS99       0.2260
     58  O         22.7800  -32.0060  -33.7360 O.2    99  LYS99      -0.2867
     59  CB        20.2770  -32.0940  -32.2720 C.3    99  LYS99       0.0271
     60  CG        19.0670  -31.8720  -31.3740 C.3    99  LYS99       0.0035
     61  CD        17.8240  -32.5800  -31.8970 C.3    99  LYS99       0.0206
     62  CE        17.7610  -34.0540  -31.5300 C.3    99  LYS99       0.1093
     63  NZ        17.6060  -34.2700  -30.0650 N.3    99  LYS99      -0.1314
     64  N         26.3680  -37.7180  -36.9690 N.3   104  LEU104     -0.1231
     65  CA        24.9980  -37.2210  -36.7900 C.3   104  LEU104      0.1693
     66  C         24.0050  -38.3690  -36.8720 C.2   104  LEU104      0.2593
     67  O         24.0940  -39.1970  -37.7880 O.2   104  LEU104     -0.2718
     68  CB        24.6410  -36.1400  -37.8350 C.3   104  LEU104      0.0284
     69  CG        25.3410  -34.7630  -37.7880 C.3   104  LEU104      0.0019
     70  CD1       24.6950  -33.7910  -38.7400 C.3   104  LEU104      0.0001
     71  CD2       25.4870  -34.2250  -36.3550 C.3   104  LEU104      0.0001
     72  N         23.1070  -38.4640  -35.8890 N.am  105  SER105     -0.1938
     73  CA        22.0900  -39.5090  -35.8390 C.3   105  SER105      0.2055
     74  C         20.7040  -38.8720  -35.9240 C.2   105  SER105      0.2643
     75  O         20.6040  -37.6490  -36.0690 O.2   105  SER105     -0.2714
     76  CB        22.2560  -40.3830  -34.5940 C.3   105  SER105      0.2130
     77  OG        21.4780  -39.9290  -33.4990 O.3   105  SER105     -0.2179
     78  N         19.6420  -39.7010  -35.8460 N.am  106  ASP106     -0.1957
     79  CA        18.2520  -39.2410  -35.8960 C.3   106  ASP106      0.1840
     80  C         17.7760  -38.6040  -34.5830 C.2   106  ASP106      0.2622
     81  O         16.6790  -38.0380  -34.5600 O.2   106  ASP106     -0.2715
     82  CB        17.3080  -40.3690  -36.3440 C.3   106  ASP106      0.1450
     83  CG        17.3240  -40.6490  -37.8310 C.2   106  ASP106      0.3671
     84  OD1       17.4350  -39.6710  -38.6240 O.co2 106  ASP106     -0.2456
     85  OD2       17.2110  -41.8440  -38.2110 O.co2 106  ASP106     -0.2456
     86  N         18.5940  -38.6960  -33.5010 N.am  107  ASN107     -0.1958
     87  CA        18.3010  -38.1210  -32.1810 C.3   107  ASN107      0.1819
     88  C         19.5690  -37.9590  -31.3370 C.2   107  ASN107      0.2621
     89  O         19.9990  -38.8870  -30.6410 O.2   107  ASN107     -0.2715
     90  CB        17.2060  -38.9100  -31.4320 C.3   107  ASN107      0.1195
     91  CG        16.6180  -38.2060  -30.2430 C.2   107  ASN107      0.2630
     92  OD1       16.7200  -36.9770  -30.0880 O.2   107  ASN107     -0.2716
     93  ND2       15.9620  -38.9780  -29.3890 N.am  107  ASN107     -0.0877
     94  N         20.1710  -36.7620  -31.4160 N.am  108  ASP108     -0.1971
     95  CA        21.4080  -36.4400  -30.7030 C.3   108  ASP108      0.1709
     96  C         21.1920  -35.4000  -29.6110 C.2   108  ASP108      0.2293
     97  O         20.3350  -34.5260  -29.7850 O.2   108  ASP108     -0.2864
     98  CB        22.4610  -35.9090  -31.6920 C.3   108  ASP108      0.1436
     99  CG        23.1070  -36.9520  -32.5760 C.2   108  ASP108      0.3671
    100  OD1       23.7270  -36.5680  -33.5650 O.co2 108  ASP108     -0.2456
    101  OD2       23.0400  -38.1480  -32.2370 O.co2 108  ASP108     -0.2456
@<TRIPOS>BOND
     1    42    40    1
     2    41    40    1
     3    40    37    1
     4    32    31    2
     5    37    36    1
     6    37    38    1
     7    31    30    1
     8    35    33    1
     9    54    53    1
    10    39    38    2
    11     1     2    1
    12     5     2    1
    13    38    43   am
    14    34    33    1
    15     2     3    1
    16    53    52   ar
    17    53    51   ar
    18    33    30    1
    19    30    29    1
    20    52    50   ar
    21    51    49   ar
    22    43    44    1
    23    28    27    1
    24    50    48   ar
    25    29    25   am
    26     3     4    2
    27     3     6   am
    28    26    25    2
    29    49    48   ar
    30    48    47    1
    31    25    24    1
    32    44    47    1
    33    44    45    1
    34     6     7    1
    35    27    24    1
    36    70    69    1
    37    84    83   ar
    38    24    23    1
    39    85    83   ar
    40    45    46    2
    41     9     8    2
    42    68    69    1
    43    68    65    1
    44    83    82    1
    45    69    71    1
    46    67    66    2
    47    13    15   ar
    48    13    11   ar
    49     7     8    1
    50     7    10    1
    51     8    16   am
    52    15    14   ar
    53    64    65    1
    54    66    65    1
    55    66    72   am
    56    11    10    1
    57    11    12   ar
    58    16    17    1
    59    21    20    1
    60    82    79    1
    61    14    12   ar
    62    75    74    2
    63    17    20    1
    64    17    18    1
    65    74    78   am
    66    74    73    1
    67    79    78    1
    68    79    80    1
    69    72    73    1
    70    73    76    1
    71    20    22    1
    72    18    19    2
    73    76    77    1
    74    80    81    2
    75    80    86   am
    76    58    57    2
    77   100    99   ar
    78    86    87    1
    79    99   101   ar
    80    99    98    1
    81    57    56    1
    82    59    56    1
    83    59    60    1
    84    87    90    1
    85    87    88    1
    86    55    56    1
    87    61    62    1
    88    61    60    1
    89    98    95    1
    90    62    63    1
    91    90    91    1
    92    94    88   am
    93    94    95    1
    94    88    89    2
    95    95    96    1
    96    91    92    2
    97    91    93   am
    98    97    96    2
