@<TRIPOS>MOLECULE
tmp/3ob1B00.pdb
 196 189 0 0 0
SMALL
GASTEIGER

@<TRIPOS>ATOM
      1  N        -68.7960   25.6340   -8.5640 N.3    25  ASN25      -0.1225
      2  CA       -67.5830   26.4000   -8.6760 C.3    25  ASN25       0.1785
      3  C        -66.5290   26.3160   -7.5120 C.2    25  ASN25       0.2598
      4  O        -65.3650   26.7470   -7.6560 O.2    25  ASN25      -0.2718
      5  CB       -68.0670   27.8300   -8.7950 C.3    25  ASN25       0.1169
      6  CG       -66.9840   28.7700   -9.1850 C.2    25  ASN25       0.2627
      7  OD1      -66.0010   28.3750   -9.8320 O.2    25  ASN25      -0.2716
      8  ND2      -67.1450   30.0500   -8.8020 N.am   25  ASN25      -0.0877
      9  N        -66.9050   25.7850   -6.3650 N.am   26  SER26      -0.1938
     10  CA       -65.9880   25.7970   -5.2380 C.3    26  SER26       0.2040
     11  C        -64.9170   24.7110   -5.2330 C.2    26  SER26       0.2485
     12  O        -65.1280   23.5790   -5.7050 O.2    26  SER26      -0.2729
     13  CB       -66.7450   25.7820   -3.9140 C.3    26  SER26       0.2129
     14  OG       -67.7310   24.7890   -3.9080 O.3    26  SER26      -0.2179
     15  N        -63.7690   25.0530   -4.6640 N.am   27  PRO27      -0.2726
     16  CA       -62.7330   24.0680   -4.5540 C.3    27  PRO27       0.1402
     17  C        -63.2490   22.8180   -3.7890 C.2    27  PRO27       0.2269
     18  O        -63.8630   22.9470   -2.7110 O.2    27  PRO27      -0.2865
     19  CB       -61.6030   24.8190   -3.8210 C.3    27  PRO27       0.0296
     20  CG       -61.8200   26.2540   -4.1800 C.3    27  PRO27       0.0237
     21  CD       -63.3220   26.3950   -4.2350 C.3    27  PRO27       0.0939
     22  N        -62.4180   22.2690   -7.7570 N.3    29  TYR29      -0.1241
     23  CA       -63.1520   22.5470   -9.0020 C.3    29  TYR29       0.1605
     24  C        -62.2820   22.1340  -10.1610 C.2    29  TYR29       0.2264
     25  O        -61.2620   22.7550  -10.4410 O.2    29  TYR29      -0.2867
     26  CB       -63.4250   24.0400   -9.0580 C.3    29  TYR29       0.0534
     27  CG       -64.2730   24.5580  -10.1830 C.ar   29  TYR29      -0.0201
     28  CD1      -65.3730   23.8350  -10.6710 C.ar   29  TYR29      -0.0009
     29  CD2      -64.0140   25.8220  -10.7110 C.ar   29  TYR29      -0.0009
     30  CE1      -66.1880   24.3730  -11.6840 C.ar   29  TYR29       0.0417
     31  CE2      -64.8120   26.3580  -11.7110 C.ar   29  TYR29       0.0417
     32  CZ       -65.8930   25.6430  -12.1720 C.ar   29  TYR29       0.1957
     33  OH       -66.6580   26.2150  -13.1350 O.3    29  TYR29      -0.2866
     34  N        -60.8670   24.5250  -12.7390 N.3    32  ASP32      -0.1239
     35  CA       -59.6470   25.2420  -12.3420 C.3    32  ASP32       0.1674
     36  C        -58.4250   24.2840  -12.3510 C.2    32  ASP32       0.2266
     37  O        -57.3440   24.6600  -12.7820 O.2    32  ASP32      -0.2867
     38  CB       -59.7260   25.8240  -10.8970 C.3    32  ASP32       0.1410
     39  CG       -60.5930   27.0850  -10.7760 C.2    32  ASP32       0.3668
     40  OD1      -60.8300   27.7510  -11.8070 O.co2  32  ASP32      -0.2456
     41  OD2      -61.0250   27.4050   -9.6300 O.co2  32  ASP32      -0.2456
     42  N        -65.8290   20.8120    0.9540 N.3   220  TYR220     -0.1227
     43  CA       -66.5490   21.8740    1.6810 C.3   220  TYR220      0.1736
     44  C        -68.0860   21.8510    1.4180 C.2   220  TYR220      0.2595
     45  O        -68.8630   21.8210    2.3650 O.2   220  TYR220     -0.2718
     46  CB       -65.9300   23.2260    1.2730 C.3   220  TYR220      0.0548
     47  CG       -66.5140   24.4280    1.9640 C.ar  220  TYR220     -0.0200
     48  CD1      -65.8730   24.9860    3.0180 C.ar  220  TYR220     -0.0009
     49  CD2      -67.7210   24.9740    1.5560 C.ar  220  TYR220     -0.0009
     50  CE1      -66.3550   26.0780    3.6480 C.ar  220  TYR220      0.0417
     51  CE2      -68.2770   26.0940    2.1870 C.ar  220  TYR220      0.0417
     52  CZ       -67.5640   26.6380    3.2350 C.ar  220  TYR220      0.1957
     53  OH       -68.0180   27.7320    3.9160 O.3   220  TYR220     -0.2866
     54  N        -68.5170   21.8780    0.1460 N.am  221  ASP221     -0.1974
     55  CA       -69.9750   21.8540   -0.1780 C.3   221  ASP221      0.1709
     56  C        -70.6310   20.5270    0.2470 C.2   221  ASP221      0.2293
     57  O        -71.7890   20.4930    0.6080 O.2   221  ASP221     -0.2864
     58  CB       -70.2380   22.0290   -1.6900 C.3   221  ASP221      0.1436
     59  CG       -70.0350   23.4670   -2.1850 C.2   221  ASP221      0.3671
     60  OD1      -69.8170   24.3900   -1.3510 O.co2 221  ASP221     -0.2456
     61  OD2      -70.0910   23.6730   -3.4390 O.co2 221  ASP221     -0.2456
     62  N        -62.9250   17.1030    8.5610 N.3   240  ARG240     -0.1245
     63  CA       -62.3220   16.4740    7.3750 C.3   240  ARG240      0.1563
     64  C        -60.9990   17.1860    7.0460 C.2   240  ARG240      0.2260
     65  O        -60.6840   18.2290    7.6720 O.2   240  ARG240     -0.2867
     66  CB       -63.2780   16.6700    6.1910 C.3   240  ARG240      0.0307
     67  CG       -63.5610   18.1760    5.9210 C.3   240  ARG240      0.0489
     68  CD       -64.2640   18.4580    4.5660 C.3   240  ARG240      0.2205
     69  NE       -64.5700   19.9110    4.5350 N.pl3 240  ARG240     -0.0865
     70  CZ       -63.8010   20.8110    3.9370 C.cat 240  ARG240      0.5346
     71  NH1      -62.7010   20.4270    3.2500 N.pl3 240  ARG240      0.1354
     72  NH2      -64.1270   22.1010    3.9950 N.pl3 240  ARG240      0.1354
     73  N        -59.0060   19.7240    5.0590 N.3   242  SER242     -0.1202
     74  CA       -59.1200   20.8480    4.1540 C.3   242  SER242      0.2020
     75  C        -58.4640   20.5080    2.8270 C.2   242  SER242      0.2619
     76  O        -57.3500   19.9750    2.7570 O.2   242  SER242     -0.2717
     77  CB       -58.4570   22.0950    4.7610 C.3   242  SER242      0.2103
     78  OG       -58.2530   23.0950    3.7560 O.3   242  SER242     -0.2182
     79  N        -59.1670   20.8370    1.7590 N.am  243  CYS243     -0.1955
     80  CA       -58.6920   20.6830    0.4220 C.3   243  CYS243      0.1843
     81  C        -57.6370   21.7650    0.0620 C.2   243  CYS243      0.2626
     82  O        -56.5500   21.4320   -0.5010 O.2   243  CYS243     -0.2714
     83  CB       -59.9340   20.8600   -0.4460 C.3   243  CYS243      0.0997
     84  SG       -59.7310   20.7930   -2.1510 S.3   243  CYS243     -0.0797
     85  N        -57.9500   23.0460    0.3420 N.am  244  THR244     -0.1936
     86  CA       -57.0920   24.1870   -0.0890 C.3   244  THR244      0.2028
     87  C        -56.0120   24.4630    0.8970 C.2   244  THR244      0.2642
     88  O        -55.1240   25.2160    0.6170 O.2   244  THR244     -0.2714
     89  CB       -57.8820   25.5330   -0.3610 C.3   244  THR244      0.1808
     90  OG1      -58.5120   26.0230    0.8510 O.3   244  THR244     -0.2208
     91  CG2      -58.9700   25.2670   -1.3760 C.3   244  THR244      0.0379
     92  N        -56.0710   23.9040    2.0960 N.am  245  ARG245     -0.1977
     93  CA       -54.9470   24.1020    3.0110 C.3   245  ARG245      0.1597
     94  C        -54.5230   22.7050    3.4640 C.2   245  ARG245      0.2287
     95  O        -54.7240   22.3050    4.6250 O.2   245  ARG245     -0.2864
     96  CB       -55.4050   24.9170    4.2170 C.3   245  ARG245      0.0334
     97  CG       -56.1680   26.1330    3.7920 C.3   245  ARG245      0.0492
     98  CD       -56.2450   27.1480    4.8700 C.3   245  ARG245      0.2205
     99  NE       -57.2680   28.1350    4.5420 N.pl3 245  ARG245     -0.0865
    100  CZ       -57.8120   28.9910    5.4130 C.cat 245  ARG245      0.5346
    101  NH1      -57.4290   29.0040    6.7190 N.pl3 245  ARG245      0.1354
    102  NH2      -58.7570   29.8460    4.9700 N.pl3 245  ARG245      0.1354
    103  N        -60.5740   20.8980    8.7600 N.3   250  ALA250     -0.1245
    104  CA       -61.7040   21.8090    8.6070 C.3   250  ALA250      0.1562
    105  C        -62.8930   21.1930    9.3790 C.2   250  ALA250      0.2260
    106  O        -63.3150   20.0760    9.0380 O.2   250  ALA250     -0.2867
    107  CB       -62.0890   21.9480    7.0630 C.3   250  ALA250      0.0290
    108  N        -69.9350   22.8760   11.4200 N.3   253  TYR253     -0.1241
    109  CA       -70.8720   22.7180   12.5220 C.3   253  TYR253      0.1605
    110  C        -72.1270   23.5990   12.3150 C.2   253  TYR253      0.2264
    111  O        -72.1080   24.6050   11.6080 O.2   253  TYR253     -0.2867
    112  CB       -70.2180   23.0290   13.8540 C.3   253  TYR253      0.0534
    113  CG       -69.7270   24.4680   14.0200 C.ar  253  TYR253     -0.0201
    114  CD1      -70.3760   25.3530   14.8780 C.ar  253  TYR253     -0.0009
    115  CD2      -68.5950   24.9390   13.3170 C.ar  253  TYR253     -0.0009
    116  CE1      -69.9100   26.6840   15.0440 C.ar  253  TYR253      0.0417
    117  CE2      -68.1440   26.2550   13.4730 C.ar  253  TYR253      0.0417
    118  CZ       -68.8020   27.1080   14.3360 C.ar  253  TYR253      0.1957
    119  OH       -68.3160   28.3910   14.4870 O.3   253  TYR253     -0.2866
    120  N        -71.3280   26.6590    9.6330 N.3   261  LEU261     -0.1231
    121  CA       -70.0490   27.3040    9.4690 C.3   261  LEU261      0.1693
    122  C        -68.9310   26.2960    9.3580 C.2   261  LEU261      0.2592
    123  O        -69.0340   25.1590    9.8620 O.2   261  LEU261     -0.2718
    124  CB       -69.8020   28.2090   10.6810 C.3   261  LEU261      0.0284
    125  CG       -70.8710   29.3060   10.9430 C.3   261  LEU261      0.0019
    126  CD1      -70.5710   30.0830   12.2050 C.3   261  LEU261      0.0001
    127  CD2      -70.9680   30.2360    9.7150 C.3   261  LEU261      0.0001
    128  N        -67.8240   26.7040    8.7560 N.am  262  GLN262     -0.1966
    129  CA       -66.6870   25.8030    8.7360 C.3   262  GLN262      0.1733
    130  C        -65.4650   26.6380    9.1620 C.2   262  GLN262      0.2617
    131  O        -65.3740   27.8260    8.8080 O.2   262  GLN262     -0.2715
    132  CB       -66.5420   25.1710    7.3320 C.3   262  GLN262      0.0408
    133  CG       -67.8060   24.4030    6.9300 C.3   262  GLN262      0.0908
    134  CD       -67.5800   23.5770    5.6890 C.2   262  GLN262      0.2608
    135  OE1      -68.3480   23.6610    4.7490 O.2   262  GLN262     -0.2717
    136  NE2      -66.4790   22.8320    5.6600 N.am  262  GLN262     -0.0878
    137  N        -64.5730   26.0090    9.9330 N.am  263  THR263     -0.1937
    138  CA       -63.4390   26.6660   10.5460 C.3   263  THR263      0.2028
    139  C        -62.1870   25.7520   10.4560 C.2   263  THR263      0.2642
    140  O        -62.3040   24.5080   10.4500 O.2   263  THR263     -0.2714
    141  CB       -63.7470   27.0140   12.0280 C.3   263  THR263      0.1808
    142  OG1      -62.6620   27.7720   12.5760 O.3   263  THR263     -0.2208
    143  CG2      -63.9710   25.7770   12.8830 C.3   263  THR263      0.0379
    144  N        -61.0110   26.3650   10.4160 N.am  264  ILE264     -0.1977
    145  CA       -59.7380   25.6630   10.3680 C.3   264  ILE264      0.1596
    146  C        -59.0510   25.9490   11.6840 C.2   264  ILE264      0.2287
    147  O        -58.5320   27.0340   11.8860 O.2   264  ILE264     -0.2864
    148  CB       -58.9460   26.0880    9.1610 C.3   264  ILE264      0.0276
    149  CG1      -59.6390   25.5080    7.9080 C.3   264  ILE264      0.0022
    150  CG2      -57.5280   25.5210    9.2340 C.3   264  ILE264      0.0022
    151  CD1      -59.1200   26.0150    6.6660 C.3   264  ILE264      0.0001
    152  N        -53.8160   24.8970   17.9720 N.3   268  LYS268     -0.1245
    153  CA       -54.5450   24.0780   18.8890 C.3   268  LYS268      0.1561
    154  C        -54.6250   22.8220   18.0890 C.2   268  LYS268      0.2260
    155  O        -55.0280   22.8540   16.9320 O.2   268  LYS268     -0.2867
    156  CB       -55.9370   24.6840   19.0980 C.3   268  LYS268      0.0271
    157  CG       -56.5710   24.4480   20.4100 C.3   268  LYS268      0.0035
    158  CD       -57.5150   25.6220   20.7420 C.3   268  LYS268      0.0206
    159  CE       -58.7210   25.1360   21.5040 C.3   268  LYS268      0.1093
    160  NZ       -59.6070   26.2360   22.0020 N.3   268  LYS268     -0.1314
    161  N        -64.4610   22.4270   22.0250 N.3   277  GLY277     -0.1225
    162  CA       -65.6880   22.6830   21.2770 C.3   277  GLY277      0.1811
    163  C        -66.8290   21.8850   21.8690 C.2   277  GLY277      0.2280
    164  O        -67.9630   22.3620   21.9390 O.2   277  GLY277     -0.2866
    165  N        -67.7240   23.7700   25.2010 N.3   280  GLU280     -0.1245
    166  CA       -68.3320   25.0600   25.0370 C.3   280  GLU280      0.1567
    167  C        -69.6850   24.8970   24.4000 C.2   280  GLU280      0.2260
    168  O        -70.3640   25.8870   24.1540 O.2   280  GLU280     -0.2867
    169  CB       -67.4130   26.0030   24.2700 C.3   280  GLU280      0.0388
    170  CG       -66.2040   26.3770   25.1300 C.3   280  GLU280      0.1160
    171  CD       -65.0230   26.8760   24.3130 C.2   280  GLU280      0.3649
    172  OE1      -65.2030   27.2100   23.1330 O.co2 280  GLU280     -0.2457
    173  OE2      -63.8920   26.9230   24.8390 O.co2 280  GLU280     -0.2457
    174  N        -70.3900   23.6980   21.3310 N.3   282  PHE282     -0.1227
    175  CA       -70.4820   23.8130   19.8570 C.3   282  PHE282      0.1736
    176  C        -70.3700   22.4900   19.0990 C.2   282  PHE282      0.2595
    177  O        -70.9920   22.3340   18.0200 O.2   282  PHE282     -0.2718
    178  CB       -69.4170   24.7980   19.3030 C.3   282  PHE282      0.0547
    179  CG       -69.5780   26.1950   19.8440 C.ar  282  PHE282     -0.0202
    180  CD1      -70.5210   27.0770   19.2750 C.ar  282  PHE282     -0.0042
    181  CD2      -68.8660   26.6080   20.9630 C.ar  282  PHE282     -0.0042
    182  CE1      -70.7100   28.4080   19.8130 C.ar  282  PHE282     -0.0003
    183  CE2      -69.0630   27.9200   21.5210 C.ar  282  PHE282     -0.0003
    184  CZ       -69.9930   28.8070   20.9360 C.ar  282  PHE282     -0.0000
    185  N        -69.5020   21.5870   19.5880 N.am  283  TYR283     -0.1976
    186  CA       -69.2520   20.3590   18.8470 C.3   283  TYR283      0.1639
    187  C        -69.8090   19.2160   19.6440 C.2   283  TYR283      0.2290
    188  O        -69.0660   18.5790   20.3900 O.2   283  TYR283     -0.2864
    189  CB       -67.7550   20.1030   18.6160 C.3   283  TYR283      0.0560
    190  CG       -67.0430   21.2050   17.8570 C.ar  283  TYR283     -0.0198
    191  CD1      -67.7440   22.0340   16.9690 C.ar  283  TYR283     -0.0009
    192  CD2      -65.6860   21.4490   18.0620 C.ar  283  TYR283     -0.0009
    193  CE1      -67.1200   23.0530   16.3030 C.ar  283  TYR283      0.0417
    194  CE2      -65.0390   22.4660   17.3690 C.ar  283  TYR283      0.0417
    195  CZ       -65.7810   23.2600   16.4880 C.ar  283  TYR283      0.1957
    196  OH       -65.1830   24.2630   15.7730 O.3   283  TYR283     -0.2866
@<TRIPOS>BOND
     1    33    32    1
     2    37    36    2
     3    34    35    1
     4    36    35    1
     5    35    38    1
     6    32    31   ar
     7    32    30   ar
     8    40    39   ar
     9    31    29   ar
    10    30    28   ar
    11    38    39    1
    12    39    41   ar
    13    29    27   ar
    14    28    27   ar
    15    25    24    2
    16    27    26    1
    17    24    23    1
    18     7     6    2
    19     6     8   am
    20     6     5    1
    21    26    23    1
    22    23    22    1
    23     5     2    1
    24     2     1    1
    25     2     3    1
    26     4     3    2
    27     3     9   am
    28     9    10    1
    29    12    11    2
    30    10    11    1
    31    10    13    1
    32    11    15   am
    33    15    16    1
    34    15    21    1
    35    16    19    1
    36    16    17    1
    37    21    20    1
    38    20    19    1
    39    13    14    1
    40    17    18    2
    41    61    59   ar
    42    59    58    1
    43    59    60   ar
    44    84    83    1
    45    58    55    1
    46    91    89    1
    47    82    81    2
    48    83    80    1
    49    89    86    1
    50    89    90    1
    51    55    54    1
    52    55    56    1
    53    86    85    1
    54    86    87    1
    55    81    85   am
    56    81    80    1
    57    54    44   am
    58    56    57    2
    59    80    79    1
    60    88    87    2
    61    87    92   am
    62    42    43    1
    63    46    43    1
    64    46    47    1
    65    44    43    1
    66    44    45    2
    67    49    47   ar
    68    49    51   ar
    69    79    75   am
    70    47    48   ar
    71    92    93    1
    72    51    52   ar
    73    76    75    2
    74    75    74    1
    75    93    94    1
    76    93    96    1
    77    48    50   ar
    78    52    50   ar
    79    52    53    1
    80    71    70    1
    81    94    95    2
    82    78    77    1
    83    97    96    1
    84    97    98    1
    85    70    72    1
    86    70    69    2
    87    74    77    1
    88    74    73    1
    89    69    68    1
    90    99    98    1
    91    99   100    2
    92    68    67    1
    93   135   134    2
    94   102   100    1
    95   100   101    1
    96   136   134   am
    97   134   133    1
    98    67    66    1
    99    66    63    1
   100   151   149    1
   101   133   132    1
   102    64    63    1
   103    64    65    2
   104   107   104    1
   105   132   129    1
   106    63    62    1
   107   149   148    1
   108   104   103    1
   109   104   105    1
   110   129   128    1
   111   129   130    1
   112   128   122   am
   113   131   130    2
   114   106   105    2
   115   148   150    1
   116   148   145    1
   117   130   137   am
   118   122   121    1
   119   122   123    2
   120   121   120    1
   121   121   124    1
   122   127   125    1
   123   137   138    1
   124   145   144    1
   125   145   146    1
   126   144   139   am
   127   140   139    2
   128   139   138    1
   129   138   141    1
   130   124   125    1
   131   125   126    1
   132   108   109    1
   133   111   110    2
   134   146   147    2
   135   141   142    1
   136   141   143    1
   137   110   109    1
   138   109   112    1
   139   115   117   ar
   140   115   113   ar
   141   117   118   ar
   142   112   113    1
   143   113   114   ar
   144   118   119    1
   145   118   116   ar
   146   114   116   ar
   147   196   195    1
   148   193   195   ar
   149   193   191   ar
   150   195   194   ar
   151   155   154    2
   152   191   190   ar
   153   194   192   ar
   154   190   192   ar
   155   190   189    1
   156   152   153    1
   157   177   176    2
   158   154   153    1
   159   189   186    1
   160   186   185    1
   161   186   187    1
   162   153   156    1
   163   156   157    1
   164   176   185   am
   165   176   175    1
   166   180   182   ar
   167   180   179   ar
   168   178   179    1
   169   178   175    1
   170   187   188    2
   171   182   184   ar
   172   179   181   ar
   173   175   174    1
   174   157   158    1
   175   158   159    1
   176   184   183   ar
   177   181   183   ar
   178   162   163    1
   179   162   161    1
   180   159   160    1
   181   163   164    2
   182   172   171   ar
   183   168   167    2
   184   169   166    1
   185   169   170    1
   186   171   173   ar
   187   171   170    1
   188   167   166    1
   189   166   165    1
