@<TRIPOS>MOLECULE
tmp/3ob6B00.pdb
 130 125 0 0 0
SMALL
GASTEIGER

@<TRIPOS>ATOM
      1  N         -5.4960    8.3670   19.9750 N.3    18  ASN18      -0.1225
      2  CA        -4.3810    7.7390   20.6930 C.3    18  ASN18       0.1785
      3  C         -3.2790    8.7120   21.0920 C.2    18  ASN18       0.2597
      4  O         -2.6550    8.5510   22.1480 O.2    18  ASN18      -0.2718
      5  CB        -3.7610    6.5980   19.8810 C.3    18  ASN18       0.1169
      6  CG        -4.7180    5.4320   19.6740 C.2    18  ASN18       0.2627
      7  OD1       -4.8660    4.9400   18.5580 O.2    18  ASN18      -0.2716
      8  ND2       -5.3720    4.9860   20.7420 N.am   18  ASN18      -0.0877
      9  N         -3.0490    9.7230   20.2550 N.am   19  ILE19      -0.1966
     10  CA        -2.0450   10.7400   20.5380 C.3    19  ILE19       0.1727
     11  C         -2.4330   11.5870   21.7380 C.2    19  ILE19       0.2616
     12  O         -1.7020   11.5980   22.7320 O.2    19  ILE19      -0.2715
     13  CB        -1.8060   11.6660   19.3340 C.3    19  ILE19       0.0290
     14  CG1       -1.0050   10.9350   18.2570 C.3    19  ILE19       0.0022
     15  CG2       -1.0360   12.8830   19.7650 C.3    19  ILE19       0.0023
     16  CD1       -0.7740   11.7330   16.9920 C.3    19  ILE19       0.0001
     17  N         -3.5760   12.2760   21.6430 N.am   20  MET20      -0.1963
     18  CA        -3.9880   13.2510   22.6650 C.3    20  MET20       0.1736
     19  C         -4.3230   12.5040   23.9340 C.2    20  MET20       0.2617
     20  O         -3.7470   12.7760   24.9960 O.2    20  MET20      -0.2715
     21  CB        -5.1790   14.0990   22.2160 C.3    20  MET20       0.0427
     22  CG        -5.0140   14.7420   20.8420 C.3    20  MET20       0.0599
     23  SD        -6.0670   16.1800   20.5200 S.3    20  MET20      -0.1393
     24  CE        -7.5300   15.8840   21.5360 C.3    20  MET20       0.0692
     25  N         -5.2410   11.5510   23.7960 N.am   21  GLY21      -0.1940
     26  CA        -5.5220   10.5450   24.8160 C.3    21  GLY21       0.2014
     27  C         -5.6430   11.0990   26.2170 C.2    21  GLY21       0.2640
     28  O         -6.4320   12.0280   26.4680 O.2    21  GLY21      -0.2714
     29  N         -4.8390   10.5410   27.1220 N.am   22  SER22      -0.1935
     30  CA        -4.9060   10.8700   28.5520 C.3    22  SER22       0.2055
     31  C         -4.2040   12.1740   28.9260 C.2    22  SER22       0.2643
     32  O         -4.4620   12.7570   29.9760 O.2    22  SER22      -0.2714
     33  CB        -4.2420    9.7360   29.3400 C.3    22  SER22       0.2130
     34  OG        -2.9220    9.4740   28.8410 O.3    22  SER22      -0.2179
     35  N         -3.2840   12.5920   28.0740 N.am   23  GLY23      -0.1954
     36  CA        -2.3110   13.5870   28.4380 C.3    23  GLY23       0.1869
     37  C         -2.7580   14.9880   28.1230 C.2    23  GLY23       0.2309
     38  O         -2.3510   15.9320   28.7890 O.2    23  GLY23      -0.2863
     39  N          0.5090    0.2230   27.5450 N.3    96  GLY96      -0.1225
     40  CA        -0.1160    1.5170   27.3280 C.3    96  GLY96       0.1811
     41  C         -1.6140    1.4520   27.5660 C.2    96  GLY96       0.2280
     42  O         -2.2040    2.3830   28.1400 O.2    96  GLY96      -0.2866
     43  N         -2.5480    1.7390   31.2300 N.3    99  ALA99      -0.1231
     44  CA        -2.5820    3.1360   31.6950 C.3    99  ALA99       0.1694
     45  C         -3.9040    3.8490   31.3380 C.2    99  ALA99       0.2591
     46  O         -4.4060    4.6640   32.1030 O.2    99  ALA99      -0.2718
     47  CB        -1.3670    3.9290   31.1480 C.3    99  ALA99       0.0304
     48  N         -4.4690    3.5520   30.1740 N.am  100  MET100     -0.1979
     49  CA        -5.7000    4.2300   29.7650 C.3   100  MET100      0.1605
     50  C         -6.8980    3.8990   30.6570 C.2   100  MET100      0.2287
     51  O         -7.6190    4.7950   31.0950 O.2   100  MET100     -0.2864
     52  CB        -6.0380    3.8870   28.3130 C.3   100  MET100      0.0413
     53  CG        -5.0560    4.4450   27.3210 C.3   100  MET100      0.0598
     54  SD        -4.6130    6.1520   27.6700 S.3   100  MET100     -0.1393
     55  CE        -2.9770    6.1400   26.9150 C.3   100  MET100      0.0692
     56  N         -6.5050    5.6030   34.1100 N.3   103  ILE103     -0.1245
     57  CA        -6.7120    7.0340   34.0120 C.3   103  ILE103      0.1561
     58  C         -8.1420    7.3520   33.6290 C.2   103  ILE103      0.2260
     59  O         -8.7890    8.1770   34.2640 O.2   103  ILE103     -0.2867
     60  CB        -5.7780    7.6460   32.9750 C.3   103  ILE103      0.0252
     61  CG1       -4.3390    7.6020   33.4930 C.3   103  ILE103      0.0019
     62  CG2       -6.2090    9.0710   32.6230 C.3   103  ILE103      0.0019
     63  CD1       -3.3080    7.4900   32.4080 C.3   103  ILE103      0.0001
     64  N          6.9530   13.5450   24.4370 N.3   198  TRP198     -0.1227
     65  CA         6.1790   12.3310   24.6060 C.3   198  TRP198      0.1737
     66  C          4.7270   12.5310   24.2260 C.2   198  TRP198      0.2596
     67  O          3.9140   11.6380   24.3790 O.2   198  TRP198     -0.2718
     68  CB         6.2820   11.8470   26.0510 C.3   198  TRP198      0.0564
     69  CG         7.6960   11.7360   26.4610 C.ar  198  TRP198      0.0003
     70  CD1        8.4160   12.6390   27.1780 C.ar  198  TRP198      0.0946
     71  CD2        8.5900   10.6830   26.1240 C.ar  198  TRP198      0.0152
     72  NE1        9.7130   12.2030   27.3450 N.ar  198  TRP198     -0.2442
     73  CE2        9.8450   11.0010   26.7050 C.ar  198  TRP198      0.0810
     74  CE3        8.4560    9.4940   25.3970 C.ar  198  TRP198      0.0012
     75  CZ2       10.9520   10.1710   26.5790 C.ar  198  TRP198      0.0191
     76  CZ3        9.5470    8.6740   25.2770 C.ar  198  TRP198      0.0001
     77  CH2       10.7850    9.0080   25.8690 C.ar  198  TRP198      0.0015
     78  N          4.3870   13.7040   23.7350 N.am  199  SER199     -0.1952
     79  CA         2.9910   14.0030   23.4710 C.3   199  SER199      0.1924
     80  C          2.5080   13.3780   22.1780 C.2   199  SER199      0.2314
     81  O          1.3090   13.1710   22.0230 O.2   199  SER199     -0.2863
     82  CB         2.7470   15.5150   23.4540 C.3   199  SER199      0.2116
     83  OG         2.8110   16.0200   24.7890 O.3   199  SER199     -0.2180
     84  N          3.7250   10.3210   20.7540 N.3   201  ILE201     -0.1245
     85  CA         3.6340    8.8750   20.6360 C.3   201  ILE201      0.1561
     86  C          2.2270    8.5940   20.1280 C.2   201  ILE201      0.2260
     87  O          1.2550    9.1010   20.7160 O.2   201  ILE201     -0.2867
     88  CB         3.8160    8.1480   21.9830 C.3   201  ILE201      0.0252
     89  CG1        5.1300    8.5450   22.6700 C.3   201  ILE201      0.0019
     90  CG2        3.7260    6.6070   21.7940 C.3   201  ILE201      0.0019
     91  CD1        6.2830    8.7540   21.7460 C.3   201  ILE201      0.0001
     92  N         -3.1520   21.0690   21.3210 N.3   235  TYR235     -0.1241
     93  CA        -2.1020   21.2660   22.2860 C.3   235  TYR235      0.1605
     94  C         -1.7630   22.7300   22.3960 C.2   235  TYR235      0.2264
     95  O         -1.8280   23.2920   23.4800 O.2   235  TYR235     -0.2867
     96  CB        -0.8540   20.4980   21.8690 C.3   235  TYR235      0.0534
     97  CG        -0.8960   19.0160   22.1250 C.ar  235  TYR235     -0.0201
     98  CD1       -0.1520   18.1450   21.3390 C.ar  235  TYR235     -0.0009
     99  CD2       -1.6630   18.4660   23.1400 C.ar  235  TYR235     -0.0009
    100  CE1       -0.1620   16.7480   21.5670 C.ar  235  TYR235      0.0417
    101  CE2       -1.6770   17.0810   23.3740 C.ar  235  TYR235      0.0417
    102  CZ        -0.9240   16.2330   22.5820 C.ar  235  TYR235      0.1957
    103  OH        -0.9200   14.8800   22.7950 O.3   235  TYR235     -0.2866
    104  N         -5.5060    1.3870   21.2630 N.3   289  TRP289     -0.1241
    105  CA        -4.2560    0.6970   21.5210 C.3   289  TRP289      0.1605
    106  C         -4.4680   -0.8120   21.4610 C.2   289  TRP289      0.2264
    107  O         -3.7200   -1.5300   20.8090 O.2   289  TRP289     -0.2867
    108  CB        -3.6510    1.0920   22.8740 C.3   289  TRP289      0.0550
    109  CG        -3.1600    2.4560   22.8590 C.ar  289  TRP289      0.0003
    110  CD1       -3.7170    3.5330   23.4740 C.ar  289  TRP289      0.0946
    111  CD2       -2.0270    2.9460   22.1420 C.ar  289  TRP289      0.0152
    112  NE1       -2.9910    4.6690   23.2020 N.ar  289  TRP289     -0.2442
    113  CE2       -1.9540    4.3350   22.3730 C.ar  289  TRP289      0.0810
    114  CE3       -1.0660    2.3480   21.3230 C.ar  289  TRP289      0.0012
    115  CZ2       -0.9590    5.1280   21.8290 C.ar  289  TRP289      0.0191
    116  CZ3       -0.0820    3.1410   20.7800 C.ar  289  TRP289      0.0001
    117  CH2       -0.0340    4.5210   21.0440 C.ar  289  TRP289      0.0015
    118  N          5.5310    1.4470   33.2010 N.3   350  SER350     -0.1217
    119  CA         4.8110    2.0970   32.1050 C.3   350  SER350      0.1889
    120  C          5.7240    3.0500   31.4030 C.2   350  SER350      0.2288
    121  O          5.5750    3.2710   30.2210 O.2   350  SER350     -0.2866
    122  CB         3.6000    2.8690   32.6090 C.3   350  SER350      0.2089
    123  OG         3.9980    3.7580   33.6220 O.3   350  SER350     -0.2183
    124  N          7.2430    3.4590   27.2120 N.3   354  VAL354     -0.1245
    125  CA         7.2050    4.6190   26.3170 C.3   354  VAL354      0.1561
    126  C          8.4840    4.8140   25.5260 C.2   354  VAL354      0.2260
    127  O          8.4720    5.4100   24.4710 O.2   354  VAL354     -0.2867
    128  CB         6.9860    5.8800   27.0960 C.3   354  VAL354      0.0252
    129  CG1        6.6080    6.9990   26.1620 C.3   354  VAL354      0.0019
    130  CG2        5.9030    5.6620   28.1340 C.3   354  VAL354      0.0019
@<TRIPOS>BOND
     1    16    14    1
     2    14    13    1
     3     7     6    2
     4    13    15    1
     5    13    10    1
     6     6     5    1
     7     6     8   am
     8     5     2    1
     9     1     2    1
    10    86    85    1
    11    86    87    2
    12     9    10    1
    13     9     3   am
    14    23    22    1
    15    23    24    1
    16    10    11    1
    17    85    84    1
    18    85    88    1
    19     2     3    1
    20   116   117   ar
    21   116   114   ar
    22   107   106    2
    23    22    21    1
    24   117   115   ar
    25     3     4    2
    26   104   105    1
    27    92    93    1
    28   114   111   ar
    29    98   100   ar
    30    98    97   ar
    31   106   105    1
    32   105   108    1
    33   100   102   ar
    34    17    11   am
    35    17    18    1
    36    11    12    2
    37    91    89    1
    38    90    88    1
    39   115   113   ar
    40    96    97    1
    41    96    93    1
    42    88    89    1
    43    81    80    2
    44    97    99   ar
    45   111   113   ar
    46   111   109   ar
    47    80    79    1
    48    21    18    1
    49    93    94    1
    50   113   112   ar
    51    94    95    2
    52   102   103    1
    53   102   101   ar
    54    18    19    1
    55   109   108    1
    56   109   110   ar
    57    99   101   ar
    58   112   110   ar
    59    82    79    1
    60    82    83    1
    61    79    78    1
    62    78    66   am
    63    25    19   am
    64    25    26    1
    65    19    20    2
    66    66    67    2
    67    66    65    1
    68    64    65    1
    69   127   126    2
    70    65    68    1
    71    26    27    1
    72    76    74   ar
    73    76    77   ar
    74    74    71   ar
    75   126   125    1
    76    77    75   ar
    77    68    69    1
    78    71    69   ar
    79    71    73   ar
    80   129   128    1
    81    27    28    2
    82    27    29   am
    83   125   128    1
    84   125   124    1
    85    69    70   ar
    86    75    73   ar
    87    73    72   ar
    88    55    54    1
    89   128   130    1
    90    29    30    1
    91    70    72   ar
    92    53    54    1
    93    53    52    1
    94    40    39    1
    95    40    41    1
    96    41    42    2
    97    35    36    1
    98    35    31   am
    99    37    36    1
   100    37    38    2
   101    52    49    1
   102    30    31    1
   103    30    33    1
   104    34    33    1
   105    31    32    2
   106    49    48    1
   107    49    50    1
   108    48    45   am
   109   121   120    2
   110    50    51    2
   111    47    44    1
   112    43    44    1
   113    45    44    1
   114    45    46    2
   115   120   119    1
   116   119   122    1
   117   119   118    1
   118    63    61    1
   119   122   123    1
   120    62    60    1
   121    60    61    1
   122    60    57    1
   123    58    57    1
   124    58    59    2
   125    57    56    1
