@<TRIPOS>MOLECULE
tmp/3ob7A00.pdb
 168 163 0 0 0
SMALL
GASTEIGER

@<TRIPOS>ATOM
      1  N         22.9540   -0.2970  111.3260 N.3    24  ASP24      -0.1225
      2  CA        22.1010   -1.1530  110.5370 C.3    24  ASP24       0.1805
      3  C         20.9740   -1.7780  111.3460 C.2    24  ASP24       0.2597
      4  O         20.6830   -1.3610  112.4570 O.2    24  ASP24      -0.2718
      5  CB        22.9240   -2.2440  109.8520 C.3    24  ASP24       0.1424
      6  CG        23.5140   -3.2380  110.8300 C.2    24  ASP24       0.3668
      7  OD1       23.0660   -3.2980  112.0050 O.co2  24  ASP24      -0.2456
      8  OD2       24.4270   -3.9730  110.3980 O.co2  24  ASP24      -0.2456
      9  N         20.3530   -2.7950  110.7590 N.am   25  ARG25      -0.1979
     10  CA        19.2270   -3.5080  111.3420 C.3    25  ARG25       0.1597
     11  C         19.4680   -4.0980  112.7260 C.2    25  ARG25       0.2287
     12  O         18.6260   -3.9660  113.6060 O.2    25  ARG25      -0.2864
     13  CB        18.7880   -4.6000  110.3760 C.3    25  ARG25       0.0334
     14  CG        18.8080   -4.1530  108.9230 C.3    25  ARG25       0.0492
     15  CD        17.9800   -5.0950  108.0720 C.3    25  ARG25       0.2205
     16  NE        16.5710   -5.0770  108.4710 N.pl3  25  ARG25      -0.0865
     17  CZ        15.7160   -4.1050  108.1700 C.cat  25  ARG25       0.5346
     18  NH1       16.1180   -3.0610  107.4630 N.pl3  25  ARG25       0.1354
     19  NH2       14.4540   -4.1840  108.5620 N.pl3  25  ARG25       0.1354
     20  N         26.0310  -19.2220   91.4380 N.3    62  GLU62      -0.1245
     21  CA        24.8090  -18.5230   91.8490 C.3    62  GLU62       0.1567
     22  C         24.1150  -17.8530   90.6550 C.2    62  GLU62       0.2260
     23  O         22.8950  -17.8960   90.5240 O.2    62  GLU62      -0.2867
     24  CB        25.1100  -17.4570   92.9230 C.3    62  GLU62       0.0388
     25  CG        23.8610  -16.7730   93.5050 C.3    62  GLU62       0.1160
     26  CD        24.1010  -15.3220   93.9660 C.2    62  GLU62       0.3649
     27  OE1       24.6440  -14.5190   93.1670 O.co2  62  GLU62      -0.2457
     28  OE2       23.7370  -14.9730   95.1150 O.co2  62  GLU62      -0.2457
     29  N         15.2780  -13.3880   93.4860 N.3   110  TYR110     -0.1241
     30  CA        15.8460  -13.1560   92.1510 C.3   110  TYR110      0.1605
     31  C         15.3970  -14.0890   91.0050 C.2   110  TYR110      0.2264
     32  O         14.8220  -13.6430   90.0120 O.2   110  TYR110     -0.2867
     33  CB        17.3770  -13.1760   92.2220 C.3   110  TYR110      0.0534
     34  CG        17.9920  -12.1650   93.1590 C.ar  110  TYR110     -0.0201
     35  CD1       17.9220  -10.7980   92.8920 C.ar  110  TYR110     -0.0009
     36  CD2       18.6660  -12.5830   94.3100 C.ar  110  TYR110     -0.0009
     37  CE1       18.5160   -9.8670   93.7530 C.ar  110  TYR110      0.0417
     38  CE2       19.2620  -11.6710   95.1700 C.ar  110  TYR110      0.0417
     39  CZ        19.1870  -10.3160   94.8900 C.ar  110  TYR110      0.1957
     40  OH        19.7980   -9.4240   95.7400 O.3   110  TYR110     -0.2866
     41  N         14.3250  -12.4200  102.1260 N.3   167  LEU167     -0.1231
     42  CA        14.9210  -11.0970  102.3910 C.3   167  LEU167      0.1678
     43  C         14.8900  -10.3030  101.0750 C.2   167  LEU167      0.2434
     44  O         14.9800  -10.8840   99.9940 O.2   167  LEU167     -0.2733
     45  CB        16.3570  -11.2090  102.9680 C.3   167  LEU167      0.0284
     46  CG        17.5120  -11.9840  102.3170 C.3   167  LEU167      0.0019
     47  CD1       16.9740  -13.3520  101.8370 C.3   167  LEU167      0.0001
     48  CD2       18.1610  -11.1480  101.1560 C.3   167  LEU167      0.0001
     49  N         14.7320   -8.9720  101.1520 N.am  168  PRO168     -0.2729
     50  CA        14.6730   -8.0780   99.9910 C.3   168  PRO168      0.1401
     51  C         15.7930   -8.2650   98.9960 C.2   168  PRO168      0.2269
     52  O         16.8100   -8.8660   99.3070 O.2   168  PRO168     -0.2865
     53  CB        14.7210   -6.6940  100.6170 C.3   168  PRO168      0.0296
     54  CG        14.0390   -6.8950  101.9050 C.3   168  PRO168      0.0237
     55  CD        14.6520   -8.1880  102.3920 C.3   168  PRO168      0.0939
     56  N         18.9450   -7.0760   96.7040 N.3   170  CYS170     -0.1221
     57  CA        19.9620   -6.0510   96.8820 C.3   170  CYS170      0.1808
     58  C         20.1860   -5.3560   95.5550 C.2   170  CYS170      0.2601
     59  O         20.2790   -4.1270   95.5100 O.2   170  CYS170     -0.2717
     60  CB        21.2680   -6.6400   97.4080 C.3   170  CYS170      0.0970
     61  SG        21.5920   -6.0380   99.0680 S.3   170  CYS170     -0.0800
     62  N         20.2810   -6.1410   94.4790 N.am  171  HIS171     -0.1975
     63  CA        20.4280   -5.5650   93.1520 C.3   171  HIS171      0.1656
     64  C         19.0230   -5.4390   92.5840 C.2   171  HIS171      0.2291
     65  O         18.5570   -6.3120   91.8580 O.2   171  HIS171     -0.2864
     66  CB        21.3100   -6.4180   92.2250 C.3   171  HIS171      0.0771
     67  CG        21.4260   -7.8680   92.6000 C.ar  171  HIS171      0.0820
     68  ND1       22.1680   -8.3060   93.6800 N.ar  171  HIS171     -0.2267
     69  CD2       20.9970   -8.9890   91.9640 C.ar  171  HIS171      0.1154
     70  CE1       22.1920   -9.6280   93.6880 C.ar  171  HIS171      0.1986
     71  NE2       21.4910  -10.0680   92.6560 N.ar  171  HIS171     -0.2212
     72  N         22.3450   -1.0020   93.0770 N.3   189  GLN189     -0.1231
     73  CA        22.3660   -1.7440   94.3170 C.3   189  GLN189      0.1698
     74  C         21.8830   -0.7530   95.3800 C.2   189  GLN189      0.2592
     75  O         22.4520    0.3300   95.5490 O.2   189  GLN189     -0.2718
     76  CB        23.7830   -2.2450   94.5920 C.3   189  GLN189      0.0381
     77  CG        23.8680   -3.1390   95.7950 C.3   189  GLN189      0.0905
     78  CD        25.0830   -4.0210   95.7680 C.2   189  GLN189      0.2608
     79  OE1       25.3890   -4.6370   94.7470 O.2   189  GLN189     -0.2717
     80  NE2       25.7820   -4.1060   96.8990 N.am  189  GLN189     -0.0878
     81  N         20.8070   -1.1100   96.0710 N.am  190  ARG190     -0.1966
     82  CA        20.2270   -0.2110   97.0650 C.3   190  ARG190      0.1729
     83  C         21.1410   -0.0560   98.2440 C.2   190  ARG190      0.2617
     84  O         21.2440    1.0070   98.8460 O.2   190  ARG190     -0.2715
     85  CB        18.8700   -0.7350   97.5360 C.3   190  ARG190      0.0348
     86  CG        18.9120   -2.1140   98.1400 C.3   190  ARG190      0.0492
     87  CD        17.5770   -2.4270   98.7150 C.3   190  ARG190      0.2205
     88  NE        17.5320   -3.7260   99.3730 N.pl3 190  ARG190     -0.0865
     89  CZ        17.9790   -3.9570  100.6020 C.cat 190  ARG190      0.5346
     90  NH1       18.5180   -2.9660  101.3000 N.pl3 190  ARG190      0.1354
     91  NH2       17.8460   -5.1600  101.1520 N.pl3 190  ARG190      0.1354
     92  N         21.8210   -1.1370   98.5560 N.am  191  SER191     -0.1936
     93  CA        22.7120   -1.1550   99.6730 C.3   191  SER191      0.2055
     94  C         23.7850   -2.1780   99.3910 C.2   191  SER191      0.2644
     95  O         23.5020   -3.2560   98.8670 O.2   191  SER191     -0.2714
     96  CB        21.9230   -1.5360  100.9180 C.3   191  SER191      0.2130
     97  OG        22.7740   -1.9440  101.9690 O.3   191  SER191     -0.2179
     98  N         25.0240   -1.8220   99.7150 N.am  192  GLY192     -0.1939
     99  CA        26.1400   -2.7320   99.5250 C.3   192  GLY192      0.2014
    100  C         27.1810   -2.5240  100.6100 C.2   192  GLY192      0.2638
    101  O         27.3900   -1.4010  101.0710 O.2   192  GLY192     -0.2714
    102  N         27.7990   -3.6180  101.0450 N.am  193  ASP193     -0.1971
    103  CA        28.8670   -3.5880  102.0440 C.3   193  ASP193      0.1709
    104  C         30.1120   -3.5610  101.1630 C.2   193  ASP193      0.2293
    105  O         30.4090   -4.5580  100.5000 O.2   193  ASP193     -0.2864
    106  CB        28.8410   -4.8760  102.8700 C.3   193  ASP193      0.1436
    107  CG        29.9420   -4.9430  103.9120 C.2   193  ASP193      0.3671
    108  OD1       31.1230   -4.7880  103.5470 O.co2 193  ASP193     -0.2456
    109  OD2       29.6290   -5.1760  105.1000 O.co2 193  ASP193     -0.2456
    110  N         32.6850   -6.8750  101.8690 N.3   196  LEU196     -0.1231
    111  CA        32.4400   -8.2500  101.4350 C.3   196  LEU196      0.1693
    112  C         31.5930   -8.4380  100.1840 C.2   196  LEU196      0.2592
    113  O         32.0360   -9.0460   99.2140 O.2   196  LEU196     -0.2718
    114  CB        31.8130   -9.0490  102.5780 C.3   196  LEU196      0.0284
    115  CG        32.5050   -9.0270  103.9570 C.3   196  LEU196      0.0019
    116  CD1       33.9960   -9.3500  103.7740 C.3   196  LEU196      0.0001
    117  CD2       32.3090   -7.6610  104.6480 C.3   196  LEU196      0.0001
    118  N         30.3800   -7.9070  100.2010 N.am  197  GLY197     -0.1957
    119  CA        29.4910   -8.0820   99.0700 C.3   197  GLY197      0.1869
    120  C         29.8250   -7.4290   97.7450 C.2   197  GLY197      0.2309
    121  O         29.9830   -8.1240   96.7460 O.2   197  GLY197     -0.2863
    122  N         31.7980   -8.9950   95.0430 N.3   200  PHE200     -0.1227
    123  CA        31.0680  -10.1460   94.5260 C.3   200  PHE200      0.1736
    124  C         30.0820   -9.6530   93.4470 C.2   200  PHE200      0.2595
    125  O         30.0270  -10.1950   92.3340 O.2   200  PHE200     -0.2718
    126  CB        30.3070  -10.7820   95.7000 C.3   200  PHE200      0.0547
    127  CG        29.7720  -12.1680   95.4370 C.ar  200  PHE200     -0.0202
    128  CD1       30.4350  -13.2820   95.9290 C.ar  200  PHE200     -0.0042
    129  CD2       28.5730  -12.3510   94.7530 C.ar  200  PHE200     -0.0042
    130  CE1       29.9120  -14.5630   95.7490 C.ar  200  PHE200     -0.0003
    131  CE2       28.0360  -13.6260   94.5650 C.ar  200  PHE200     -0.0003
    132  CZ        28.7060  -14.7390   95.0650 C.ar  200  PHE200     -0.0000
    133  N         29.3060   -8.6260   93.7990 N.am  201  ASN201     -0.1974
    134  CA        28.3170   -8.0370   92.9030 C.3   201  ASN201      0.1688
    135  C         28.9470   -7.5410   91.6210 C.2   201  ASN201      0.2292
    136  O         28.4490   -7.8330   90.5300 O.2   201  ASN201     -0.2864
    137  CB        27.6040   -6.8700   93.5760 C.3   201  ASN201      0.1181
    138  CG        26.6970   -7.3100   94.6980 C.2   201  ASN201      0.2629
    139  OD1       27.0830   -7.2920   95.8660 O.2   201  ASN201     -0.2716
    140  ND2       25.4750   -7.7200   94.3450 N.am  201  ASN201     -0.0877
    141  N         29.4720  -10.5760   89.6850 N.3   204  SER204     -0.1217
    142  CA        28.2290  -11.1360   89.1290 C.3   204  SER204      0.1889
    143  C         27.7420  -10.4510   87.8400 C.2   204  SER204      0.2288
    144  O         27.6700  -11.0710   86.7770 O.2   204  SER204     -0.2866
    145  CB        27.0960  -11.0910   90.1670 C.3   204  SER204      0.2089
    146  OG        27.0090  -12.2960   90.9070 O.3   204  SER204     -0.2183
    147  N         28.3220    1.1520  102.3810 N.3   231  HIS231     -0.1241
    148  CA        28.8500    1.1990  103.7420 C.3   231  HIS231      0.1621
    149  C         29.9460    0.2040  104.0670 C.2   231  HIS231      0.2264
    150  O         30.2350   -0.7380  103.3140 O.2   231  HIS231     -0.2867
    151  CB        27.7210    0.9680  104.7420 C.3   231  HIS231      0.0745
    152  CG        26.9960   -0.3220  104.5200 C.ar  231  HIS231      0.0817
    153  ND1       25.9940   -0.4610  103.5810 N.ar  231  HIS231     -0.2268
    154  CD2       27.1920   -1.5550  105.0430 C.ar  231  HIS231      0.1154
    155  CE1       25.6090   -1.7220  103.5320 C.ar  231  HIS231      0.1986
    156  NE2       26.3200   -2.4070  104.4080 N.ar  231  HIS231     -0.2212
    157  N         31.6020   -1.7690  107.7560 N.3   233  TYR233     -0.1241
    158  CA        31.4320   -2.0300  109.1770 C.3   233  TYR233      0.1605
    159  C         32.5520   -1.3180  109.9130 C.2   233  TYR233      0.2264
    160  O         33.7170   -1.4440  109.5180 O.2   233  TYR233     -0.2867
    161  CB        31.5250   -3.5280  109.4530 C.3   233  TYR233      0.0534
    162  CG        30.2120   -4.2350  109.3010 C.ar  233  TYR233     -0.0201
    163  CD1       30.1480   -5.5120  108.7590 C.ar  233  TYR233     -0.0009
    164  CD2       29.0310   -3.6390  109.7450 C.ar  233  TYR233     -0.0009
    165  CE1       28.9430   -6.1820  108.6650 C.ar  233  TYR233      0.0417
    166  CE2       27.8200   -4.2970  109.6570 C.ar  233  TYR233      0.0417
    167  CZ        27.7790   -5.5700  109.1190 C.ar  233  TYR233      0.1957
    168  OH        26.5730   -6.2350  109.0490 O.3   233  TYR233     -0.2866
@<TRIPOS>BOND
     1   144   143    2
     2   143   142    1
     3   142   141    1
     4   142   145    1
     5    32    31    2
     6   145   146    1
     7    23    22    2
     8   136   135    2
     9    22    21    1
    10    31    30    1
    11    20    21    1
    12   135   134    1
    13    21    24    1
    14    65    64    2
    15    69    67   ar
    16    69    71   ar
    17    30    33    1
    18    30    29    1
    19    33    34    1
    20    66    67    1
    21    66    63    1
    22   125   124    2
    23    64    63    1
    24    67    68   ar
    25    71    70   ar
    26    35    34   ar
    27    35    37   ar
    28   134   137    1
    29   134   133    1
    30    24    25    1
    31    72    73    1
    32    63    62    1
    33    34    36   ar
    34    27    26   ar
    35   124   133   am
    36   124   123    1
    37    25    26    1
    38   137   138    1
    39    68    70   ar
    40    37    39   ar
    41    26    28   ar
    42    36    38   ar
    43    73    76    1
    44    73    74    1
    45   140   138   am
    46    62    58   am
    47   123   122    1
    48   123   126    1
    49   131   129   ar
    50   131   132   ar
    51    76    77    1
    52   138   139    2
    53    79    78    2
    54   129   127   ar
    55    39    38   ar
    56    39    40    1
    57   132   130   ar
    58    74    75    2
    59    74    81   am
    60   127   126    1
    61   127   128   ar
    62    59    58    2
    63    58    57    1
    64   130   128   ar
    65    78    77    1
    66    78    80   am
    67    81    82    1
    68    56    57    1
    69   121   120    2
    70    57    60    1
    71    82    85    1
    72    82    83    1
    73    60    61    1
    74    85    86    1
    75   120   119    1
    76    86    87    1
    77    83    92   am
    78    83    84    2
    79    92    93    1
    80    87    88    1
    81    95    94    2
    82    51    52    2
    83    51    50    1
    84   119   118    1
    85   113   112    2
    86    88    89    2
    87    94    93    1
    88    94    98   am
    89    99    98    1
    90    99   100    1
    91    93    96    1
    92    50    53    1
    93    50    49    1
    94    44    43    2
    95   112   118   am
    96   112   111    1
    97   105   104    2
    98    89    91    1
    99    89    90    1
   100   100   102   am
   101   100   101    2
   102    53    54    1
   103    96    97    1
   104   102   103    1
   105    43    49   am
   106    43    42    1
   107    49    55    1
   108    48    46    1
   109   104   103    1
   110   111   110    1
   111   111   114    1
   112    47    46    1
   113    54    55    1
   114   103   106    1
   115    41    42    1
   116    46    45    1
   117   147   148    1
   118    42    45    1
   119   114   115    1
   120   106   107    1
   121   150   149    2
   122   155   153   ar
   123   155   156   ar
   124   108   107   ar
   125   153   152   ar
   126   148   149    1
   127   148   151    1
   128   116   115    1
   129   107   109   ar
   130   115   117    1
   131   156   154   ar
   132   152   151    1
   133   152   154   ar
   134    18    17    1
   135   157   158    1
   136    15    16    1
   137    15    14    1
   138    17    16    2
   139    17    19    1
   140   165   163   ar
   141   165   167   ar
   142   163   162   ar
   143    14    13    1
   144   168   167    1
   145   167   166   ar
   146   158   161    1
   147   158   159    1
   148   162   161    1
   149   162   164   ar
   150   160   159    2
   151   166   164   ar
   152     5     2    1
   153     5     6    1
   154    13    10    1
   155     8     6   ar
   156     2     1    1
   157     2     3    1
   158     9    10    1
   159     9     3   am
   160     6     7   ar
   161    10    11    1
   162     3     4    2
   163    11    12    2
