@<TRIPOS>MOLECULE
tmp/3obbA00.pdb
 118 114 0 0 0
SMALL
GASTEIGER

@<TRIPOS>ATOM
      1  N         -4.1660   33.1730   45.4970 N.3   115  VAL115     -0.1231
      2  CA        -4.7900   34.3310   46.0250 C.3   115  VAL115      0.1692
      3  C         -3.7150   35.3410   46.4190 C.2   115  VAL115      0.2593
      4  O         -2.5570   34.9710   46.7120 O.2   115  VAL115     -0.2718
      5  CB        -5.7670   33.8470   47.1340 C.3   115  VAL115      0.0266
      6  CG1       -5.1170   33.8140   48.4650 C.3   115  VAL115      0.0020
      7  CG2       -7.0280   34.6370   47.1120 C.3   115  VAL115      0.0020
      8  N         -4.0810   36.6210   46.3710 N.am  116  SER116     -0.1938
      9  CA        -3.1570   37.7020   46.6870 C.3   116  SER116      0.2055
     10  C         -3.9260   38.7280   47.5410 C.2   116  SER116      0.2644
     11  O         -5.1090   38.9750   47.3180 O.2   116  SER116     -0.2714
     12  CB        -2.6320   38.2670   45.3550 C.3   116  SER116      0.2130
     13  OG        -1.9970   39.4990   45.4950 O.3   116  SER116     -0.2179
     14  N         -3.2540   39.3230   48.5140 N.am  117  GLY117     -0.1939
     15  CA        -3.9110   40.0950   49.5320 C.3   117  GLY117      0.2014
     16  C         -3.5240   39.5500   50.9020 C.2   117  GLY117      0.2639
     17  O         -2.8820   38.4890   51.0530 O.2   117  GLY117     -0.2714
     18  N         -3.8980   40.2600   51.9320 N.am  118  GLY118     -0.1939
     19  CA        -3.4300   39.8090   53.2060 C.3   118  GLY118      0.2014
     20  C         -4.3230   38.8190   53.9040 C.2   118  GLY118      0.2640
     21  O         -5.4330   38.5410   53.4770 O.2   118  GLY118     -0.2714
     22  N         -3.8110   38.3260   55.0230 N.am  119  THR119     -0.1936
     23  CA        -4.6240   37.7740   56.0810 C.3   119  THR119      0.2028
     24  C         -5.7990   38.7190   56.2930 C.2   119  THR119      0.2642
     25  O         -6.9090   38.2900   56.6040 O.2   119  THR119     -0.2714
     26  CB        -3.7550   37.6410   57.3390 C.3   119  THR119      0.1808
     27  OG1       -3.8320   36.3120   57.8200 O.3   119  THR119     -0.2208
     28  CG2       -4.1050   38.6770   58.4740 C.3   119  THR119      0.0379
     29  N         -5.5160   40.0110   56.1270 N.am  120  ALA120     -0.1977
     30  CA        -6.4900   41.1140   56.1460 C.3   120  ALA120      0.1597
     31  C         -7.4480   41.0780   54.9410 C.2   120  ALA120      0.2287
     32  O         -8.6440   41.3250   55.0830 O.2   120  ALA120     -0.2864
     33  CB        -5.7270   42.4740   56.1600 C.3   120  ALA120      0.0319
     34  N          0.5990   34.4600   39.5980 N.3   163  LYS163     -0.1245
     35  CA         0.8740   34.6080   41.0340 C.3   163  LYS163      0.1561
     36  C          2.3680   34.6600   41.3420 C.2   163  LYS163      0.2260
     37  O          2.8260   35.5160   42.1020 O.2   163  LYS163     -0.2867
     38  CB         0.2090   33.4720   41.8530 C.3   163  LYS163      0.0271
     39  CG         0.5000   33.5190   43.3780 C.3   163  LYS163      0.0035
     40  CD        -0.0120   34.8150   44.0230 C.3   163  LYS163      0.0206
     41  CE         0.4290   34.9550   45.4800 C.3   163  LYS163      0.1093
     42  NZ        -0.1410   33.8890   46.3800 N.3   163  LYS163     -0.1314
     43  N          4.3510   37.9590   42.6520 N.3   167  ASN167     -0.1240
     44  CA         5.0530   37.9760   43.9340 C.3   167  ASN167      0.1653
     45  C          6.5510   38.1330   43.8220 C.2   167  ASN167      0.2266
     46  O          7.1680   38.7860   44.6800 O.2   167  ASN167     -0.2867
     47  CB         4.6340   36.8230   44.8600 C.3   167  ASN167      0.1155
     48  CG         3.3500   37.1610   45.6140 C.2   167  ASN167      0.2627
     49  OD1        2.5260   37.8880   45.0660 O.2   167  ASN167     -0.2716
     50  ND2        3.2040   36.7080   46.8860 N.am  167  ASN167     -0.0877
     51  N          6.9400   41.7790   43.3240 N.3   170  LEU170     -0.1245
     52  CA         6.7830   42.4210   44.6440 C.3   170  LEU170      0.1561
     53  C          8.0710   42.3830   45.4750 C.2   170  LEU170      0.2260
     54  O          8.4210   43.3690   46.1330 O.2   170  LEU170     -0.2867
     55  CB         5.6780   41.7360   45.4610 C.3   170  LEU170      0.0270
     56  CG         5.5230   42.1190   46.9470 C.3   170  LEU170      0.0019
     57  CD1        5.4050   43.6070   47.1790 C.3   170  LEU170      0.0001
     58  CD2        4.3550   41.3090   47.6810 C.3   170  LEU170      0.0001
     59  N          3.8750   49.7400   44.4830 N.3   203  TRP203     -0.1241
     60  CA         2.9670   49.2560   45.4980 C.3   203  TRP203      0.1605
     61  C          3.5250   49.3850   46.9330 C.2   203  TRP203      0.2264
     62  O          2.8020   49.8090   47.8360 O.2   203  TRP203     -0.2867
     63  CB         2.6380   47.8110   45.2040 C.3   203  TRP203      0.0550
     64  CG         1.5440   47.2350   46.0730 C.ar  203  TRP203      0.0003
     65  CD1        0.1980   47.3170   45.8490 C.ar  203  TRP203      0.0946
     66  CD2        1.7130   46.4380   47.2940 C.ar  203  TRP203      0.0152
     67  NE1       -0.4740   46.5960   46.8300 N.ar  203  TRP203     -0.2442
     68  CE2        0.4270   46.0560   47.7190 C.ar  203  TRP203      0.0810
     69  CE3        2.8340   46.0100   48.0380 C.ar  203  TRP203      0.0012
     70  CZ2        0.2140   45.2660   48.8760 C.ar  203  TRP203      0.0191
     71  CZ3        2.6380   45.2310   49.1770 C.ar  203  TRP203      0.0001
     72  CH2        1.3380   44.8560   49.5790 C.ar  203  TRP203      0.0015
     73  N          2.8220   50.0700   51.7820 N.3   208  TYR208     -0.1241
     74  CA         3.5860   49.1040   52.5750 C.3   208  TYR208      0.1605
     75  C          5.0540   49.5140   52.7220 C.2   208  TYR208      0.2264
     76  O          5.9670   48.7440   52.3800 O.2   208  TYR208     -0.2867
     77  CB         3.5210   47.7670   51.8540 C.3   208  TYR208      0.0534
     78  CG         3.3800   46.5430   52.6940 C.ar  208  TYR208     -0.0201
     79  CD1        2.1690   45.8390   52.7000 C.ar  208  TYR208     -0.0009
     80  CD2        4.4550   46.0390   53.4370 C.ar  208  TYR208     -0.0009
     81  CE1        2.0110   44.7030   53.4290 C.ar  208  TYR208      0.0417
     82  CE2        4.3080   44.8840   54.2020 C.ar  208  TYR208      0.0417
     83  CZ         3.0860   44.2010   54.1690 C.ar  208  TYR208      0.1957
     84  OH         2.9070   43.0310   54.8800 O.3   208  TYR208     -0.2866
     85  N          1.9100   40.7870   59.2640 N.3   226  GLY226     -0.1210
     86  CA         2.0270   40.9560   57.8150 C.3   226  GLY226      0.1956
     87  C          2.2260   39.6510   57.0470 C.2   226  GLY226      0.2611
     88  O          1.4780   38.7140   57.1970 O.2   226  GLY226     -0.2717
     89  N          3.2500   39.5830   56.2220 N.am  227  PHE227     -0.1976
     90  CA         3.4170   38.4460   55.3330 C.3   227  PHE227      0.1639
     91  C          4.8400   37.9480   55.5380 C.2   227  PHE227      0.2290
     92  O          5.7990   38.6340   55.1990 O.2   227  PHE227     -0.2864
     93  CB         3.1460   38.9130   53.8940 C.3   227  PHE227      0.0560
     94  CG         3.4580   37.8810   52.8230 C.ar  227  PHE227     -0.0200
     95  CD1        4.3780   38.1590   51.8410 C.ar  227  PHE227     -0.0042
     96  CD2        2.8090   36.6460   52.7960 C.ar  227  PHE227     -0.0042
     97  CE1        4.6590   37.1950   50.7930 C.ar  227  PHE227     -0.0003
     98  CE2        3.0790   35.7190   51.7830 C.ar  227  PHE227     -0.0003
     99  CZ         4.0250   36.0150   50.7820 C.ar  227  PHE227     -0.0000
    100  N          7.6520   31.6020   47.8380 N.3   233  ASP233     -0.1239
    101  CA         7.0770   32.1280   46.5880 C.3   233  ASP233      0.1674
    102  C          8.1490   32.4050   45.5600 C.2   233  ASP233      0.2266
    103  O          7.9780   32.1240   44.4000 O.2   233  ASP233     -0.2867
    104  CB         6.2900   33.4180   46.8800 C.3   233  ASP233      0.1410
    105  CG         4.8990   33.1370   47.5030 C.2   233  ASP233      0.3668
    106  OD1        4.5370   31.9370   47.6410 O.co2 233  ASP233     -0.2456
    107  OD2        4.1570   34.0890   47.8430 O.co2 233  ASP233     -0.2456
    108  N          7.7680   40.4170   55.5410 N.3   270  PHE270     -0.1241
    109  CA         8.8130   40.4030   54.5160 C.3   270  PHE270      0.1605
    110  C          9.4910   41.7740   54.3310 C.2   270  PHE270      0.2264
    111  O         10.5950   41.8310   53.8270 O.2   270  PHE270     -0.2867
    112  CB         8.2770   39.8500   53.1710 C.3   270  PHE270      0.0534
    113  CG         7.3360   40.7900   52.4490 C.ar  270  PHE270     -0.0203
    114  CD1        6.1240   41.1890   53.0390 C.ar  270  PHE270     -0.0042
    115  CD2        7.6820   41.3170   51.1950 C.ar  270  PHE270     -0.0042
    116  CE1        5.2490   42.0640   52.3670 C.ar  270  PHE270     -0.0003
    117  CE2        6.8250   42.1830   50.5090 C.ar  270  PHE270     -0.0003
    118  CZ         5.6090   42.5650   51.0890 C.ar  270  PHE270     -0.0000
@<TRIPOS>BOND
     1    34    35    1
     2    35    36    1
     3    35    38    1
     4    36    37    2
     5    38    39    1
     6    43    44    1
     7    51    52    1
     8    39    40    1
     9    45    44    1
    10    45    46    2
    11    44    47    1
    12    40    41    1
    13   103   102    2
    14    59    60    1
    15    52    55    1
    16    52    53    1
    17    47    48    1
    18    49    48    2
    19    63    60    1
    20    63    64    1
    21    12    13    1
    22    12     9    1
    23    55    56    1
    24    53    54    2
    25    41    42    1
    26     1     2    1
    27    60    61    1
    28   102   101    1
    29    48    50   am
    30    65    64   ar
    31    65    67   ar
    32     2     3    1
    33     2     5    1
    34    64    66   ar
    35     8     3   am
    36     8     9    1
    37     3     4    2
    38   101   104    1
    39   101   100    1
    40     9    10    1
    41    67    68   ar
    42   104   105    1
    43    61    62    2
    44    56    57    1
    45    56    58    1
    46     7     5    1
    47     5     6    1
    48    66    68   ar
    49    66    69   ar
    50    11    10    2
    51   105   106   ar
    52   105   107   ar
    53    10    14   am
    54    68    70   ar
    55    69    71   ar
    56    14    15    1
    57    70    72   ar
    58    71    72   ar
    59    15    16    1
    60   117   118   ar
    61   117   115   ar
    62    99    97   ar
    63    99    98   ar
    64    97    95   ar
    65    16    17    2
    66    16    18   am
    67   118   116   ar
    68   115   113   ar
    69    73    74    1
    70    98    96   ar
    71    95    94   ar
    72    77    74    1
    73    77    78    1
    74    18    19    1
    75   116   114   ar
    76    76    75    2
    77   113   114   ar
    78   113   112    1
    79    74    75    1
    80    78    79   ar
    81    78    80   ar
    82    79    81   ar
    83    96    94   ar
    84    94    93    1
    85   112   109    1
    86    19    20    1
    87    81    83   ar
    88    80    82   ar
    89    21    20    2
    90   111   110    2
    91    93    90    1
    92    20    22   am
    93    83    82   ar
    94    83    84    1
    95   110   109    1
    96   109   108    1
    97    31    32    2
    98    31    30    1
    99    22    23    1
   100    92    91    2
   101    90    91    1
   102    90    89    1
   103    23    24    1
   104    23    26    1
   105    29    30    1
   106    29    24   am
   107    30    33    1
   108    89    87   am
   109    24    25    2
   110    87    88    2
   111    87    86    1
   112    26    27    1
   113    26    28    1
   114    86    85    1
