@<TRIPOS>MOLECULE
tmp/3obkG00.pdb
 167 159 0 0 0
SMALL
GASTEIGER

@<TRIPOS>ATOM
      1  N        -33.2560  -84.6270   72.9280 N.3    89  PHE89      -0.1241
      2  CA       -32.9780  -83.8250   74.1130 C.3    89  PHE89       0.1605
      3  C        -32.2320  -84.6690   75.1280 C.2    89  PHE89       0.2264
      4  O        -32.6480  -85.7940   75.4070 O.2    89  PHE89      -0.2867
      5  CB       -34.2670  -83.3810   74.7520 C.3    89  PHE89       0.0534
      6  CG       -35.0490  -82.4080   73.9360 C.ar   89  PHE89      -0.0203
      7  CD1      -34.6140  -81.0990   73.7890 C.ar   89  PHE89      -0.0042
      8  CD2      -36.2510  -82.7830   73.3540 C.ar   89  PHE89      -0.0042
      9  CE1      -35.3390  -80.1900   73.0810 C.ar   89  PHE89      -0.0003
     10  CE2      -36.9840  -81.8640   72.6370 C.ar   89  PHE89      -0.0003
     11  CZ       -36.5220  -80.5660   72.4990 C.ar   89  PHE89      -0.0000
     12  N        -30.9720  -79.8680   69.7040 N.3   130  ASP130     -0.1239
     13  CA       -31.3180  -78.5890   70.3040 C.3   130  ASP130      0.1674
     14  C        -30.0490  -77.8570   70.6670 C.2   130  ASP130      0.2266
     15  O        -29.0840  -78.4740   71.1240 O.2   130  ASP130     -0.2867
     16  CB       -32.1960  -78.7640   71.5500 C.3   130  ASP130      0.1410
     17  CG       -32.6450  -77.4220   72.1350 C.2   130  ASP130      0.3668
     18  OD1      -33.6760  -76.8800   71.6620 O.co2 130  ASP130     -0.2456
     19  OD2      -31.9640  -76.9110   73.0620 O.co2 130  ASP130     -0.2456
     20  N        -29.6560  -74.7290   78.6630 N.3   134  ASP134     -0.1225
     21  CA       -30.4460  -75.0940   79.8360 C.3   134  ASP134      0.1790
     22  C        -30.3690  -76.5760   80.2420 C.2   134  ASP134      0.2439
     23  O        -30.4430  -76.8830   81.4190 O.2   134  ASP134     -0.2733
     24  CB       -31.8990  -74.5650   79.7750 C.3   134  ASP134      0.1423
     25  CG       -32.5470  -74.7080   78.4030 C.2   134  ASP134      0.3668
     26  OD1      -31.9530  -74.3040   77.3730 O.co2 134  ASP134     -0.2456
     27  OD2      -33.6900  -75.1940   78.3710 O.co2 134  ASP134     -0.2456
     28  N        -30.1690  -77.5040   79.2890 N.am  135  PRO135     -0.2729
     29  CA       -29.9100  -78.8920   79.7390 C.3   135  PRO135      0.1401
     30  C        -28.5870  -79.0810   80.4820 C.2   135  PRO135      0.2269
     31  O        -28.4080  -80.0920   81.1870 O.2   135  PRO135     -0.2865
     32  CB       -29.8640  -79.6960   78.4280 C.3   135  PRO135      0.0296
     33  CG       -30.6580  -78.9010   77.4380 C.3   135  PRO135      0.0237
     34  CD       -30.4220  -77.4320   77.8330 C.3   135  PRO135      0.0939
     35  N        -30.9430  -70.8400   79.6460 N.3   142  ASP142     -0.1239
     36  CA       -30.5080  -71.1590   78.2830 C.3   142  ASP142      0.1674
     37  C        -29.1570  -70.5340   77.9360 C.2   142  ASP142      0.2266
     38  O        -28.4900  -70.9730   76.9950 O.2   142  ASP142     -0.2867
     39  CB       -31.5190  -70.6730   77.2510 C.3   142  ASP142      0.1410
     40  CG       -32.8700  -71.2890   77.4110 C.2   142  ASP142      0.3668
     41  OD1      -33.3820  -71.4000   78.5440 O.co2 142  ASP142     -0.2456
     42  OD2      -33.4480  -71.6080   76.3670 O.co2 142  ASP142     -0.2456
     43  N        -32.5460  -72.6840   70.5150 N.3   179  SER179     -0.1217
     44  CA       -33.8300  -72.5160   71.2250 C.3   179  SER179      0.1889
     45  C        -33.6800  -71.5660   72.4150 C.2   179  SER179      0.2288
     46  O        -34.5020  -71.5500   73.3390 O.2   179  SER179     -0.2866
     47  CB       -34.3600  -73.8770   71.6790 C.3   179  SER179      0.2089
     48  OG       -33.5880  -74.4010   72.7370 O.3   179  SER179     -0.2183
     49  N        -35.4730  -70.9620   66.2710 N.3   206  TYR206     -0.1241
     50  CA       -36.6060  -70.7430   67.1570 C.3   206  TYR206      0.1605
     51  C        -36.7880  -69.2490   67.2010 C.2   206  TYR206      0.2264
     52  O        -36.2310  -68.5390   68.0510 O.2   206  TYR206     -0.2867
     53  CB       -36.3650  -71.2690   68.5510 C.3   206  TYR206      0.0534
     54  CG       -36.5960  -72.7490   68.7170 C.ar  206  TYR206     -0.0201
     55  CD1      -35.6870  -73.6620   68.2390 C.ar  206  TYR206     -0.0009
     56  CD2      -37.7010  -73.2330   69.3950 C.ar  206  TYR206     -0.0009
     57  CE1      -35.8810  -75.0130   68.3960 C.ar  206  TYR206      0.0417
     58  CE2      -37.8940  -74.5810   69.5690 C.ar  206  TYR206      0.0417
     59  CZ       -36.9830  -75.4620   69.0610 C.ar  206  TYR206      0.1957
     60  OH       -37.1260  -76.8110   69.2190 O.3   206  TYR206     -0.2866
     61  N        -40.3070  -67.6440   70.1550 N.3   209  LYS209     -0.1245
     62  CA       -40.4390  -68.5400   71.2940 C.3   209  LYS209      0.1561
     63  C        -40.8200  -67.6970   72.4750 C.2   209  LYS209      0.2260
     64  O        -40.0950  -66.7740   72.8140 O.2   209  LYS209     -0.2867
     65  CB       -39.1410  -69.2840   71.5660 C.3   209  LYS209      0.0271
     66  CG       -39.1940  -70.1780   72.8180 C.3   209  LYS209      0.0035
     67  CD       -37.9130  -70.9790   73.0030 C.3   209  LYS209      0.0206
     68  CE       -37.9720  -71.8070   74.2550 C.3   209  LYS209      0.1093
     69  NZ       -36.8990  -72.8740   74.4050 N.3   209  LYS209     -0.1314
     70  N        -44.2320  -74.9510   79.5450 N.3   215  TYR215     -0.1241
     71  CA       -42.9860  -75.7560   79.4430 C.3   215  TYR215      0.1605
     72  C        -42.6750  -76.6140   80.6780 C.2   215  TYR215      0.2264
     73  O        -41.6510  -77.3200   80.7280 O.2   215  TYR215     -0.2867
     74  CB       -41.7590  -74.8810   79.1820 C.3   215  TYR215      0.0534
     75  CG       -41.8500  -73.9330   78.0160 C.ar  215  TYR215     -0.0201
     76  CD1      -42.4090  -74.3230   76.8130 C.ar  215  TYR215     -0.0009
     77  CD2      -41.3290  -72.6400   78.1120 C.ar  215  TYR215     -0.0009
     78  CE1      -42.4550  -73.4580   75.7490 C.ar  215  TYR215      0.0417
     79  CE2      -41.3610  -71.7820   77.0650 C.ar  215  TYR215      0.0417
     80  CZ       -41.9260  -72.1810   75.8710 C.ar  215  TYR215      0.1957
     81  OH       -41.9730  -71.3000   74.7940 O.3   215  TYR215     -0.2866
     82  N        -41.5750  -80.4880   80.3740 N.3   218  PHE218     -0.1227
     83  CA       -40.2780  -80.6620   79.7060 C.3   218  PHE218      0.1736
     84  C        -39.1880  -80.4580   80.7310 C.2   218  PHE218      0.2595
     85  O        -38.2310  -81.2060   80.7870 O.2   218  PHE218     -0.2718
     86  CB       -40.1400  -79.6420   78.5590 C.3   218  PHE218      0.0547
     87  CG       -38.7780  -79.6060   77.9100 C.ar  218  PHE218     -0.0202
     88  CD1      -37.7910  -78.7430   78.3760 C.ar  218  PHE218     -0.0042
     89  CD2      -38.4960  -80.4150   76.8100 C.ar  218  PHE218     -0.0042
     90  CE1      -36.5390  -78.7020   77.7740 C.ar  218  PHE218     -0.0003
     91  CE2      -37.2540  -80.3740   76.1910 C.ar  218  PHE218     -0.0003
     92  CZ       -36.2710  -79.5240   76.6660 C.ar  218  PHE218     -0.0000
     93  N        -39.3530  -79.4380   81.5620 N.am  219  ARG219     -0.1980
     94  CA       -38.3400  -79.1140   82.5460 C.3   219  ARG219      0.1597
     95  C        -38.2560  -80.1830   83.6230 C.2   219  ARG219      0.2287
     96  O        -37.2050  -80.3430   84.2520 O.2   219  ARG219     -0.2864
     97  CB       -38.6220  -77.7520   83.1440 C.3   219  ARG219      0.0334
     98  CG       -38.4570  -76.6340   82.1390 C.3   219  ARG219      0.0492
     99  CD       -38.8080  -75.3230   82.7790 C.3   219  ARG219      0.2205
    100  NE       -38.5920  -74.2040   81.8770 N.pl3 219  ARG219     -0.0865
    101  CZ       -39.2960  -73.0720   81.8990 C.cat 219  ARG219      0.5346
    102  NH1      -40.2890  -72.8800   82.7620 N.pl3 219  ARG219      0.1354
    103  NH2      -39.0220  -72.1170   81.0330 N.pl3 219  ARG219      0.1354
    104  N        -37.4120  -66.6200   82.5280 N.3   232  LYS232     -0.1245
    105  CA       -36.7800  -66.4210   81.2210 C.3   232  LYS232      0.1561
    106  C        -37.3100  -65.1760   80.4770 C.2   232  LYS232      0.2260
    107  O        -37.0910  -65.0090   79.2890 O.2   232  LYS232     -0.2867
    108  CB       -36.9030  -67.7030   80.3830 C.3   232  LYS232      0.0271
    109  CG       -36.3600  -68.9380   81.1010 C.3   232  LYS232      0.0035
    110  CD       -36.2690  -70.1360   80.1700 C.3   232  LYS232      0.0206
    111  CE       -35.7590  -71.4280   80.8610 C.3   232  LYS232      0.1093
    112  NZ       -35.5430  -72.5930   79.9180 N.3   232  LYS232     -0.1314
    113  N        -37.0100  -64.9510   76.4560 N.3   236  GLN236     -0.1245
    114  CA       -38.2210  -65.4480   75.8270 C.3   236  GLN236      0.1566
    115  C        -39.2580  -64.3270   75.7830 C.2   236  GLN236      0.2260
    116  O        -39.2280  -63.4300   76.5910 O.2   236  GLN236     -0.2867
    117  CB       -38.7330  -66.6770   76.5550 C.3   236  GLN236      0.0367
    118  CG       -37.7450  -67.8420   76.5900 C.3   236  GLN236      0.0905
    119  CD       -38.3060  -69.0570   77.3320 C.2   236  GLN236      0.2608
    120  OE1      -39.2310  -68.9370   78.1560 O.2   236  GLN236     -0.2717
    121  NE2      -37.7240  -70.2360   77.0670 N.am  236  GLN236     -0.0878
    122  N        -43.3060  -71.1760   68.9870 N.3   263  LYS263     -0.1245
    123  CA       -43.4260  -72.0200   70.1680 C.3   263  LYS263      0.1561
    124  C        -43.8340  -71.1960   71.4060 C.2   263  LYS263      0.2260
    125  O        -43.3070  -70.1010   71.6180 O.2   263  LYS263     -0.2867
    126  CB       -42.0730  -72.6190   70.4150 C.3   263  LYS263      0.0271
    127  CG       -41.9450  -73.5260   71.6130 C.3   263  LYS263      0.0035
    128  CD       -40.4670  -73.5960   71.9410 C.3   263  LYS263      0.0206
    129  CE       -40.0440  -74.8330   72.6470 C.3   263  LYS263      0.1093
    130  NZ       -38.6140  -74.6070   73.0580 N.3   263  LYS263     -0.1314
    131  N        -44.3830  -75.9080   67.5470 N.3   286  TYR286     -0.1241
    132  CA       -44.1070  -76.8830   68.6020 C.3   286  TYR286      0.1605
    133  C        -45.3010  -76.9870   69.5360 C.2   286  TYR286      0.2264
    134  O        -45.7590  -76.0080   70.1030 O.2   286  TYR286     -0.2867
    135  CB       -42.8870  -76.4640   69.3830 C.3   286  TYR286      0.0534
    136  CG       -42.1250  -77.5720   70.0580 C.ar  286  TYR286     -0.0201
    137  CD1      -42.7570  -78.4600   70.9350 C.ar  286  TYR286     -0.0009
    138  CD2      -40.7380  -77.6940   69.8840 C.ar  286  TYR286     -0.0009
    139  CE1      -42.0400  -79.4430   71.5990 C.ar  286  TYR286      0.0417
    140  CE2      -40.0110  -78.6970   70.5330 C.ar  286  TYR286      0.0417
    141  CZ       -40.6720  -79.5670   71.4010 C.ar  286  TYR286      0.1957
    142  OH       -39.9630  -80.5590   72.0610 O.3   286  TYR286     -0.2866
    143  N        -46.1190  -78.1360   72.7280 N.3   288  VAL288     -0.1231
    144  CA       -45.1730  -78.3640   73.8200 C.3   288  VAL288      0.1692
    145  C        -45.7170  -79.2730   74.9160 C.2   288  VAL288      0.2592
    146  O        -46.9000  -79.6450   74.9220 O.2   288  VAL288     -0.2718
    147  CB       -44.6580  -77.0210   74.4070 C.3   288  VAL288      0.0266
    148  CG1      -44.0420  -76.1660   73.3020 C.3   288  VAL288      0.0020
    149  CG2      -45.7800  -76.2770   75.1420 C.3   288  VAL288      0.0020
    150  N        -44.8220  -79.6390   75.8300 N.am  289  SER289     -0.1952
    151  CA       -45.0950  -80.6150   76.8710 C.3   289  SER289      0.1924
    152  C        -46.3760  -80.3700   77.6830 C.2   289  SER289      0.2314
    153  O        -47.1660  -81.2800   77.9130 O.2   289  SER289     -0.2863
    154  CB       -43.8890  -80.6990   77.7950 C.3   289  SER289      0.2116
    155  OG       -43.6000  -79.4480   78.3720 O.3   289  SER289     -0.2180
    156  N        -45.2940  -84.5180   70.8320 N.3   328  TYR328     -0.1241
    157  CA       -45.0200  -85.7720   71.4890 C.3   328  TYR328      0.1605
    158  C        -46.0750  -86.8130   71.0820 C.2   328  TYR328      0.2264
    159  O        -45.9020  -87.9890   71.3330 O.2   328  TYR328     -0.2867
    160  CB       -44.9350  -85.5650   73.0060 C.3   328  TYR328      0.0534
    161  CG       -43.8900  -84.5220   73.3890 C.ar  328  TYR328     -0.0201
    162  CD1      -42.5450  -84.8450   73.4590 C.ar  328  TYR328     -0.0009
    163  CD2      -44.2500  -83.2140   73.6550 C.ar  328  TYR328     -0.0009
    164  CE1      -41.6130  -83.9060   73.7880 C.ar  328  TYR328      0.0417
    165  CE2      -43.3260  -82.2740   73.9720 C.ar  328  TYR328      0.0417
    166  CZ       -42.0120  -82.6130   74.0410 C.ar  328  TYR328      0.1957
    167  OH       -41.0780  -81.6540   74.3620 O.3   328  TYR328     -0.2866
@<TRIPOS>BOND
     1    49    50    1
     2    50    51    1
     3    50    53    1
     4    51    52    2
     5   131   132    1
     6    55    57   ar
     7    55    54   ar
     8    57    59   ar
     9    53    54    1
    10   132   135    1
    11   132   133    1
    12    54    56   ar
    13   122   123    1
    14    59    60    1
    15    59    58   ar
    16   135   136    1
    17    56    58   ar
    18   133   134    2
    19    12    13    1
    20   138   136   ar
    21   138   140   ar
    22   136   137   ar
    23    61    62    1
    24   123   126    1
    25   123   124    1
    26    13    14    1
    27    13    16    1
    28   126   127    1
    29    43    44    1
    30   140   141   ar
    31    14    15    2
    32   156   157    1
    33   137   139   ar
    34   158   159    2
    35   158   157    1
    36    44    47    1
    37    44    45    1
    38    62    65    1
    39    62    63    1
    40   141   139   ar
    41   141   142    1
    42   124   125    2
    43   157   160    1
    44    16    17    1
    45    65    66    1
    46   127   128    1
    47    18    17   ar
    48    47    48    1
    49   128   129    1
    50    17    19   ar
    51    45    46    2
    52    63    64    2
    53    11    10   ar
    54    11     9   ar
    55    10     8   ar
    56   129   130    1
    57   143   144    1
    58    66    67    1
    59     1     2    1
    60    67    68    1
    61   160   161    1
    62     9     7   ar
    63   148   147    1
    64     8     6   ar
    65   161   162   ar
    66   161   163   ar
    67   162   164   ar
    68   163   165   ar
    69   164   166   ar
    70     7     6   ar
    71   144   147    1
    72   144   145    1
    73     6     5    1
    74   165   166   ar
    75   166   167    1
    76     2     5    1
    77     2     3    1
    78    68    69    1
    79   147   149    1
    80    81    80    1
    81   145   146    2
    82   145   150   am
    83     3     4    2
    84    78    80   ar
    85    78    76   ar
    86   115   114    1
    87   115   116    2
    88   114   113    1
    89   114   117    1
    90   150   151    1
    91    80    79   ar
    92    91    92   ar
    93    91    89   ar
    94    42    40   ar
    95   117   118    1
    96   118   119    1
    97    92    90   ar
    98    89    87   ar
    99    76    75   ar
   100   151   152    1
   101   151   154    1
   102    38    37    2
   103    79    77   ar
   104   121   119   am
   105    39    40    1
   106    39    36    1
   107   119   120    2
   108    26    25   ar
   109    40    41   ar
   110    33    34    1
   111    33    32    1
   112   152   153    2
   113    90    88   ar
   114   154   155    1
   115    34    28    1
   116    87    88   ar
   117    87    86    1
   118    37    36    1
   119    75    77   ar
   120    75    74    1
   121    36    35    1
   122    27    25   ar
   123    25    24    1
   124    32    29    1
   125    86    83    1
   126    20    21    1
   127    74    71    1
   128    28    29    1
   129    28    22   am
   130   107   106    2
   131    71    70    1
   132    71    72    1
   133    83    82    1
   134    83    84    1
   135    29    30    1
   136    24    21    1
   137    21    22    1
   138   112   111    1
   139   110   111    1
   140   110   109    1
   141    22    23    2
   142   108   109    1
   143   108   105    1
   144   106   105    1
   145    30    31    2
   146    72    73    2
   147    84    85    2
   148    84    93   am
   149   103   101    1
   150   105   104    1
   151    93    94    1
   152   100   101    2
   153   100    99    1
   154   101   102    1
   155    98    99    1
   156    98    97    1
   157    94    97    1
   158    94    95    1
   159    95    96    2
