@<TRIPOS>MOLECULE
tmp/3obqA00.pdb
 128 125 0 0 0
SMALL
GASTEIGER

@<TRIPOS>ATOM
      1  N        -10.5010    2.0630   -1.3100 N.3    33  ASP33      -0.1239
      2  CA        -9.0580    2.2480   -1.2460 C.3    33  ASP33       0.1674
      3  C         -8.4660    3.0000   -2.4290 C.2    33  ASP33       0.2266
      4  O         -7.2620    2.9420   -2.6640 O.2    33  ASP33      -0.2867
      5  CB        -8.3310    0.9150   -1.0540 C.3    33  ASP33       0.1410
      6  CG        -6.8970    1.1070   -0.5760 C.2    33  ASP33       0.3668
      7  OD1       -6.6930    1.8460    0.4120 O.co2  33  ASP33      -0.2456
      8  OD2       -5.9720    0.5270   -1.1800 O.co2  33  ASP33      -0.2456
      9  N         -5.6890    0.8280   -4.2810 N.3    54  THR54      -0.1218
     10  CA        -5.8120   -0.5610   -4.7100 C.3    54  THR54       0.1862
     11  C         -7.2580   -0.9170   -4.9950 C.2    54  THR54       0.2287
     12  O         -8.1790   -0.2350   -4.5460 O.2    54  THR54      -0.2866
     13  CB        -5.3060   -1.5520   -3.6290 C.3    54  THR54       0.1770
     14  OG1       -6.1420   -1.4610   -2.4670 O.3    54  THR54      -0.2211
     15  CG2       -3.8690   -1.2530   -3.2480 C.3    54  THR54       0.0375
     16  N         -8.4500  -13.8290   -6.9780 N.3    59  TYR59      -0.1241
     17  CA        -7.6030  -14.6850   -7.7940 C.3    59  TYR59       0.1605
     18  C         -7.5930  -16.0620   -7.1460 C.2    59  TYR59       0.2264
     19  O         -6.9770  -16.2580   -6.1000 O.2    59  TYR59      -0.2867
     20  CB        -6.1800  -14.1250   -7.8540 C.3    59  TYR59       0.0534
     21  CG        -5.2030  -15.0100   -8.5950 C.ar   59  TYR59      -0.0201
     22  CD1       -5.3440  -15.2500   -9.9620 C.ar   59  TYR59      -0.0009
     23  CD2       -4.1400  -15.6150   -7.9260 C.ar   59  TYR59      -0.0009
     24  CE1       -4.4490  -16.0720  -10.6440 C.ar   59  TYR59       0.0417
     25  CE2       -3.2400  -16.4380   -8.5980 C.ar   59  TYR59       0.0417
     26  CZ        -3.4000  -16.6620   -9.9560 C.ar   59  TYR59       0.1957
     27  OH        -2.5110  -17.4730  -10.6230 O.3    59  TYR59      -0.2866
     28  N         -8.7080  -12.8030   -2.3910 N.3    63  THR63      -0.1203
     29  CA        -8.7030  -11.4110   -2.8240 C.3    63  THR63       0.1994
     30  C         -7.3730  -10.7100   -2.5800 C.2    63  THR63       0.2618
     31  O         -6.8300  -10.7440   -1.4750 O.2    63  THR63      -0.2717
     32  CB        -9.8190  -10.6060   -2.1210 C.3    63  THR63       0.1784
     33  OG1      -11.0950  -11.1480   -2.4770 O.3    63  THR63      -0.2211
     34  CG2       -9.7680   -9.1410   -2.5390 C.3    63  THR63       0.0376
     35  N         -6.8560  -10.0730   -3.6270 N.am   64  TYR64      -0.1961
     36  CA        -5.6010   -9.3410   -3.5390 C.3    64  TYR64       0.1771
     37  C         -5.8690   -7.8690   -3.8270 C.2    64  TYR64       0.2620
     38  O         -6.7280   -7.5330   -4.6430 O.2    64  TYR64      -0.2715
     39  CB        -4.5800   -9.8940   -4.5370 C.3    64  TYR64       0.0574
     40  CG        -4.2680  -11.3530   -4.3060 C.ar   64  TYR64      -0.0198
     41  CD1       -5.1490  -12.3470   -4.7290 C.ar   64  TYR64      -0.0009
     42  CD2       -3.1240  -11.7360   -3.6090 C.ar   64  TYR64      -0.0009
     43  CE1       -4.9020  -13.6890   -4.4610 C.ar   64  TYR64       0.0417
     44  CE2       -2.8670  -13.0760   -3.3330 C.ar   64  TYR64       0.0417
     45  CZ        -3.7620  -14.0430   -3.7610 C.ar   64  TYR64       0.1957
     46  OH        -3.5280  -15.3670   -3.4720 O.3    64  TYR64      -0.2866
     47  N         -5.1410   -6.9960   -3.1390 N.am   65  ASN65      -0.1958
     48  CA        -5.3070   -5.5600   -3.3170 C.3    65  ASN65       0.1819
     49  C         -4.2800   -5.0580   -4.3140 C.2    65  ASN65       0.2621
     50  O         -3.1800   -4.6540   -3.9490 O.2    65  ASN65      -0.2715
     51  CB        -5.1440   -4.8560   -1.9740 C.3    65  ASN65       0.1195
     52  CG        -6.0920   -5.3950   -0.9330 C.2    65  ASN65       0.2630
     53  OD1       -7.3020   -5.4380   -1.1500 O.2    65  ASN65      -0.2716
     54  ND2       -5.5510   -5.8190    0.2050 N.am   65  ASN65      -0.0877
     55  N         -4.6600   -5.0950   -5.5860 N.am   66  ILE66      -0.1964
     56  CA        -3.7920   -4.6730   -6.6720 C.3    66  ILE66       0.1712
     57  C         -3.6390   -3.1550   -6.7170 C.2    66  ILE66       0.2458
     58  O         -4.6220   -2.4210   -6.8290 O.2    66  ILE66      -0.2730
     59  CB        -4.3420   -5.1760   -8.0200 C.3    66  ILE66       0.0289
     60  CG1       -4.5120   -6.6980   -7.9750 C.3    66  ILE66       0.0022
     61  CG2       -3.4140   -4.7690   -9.1500 C.3    66  ILE66       0.0023
     62  CD1       -3.2280   -7.4700   -7.7200 C.3    66  ILE66       0.0001
     63  N         -2.3930   -2.6660   -6.6230 N.am   67  PRO67      -0.2727
     64  CA        -2.1140   -1.2280   -6.6520 C.3    67  PRO67       0.1402
     65  C         -2.1730   -0.6360   -8.0580 C.2    67  PRO67       0.2269
     66  O         -1.4730   -1.0940   -8.9640 O.2    67  PRO67      -0.2865
     67  CB        -0.7180   -1.1410   -6.0370 C.3    67  PRO67       0.0296
     68  CG        -0.0750   -2.4010   -6.5200 C.3    67  PRO67       0.0237
     69  CD        -1.1660   -3.4340   -6.3330 C.3    67  PRO67       0.0939
     70  N          4.6490   -2.2990   -5.4200 N.3    88  THR88      -0.1218
     71  CA         5.3090   -1.8480   -4.2060 C.3    88  THR88       0.1862
     72  C          6.6550   -2.5640   -4.1720 C.2    88  THR88       0.2287
     73  O          7.0080   -3.2720   -5.1170 O.2    88  THR88      -0.2866
     74  CB         4.4970   -2.2170   -2.9500 C.3    88  THR88       0.1770
     75  OG1        4.3170   -3.6380   -2.8920 O.3    88  THR88      -0.2211
     76  CG2        3.1320   -1.5390   -2.9800 C.3    88  THR88       0.0375
     77  N          7.4510   -5.0640   -2.5440 N.3    90  SER90      -0.1202
     78  CA         7.2860   -6.5030   -2.3610 C.3    90  SER90       0.2020
     79  C          6.7640   -7.2450   -3.5870 C.2    90  SER90       0.2618
     80  O          6.4800   -8.4420   -3.5140 O.2    90  SER90      -0.2717
     81  CB         6.3470   -6.7730   -1.1840 C.3    90  SER90       0.2103
     82  OG         5.0430   -6.2880   -1.4570 O.3    90  SER90      -0.2182
     83  N          6.6430   -6.5480   -4.7130 N.am   91  MET91      -0.1979
     84  CA         6.1320   -7.1810   -5.9240 C.3    91  MET91       0.1605
     85  C          6.8260   -6.7310   -7.2060 C.2    91  MET91       0.2287
     86  O          7.6180   -5.7870   -7.2040 O.2    91  MET91      -0.2864
     87  CB         4.6230   -6.9340   -6.0300 C.3    91  MET91       0.0413
     88  CG         4.2120   -5.4910   -5.7860 C.3    91  MET91       0.0598
     89  SD         2.4220   -5.2520   -5.7870 S.3    91  MET91      -0.1393
     90  CE         2.0220   -5.5360   -4.0670 C.3    91  MET91       0.0692
     91  N         -3.0980  -11.9260  -13.2030 N.3   135  PRO135     -0.2116
     92  CA        -2.5950  -10.8650  -12.3230 C.3   135  PRO135      0.1372
     93  C         -1.4980  -10.0460  -13.0050 C.2   135  PRO135      0.2244
     94  O         -0.6160  -10.6030  -13.6580 O.2   135  PRO135     -0.2868
     95  CB        -2.0740  -11.6410  -11.1170 C.3   135  PRO135      0.0268
     96  CG        -3.0010  -12.8150  -11.0590 C.3   135  PRO135      0.0207
     97  CD        -3.0900  -13.2270  -12.5100 C.3   135  PRO135      0.0892
     98  N          0.6610   -8.1710  -11.4150 N.3   137  VAL137     -0.1231
     99  CA         1.7920   -8.1150  -10.5010 C.3   137  VAL137      0.1692
    100  C          1.8310   -9.3850   -9.6650 C.2   137  VAL137      0.2592
    101  O          0.8000  -10.0140   -9.4300 O.2   137  VAL137     -0.2718
    102  CB         1.7120   -6.9080   -9.5400 C.3   137  VAL137      0.0266
    103  CG1        2.0940   -5.6370  -10.2710 C.3   137  VAL137      0.0020
    104  CG2        0.3160   -6.7970   -8.9570 C.3   137  VAL137      0.0020
    105  N          3.0310   -9.7550   -9.2350 N.am  138  PHE138     -0.1962
    106  CA         3.2370  -10.9430   -8.4140 C.3   138  PHE138      0.1771
    107  C          4.2360  -10.6190   -7.3140 C.2   138  PHE138      0.2620
    108  O          5.1020   -9.7620   -7.4850 O.2   138  PHE138     -0.2715
    109  CB         3.7710  -12.0970   -9.2710 C.3   138  PHE138      0.0574
    110  CG         2.7240  -12.7510  -10.1300 C.ar  138  PHE138     -0.0200
    111  CD1        1.8080  -13.6390   -9.5760 C.ar  138  PHE138     -0.0042
    112  CD2        2.6460  -12.4710  -11.4900 C.ar  138  PHE138     -0.0042
    113  CE1        0.8280  -14.2420  -10.3650 C.ar  138  PHE138     -0.0003
    114  CE2        1.6700  -13.0660  -12.2880 C.ar  138  PHE138     -0.0003
    115  CZ         0.7580  -13.9540  -11.7250 C.ar  138  PHE138     -0.0000
    116  N          4.1060  -11.3010   -6.1810 N.am  139  SER139     -0.1950
    117  CA         5.0110  -11.0870   -5.0590 C.3   139  SER139      0.1924
    118  C          6.3860  -11.6500   -5.3920 C.2   139  SER139      0.2314
    119  O          6.5060  -12.5910   -6.1750 O.2   139  SER139     -0.2863
    120  CB         4.4690  -11.7690   -3.8000 C.3   139  SER139      0.2116
    121  OG         3.2360  -11.1980   -3.4010 O.3   139  SER139     -0.2180
    122  N          9.3690  -13.8870   -5.2080 N.3   141  PRO141     -0.2116
    123  CA         9.6020  -15.2460   -4.7090 C.3   141  PRO141      0.1372
    124  C         10.8370  -15.3440   -3.8150 C.2   141  PRO141      0.2244
    125  O         11.4980  -14.3040   -3.6080 O.2   141  PRO141     -0.2868
    126  CB         9.7470  -16.0580   -5.9920 C.3   141  PRO141      0.0268
    127  CG        10.3990  -15.0820   -6.9180 C.3   141  PRO141      0.0207
    128  CD         9.6070  -13.8180   -6.6610 C.3   141  PRO141      0.0892
@<TRIPOS>BOND
     1    94    93    2
     2    91    97    1
     3    91    92    1
     4    93    92    1
     5    97    96    1
     6    92    95    1
     7   114   115   ar
     8   114   112   ar
     9   115   113   ar
    10   112   110   ar
    11    98    99    1
    12    95    96    1
    13    24    22   ar
    14    24    26   ar
    15    27    26    1
    16    99   100    1
    17    99   102    1
    18   113   111   ar
    19   103   102    1
    20   110   111   ar
    21   110   109    1
    22    22    21   ar
    23    26    25   ar
    24   100   101    2
    25   100   105   am
    26   102   104    1
    27   109   106    1
    28   105   106    1
    29    61    59    1
    30    66    65    2
    31    25    23   ar
    32    21    23   ar
    33    21    20    1
    34   106   107    1
    35    65    64    1
    36    59    60    1
    37    59    56    1
    38    60    62    1
    39    20    17    1
    40    17    18    1
    41    17    16    1
    42   108   107    2
    43   107   116   am
    44    85    86    2
    45    85    84    1
    46    18    19    2
    47   127   128    1
    48   127   126    1
    49    58    57    2
    50    57    56    1
    51    57    63   am
    52    56    55    1
    53   128   122    1
    54    64    63    1
    55    64    67    1
    56    63    69    1
    57    68    69    1
    58    68    67    1
    59   116   117    1
    60   119   118    2
    61    87    84    1
    62    87    88    1
    63   126   123    1
    64    84    83    1
    65    89    88    1
    66    89    90    1
    67    55    49   am
    68    70    71    1
    69   118   117    1
    70   122   123    1
    71    73    72    2
    72   117   120    1
    73    11    10    1
    74    11    12    2
    75    41    43   ar
    76    41    40   ar
    77    83    79   am
    78    10     9    1
    79    10    13    1
    80   123   124    1
    81    38    37    2
    82    39    40    1
    83    39    36    1
    84    43    45   ar
    85    49    50    2
    86    49    48    1
    87    40    42   ar
    88    71    72    1
    89    71    74    1
    90    37    36    1
    91    37    47   am
    92   124   125    2
    93   120   121    1
    94    45    46    1
    95    45    44   ar
    96    13    15    1
    97    13    14    1
    98    35    36    1
    99    35    30   am
   100    42    44   ar
   101    79    80    2
   102    79    78    1
   103    48    47    1
   104    48    51    1
   105    76    74    1
   106    74    75    1
   107    29    30    1
   108    29    28    1
   109    29    32    1
   110     4     3    2
   111    30    31    2
   112    77    78    1
   113    34    32    1
   114    33    32    1
   115     3     2    1
   116    78    81    1
   117    51    52    1
   118    82    81    1
   119     1     2    1
   120     2     5    1
   121     8     6   ar
   122    53    52    2
   123     5     6    1
   124    52    54   am
   125     6     7   ar
