@<TRIPOS>MOLECULE
tmp/3obtA00.pdb
 82 79 0 0 0
SMALL
GASTEIGER

@<TRIPOS>ATOM
      1  N         44.1700   45.5510  -27.8290 N.3   254  SER254     -0.1202
      2  CA        43.7710   46.2360  -29.0650 C.3   254  SER254      0.2020
      3  C         42.2780   46.5910  -28.9450 C.2   254  SER254      0.2619
      4  O         41.5120   46.3970  -29.8550 O.2   254  SER254     -0.2717
      5  CB        44.0280   45.3560  -30.3110 C.3   254  SER254      0.2103
      6  OG        45.4280   45.2600  -30.4610 O.3   254  SER254     -0.2182
      7  N         41.9030   47.0840  -27.7900 N.am  255  ASN255     -0.1960
      8  CA        40.5320   47.5330  -27.5570 C.3   255  ASN255      0.1819
      9  C         39.4700   46.4640  -27.7520 C.2   255  ASN255      0.2621
     10  O         38.2970   46.7380  -28.1510 O.2   255  ASN255     -0.2715
     11  CB        40.1510   48.8330  -28.3410 C.3   255  ASN255      0.1195
     12  CG        38.8940   49.4940  -27.7590 C.2   255  ASN255      0.2630
     13  OD1       38.6660   49.4170  -26.5620 O.2   255  ASN255     -0.2716
     14  ND2       38.0700   50.1180  -28.6140 N.am  255  ASN255     -0.0877
     15  N         39.8240   45.2540  -27.3790 N.am  256  VAL256     -0.1977
     16  CA        38.8670   44.1710  -27.3090 C.3   256  VAL256      0.1596
     17  C         39.0970   43.5930  -25.8950 C.2   256  VAL256      0.2287
     18  O         40.2740   43.2500  -25.5440 O.2   256  VAL256     -0.2864
     19  CB        39.1140   43.0350  -28.3930 C.3   256  VAL256      0.0276
     20  CG1       38.2080   41.8000  -28.1120 C.3   256  VAL256      0.0022
     21  CG2       38.8840   43.5220  -29.8460 C.3   256  VAL256      0.0022
     22  N         29.9930   45.6060  -28.3730 N.3   310  ASP310     -0.1225
     23  CA        30.3890   45.8660  -29.7480 C.3   310  ASP310      0.1805
     24  C         29.1490   46.1730  -30.5720 C.2   310  ASP310      0.2598
     25  O         28.0660   45.6570  -30.2930 O.2   310  ASP310     -0.2718
     26  CB        31.1310   44.6650  -30.3340 C.3   310  ASP310      0.1424
     27  CG        32.6230   44.7180  -30.0740 C.2   310  ASP310      0.3668
     28  OD1       33.0540   45.5560  -29.2540 O.co2 310  ASP310     -0.2456
     29  OD2       33.3640   43.9240  -30.6890 O.co2 310  ASP310     -0.2456
     30  N         29.3040   47.0180  -31.5830 N.am  311  THR311     -0.1939
     31  CA        28.1910   47.3550  -32.4560 C.3   311  THR311      0.2028
     32  C         27.8020   46.1390  -33.2880 C.2   311  THR311      0.2642
     33  O         26.6180   45.8400  -33.4520 O.2   311  THR311     -0.2714
     34  CB        28.5370   48.5300  -33.3910 C.3   311  THR311      0.1808
     35  OG1       28.8130   49.7000  -32.6100 O.3   311  THR311     -0.2208
     36  CG2       27.3810   48.8200  -34.3370 C.3   311  THR311      0.0379
     37  N         28.8050   45.4320  -33.7990 N.am  312  ASP312     -0.1971
     38  CA        28.5620   44.2950  -34.6810 C.3   312  ASP312      0.1709
     39  C         28.9300   42.9520  -34.1270 C.2   312  ASP312      0.2293
     40  O         29.8240   42.8320  -33.2930 O.2   312  ASP312     -0.2864
     41  CB        29.2600   44.5160  -36.0430 C.3   312  ASP312      0.1436
     42  CG        28.6340   45.6520  -36.8600 C.2   312  ASP312      0.3671
     43  OD1       27.4440   45.5520  -37.2250 O.co2 312  ASP312     -0.2456
     44  OD2       29.3460   46.6390  -37.1560 O.co2 312  ASP312     -0.2456
     45  N         34.2180   46.2860  -25.7030 N.3   327  LYS327     -0.1245
     46  CA        35.2800   47.1940  -25.8970 C.3   327  LYS327      0.1561
     47  C         35.1870   48.3360  -24.9530 C.2   327  LYS327      0.2260
     48  O         34.2650   48.4220  -24.1150 O.2   327  LYS327     -0.2867
     49  CB        35.3630   47.6570  -27.3510 C.3   327  LYS327      0.0271
     50  CG        34.2480   48.6230  -27.7810 C.3   327  LYS327      0.0035
     51  CD        34.2120   48.6940  -29.3550 C.3   327  LYS327      0.0206
     52  CE        33.1550   49.7260  -29.8470 C.3   327  LYS327      0.1093
     53  NZ        33.1240   49.7790  -31.3730 N.3   327  LYS327     -0.1314
     54  N         38.0670   37.1860  -31.4340 N.3   371  PRO371     -0.2116
     55  CA        37.3760   38.4660  -31.2440 C.3   371  PRO371      0.1372
     56  C         37.9800   39.6430  -32.0130 C.2   371  PRO371      0.2244
     57  O         37.4000   40.7270  -31.9950 O.2   371  PRO371     -0.2868
     58  CB        37.5330   38.6940  -29.7440 C.3   371  PRO371      0.0268
     59  CG        38.8790   38.1160  -29.4390 C.3   371  PRO371      0.0207
     60  CD        39.0580   36.9350  -30.3730 C.3   371  PRO371      0.0892
     61  N         38.9680   41.6390  -35.3980 N.3   373  ARG373     -0.1231
     62  CA        38.5720   41.7500  -36.7970 C.3   373  ARG373      0.1694
     63  C         39.7070   41.3800  -37.7510 C.2   373  ARG373      0.2592
     64  O         39.4830   40.7170  -38.7630 O.2   373  ARG373     -0.2718
     65  CB        38.0810   43.1640  -37.1020 C.3   373  ARG373      0.0321
     66  CG        36.9360   43.6220  -36.2180 C.3   373  ARG373      0.0489
     67  CD        35.6030   43.5200  -36.9450 C.3   373  ARG373      0.2205
     68  NE        34.4830   43.8060  -36.0560 N.pl3 373  ARG373     -0.0865
     69  CZ        33.4740   42.9700  -35.8340 C.cat 373  ARG373      0.5346
     70  NH1       33.4400   41.7890  -36.4370 N.pl3 373  ARG373      0.1354
     71  NH2       32.4960   43.3150  -35.0080 N.pl3 373  ARG373      0.1354
     72  N         40.9210   41.8150  -37.4290 N.am  374  PHE374     -0.1976
     73  CA        42.0530   41.6530  -38.3330 C.3   374  PHE374      0.1639
     74  C         43.0150   40.5420  -37.9190 C.2   374  PHE374      0.2290
     75  O         44.2260   40.6460  -38.1240 O.2   374  PHE374     -0.2864
     76  CB        42.7950   42.9850  -38.4770 C.3   374  PHE374      0.0560
     77  CG        41.9660   44.0670  -39.1100 C.ar  374  PHE374     -0.0200
     78  CD1       41.9150   44.1980  -40.4860 C.ar  374  PHE374     -0.0042
     79  CD2       41.2260   44.9410  -38.3300 C.ar  374  PHE374     -0.0042
     80  CE1       41.1500   45.1840  -41.0760 C.ar  374  PHE374     -0.0003
     81  CE2       40.4560   45.9310  -38.9150 C.ar  374  PHE374     -0.0003
     82  CZ        40.4190   46.0520  -40.2900 C.ar  374  PHE374     -0.0000
@<TRIPOS>BOND
     1    80    78   ar
     2    80    82   ar
     3    78    77   ar
     4    82    81   ar
     5    77    76    1
     6    77    79   ar
     7    81    79   ar
     8    64    63    2
     9    76    73    1
    10    73    74    1
    11    73    72    1
    12    75    74    2
    13    63    72   am
    14    63    62    1
    15    43    42   ar
    16    44    42   ar
    17    65    62    1
    18    65    66    1
    19    67    66    1
    20    67    68    1
    21    42    41    1
    22    62    61    1
    23    70    69    1
    24    68    69    2
    25    41    38    1
    26    69    71    1
    27    38    39    1
    28    38    37    1
    29    36    34    1
    30    39    40    2
    31    37    32   am
    32    33    32    2
    33    34    35    1
    34    34    31    1
    35    32    31    1
    36    31    30    1
    37    56    57    2
    38    56    55    1
    39    30    24   am
    40    54    55    1
    41    54    60    1
    42    53    52    1
    43    55    58    1
    44    29    27   ar
    45    24    25    2
    46    24    23    1
    47     6     5    1
    48    60    59    1
    49    26    27    1
    50    26    23    1
    51     5     2    1
    52    27    28   ar
    53     4     3    2
    54    52    51    1
    55    21    19    1
    56    23    22    1
    57    58    59    1
    58    51    50    1
    59     2     3    1
    60     2     1    1
    61     3     7   am
    62    14    12   am
    63    19    20    1
    64    19    16    1
    65    11    12    1
    66    11     8    1
    67    10     9    2
    68     7     8    1
    69    50    49    1
    70    12    13    2
    71     9     8    1
    72     9    15   am
    73    15    16    1
    74    49    46    1
    75    16    17    1
    76    46    45    1
    77    46    47    1
    78    17    18    2
    79    47    48    2
