@<TRIPOS>MOLECULE
tmp/3obvG01.pdb
 108 100 0 0 0
SMALL
GASTEIGER

@<TRIPOS>ATOM
      1  N         48.7170   27.0610   31.1580 N.3   234  PHE234     -0.1241
      2  CA        47.9960   27.0660   29.8950 C.3   234  PHE234      0.1605
      3  C         46.5970   27.6540   30.0370 C.2   234  PHE234      0.2264
      4  O         46.2110   28.5390   29.2790 O.2   234  PHE234     -0.2867
      5  CB        47.8880   25.6440   29.3690 C.3   234  PHE234      0.0534
      6  CG        47.1610   25.5370   28.0800 C.ar  234  PHE234     -0.0203
      7  CD1       47.8510   25.6260   26.8850 C.ar  234  PHE234     -0.0042
      8  CD2       45.7930   25.3200   28.0530 C.ar  234  PHE234     -0.0042
      9  CE1       47.1920   25.5080   25.6910 C.ar  234  PHE234     -0.0003
     10  CE2       45.1120   25.2120   26.8480 C.ar  234  PHE234     -0.0003
     11  CZ        45.8100   25.3080   25.6710 C.ar  234  PHE234     -0.0000
     12  N         45.0860   31.1730   28.4030 N.3   238  LYS238     -0.1245
     13  CA        43.8100   31.2550   27.7060 C.3   238  LYS238      0.1561
     14  C         43.0050   32.4240   28.2560 C.2   238  LYS238      0.2260
     15  O         42.3540   33.1410   27.5050 O.2   238  LYS238     -0.2867
     16  CB        43.0250   29.9400   27.8040 C.3   238  LYS238      0.0271
     17  CG        43.2660   28.9670   26.6270 C.3   238  LYS238      0.0035
     18  CD        43.0160   27.4940   26.9980 C.3   238  LYS238      0.0206
     19  CE        41.5690   27.2380   27.4230 C.3   238  LYS238      0.1093
     20  NZ        41.3650   25.8470   27.9400 N.3   238  LYS238     -0.1314
     21  N         43.8450   35.8310   27.0000 N.3   241  LEU241     -0.1231
     22  CA        43.3290   36.0830   25.6700 C.3   241  LEU241      0.1693
     23  C         41.8910   36.5740   25.7750 C.2   241  LEU241      0.2592
     24  O         41.5110   37.5400   25.1050 O.2   241  LEU241     -0.2718
     25  CB        43.4600   34.8410   24.7880 C.3   241  LEU241      0.0284
     26  CG        42.9500   34.9590   23.3460 C.3   241  LEU241      0.0019
     27  CD1       43.7510   35.9650   22.5400 C.3   241  LEU241      0.0001
     28  CD2       42.9920   33.5920   22.6970 C.3   241  LEU241      0.0001
     29  N         41.1130   35.9330   26.6460 N.am  242  ASP242     -0.1974
     30  CA        39.7360   36.3550   26.8990 C.3   242  ASP242      0.1709
     31  C         39.6410   37.8140   27.3050 C.2   242  ASP242      0.2293
     32  O         38.7460   38.5380   26.8430 O.2   242  ASP242     -0.2864
     33  CB        39.0710   35.4730   27.9460 C.3   242  ASP242      0.1436
     34  CG        38.7550   34.0840   27.4110 C.2   242  ASP242      0.3671
     35  OD1       38.7410   33.9140   26.1760 O.co2 242  ASP242     -0.2456
     36  OD2       38.5210   33.1650   28.2180 O.co2 242  ASP242     -0.2456
     37  N         40.4210   39.9990   24.1810 N.3   245  ARG245     -0.1245
     38  CA        39.2510   40.0860   23.3330 C.3   245  ARG245      0.1563
     39  C         38.2300   41.0540   23.8700 C.2   245  ARG245      0.2260
     40  O         37.4340   41.6030   23.1150 O.2   245  ARG245     -0.2867
     41  CB        38.6150   38.7130   23.1850 C.3   245  ARG245      0.0307
     42  CG        39.5280   37.7620   22.4550 C.3   245  ARG245      0.0489
     43  CD        38.9450   36.3850   22.4750 C.3   245  ARG245      0.2205
     44  NE        39.4790   35.5860   21.3870 N.pl3 245  ARG245     -0.0865
     45  CZ        39.4560   34.2660   21.3970 C.cat 245  ARG245      0.5346
     46  NH1       38.9500   33.6340   22.4570 N.pl3 245  ARG245      0.1354
     47  NH2       39.9390   33.5900   20.3660 N.pl3 245  ARG245      0.1354
     48  N         41.2170   32.3940    8.3950 N.3   293  LYS293     -0.1245
     49  CA        40.9160   31.3670    9.4000 C.3   293  LYS293      0.1561
     50  C         42.0460   30.3770    9.6510 C.2   293  LYS293      0.2260
     51  O         42.4040   30.1250   10.8020 O.2   293  LYS293     -0.2867
     52  CB        39.6680   30.5620    9.0430 C.3   293  LYS293      0.0271
     53  CG        39.1410   29.7590   10.1990 C.3   293  LYS293      0.0035
     54  CD        37.9750   28.8730    9.7680 C.3   293  LYS293      0.0206
     55  CE        38.0040   27.5440   10.5300 C.3   293  LYS293      0.1093
     56  NZ        36.8400   26.6610   10.2610 N.3   293  LYS293     -0.1314
     57  N         44.8780   31.8440   11.2510 N.3   296  GLU296     -0.1231
     58  CA        44.5050   32.2010   12.5940 C.3   296  GLU296      0.1699
     59  C         44.5890   30.9750   13.5090 C.2   296  GLU296      0.2592
     60  O         44.9680   31.0890   14.6620 O.2   296  GLU296     -0.2718
     61  CB        43.0900   32.7520   12.5870 C.3   296  GLU296      0.0402
     62  CG        42.6650   33.4650   13.8460 C.3   296  GLU296      0.1161
     63  CD        41.9030   32.5680   14.7870 C.2   296  GLU296      0.3649
     64  OE1       41.8440   31.3530   14.5360 O.co2 296  GLU296     -0.2457
     65  OE2       41.3550   33.0760   15.7800 O.co2 296  GLU296     -0.2457
     66  N         44.2280   29.8030   12.9980 N.am  297  GLU297     -0.1979
     67  CA        44.2350   28.5980   13.8210 C.3   297  GLU297      0.1602
     68  C         45.6520   28.1180   14.0810 C.2   297  GLU297      0.2287
     69  O         45.9060   27.4780   15.0920 O.2   297  GLU297     -0.2864
     70  CB        43.4080   27.4540   13.2060 C.3   297  GLU297      0.0415
     71  CG        41.9810   27.8590   12.7260 C.3   297  GLU297      0.1163
     72  CD        41.0820   26.6580   12.4130 C.2   297  GLU297      0.3649
     73  OE1       40.8140   26.3860   11.2110 O.co2 297  GLU297     -0.2457
     74  OE2       40.6420   25.9880   13.3830 O.co2 297  GLU297     -0.2457
     75  N         47.1850   30.4250   16.6250 N.3   300  SER300     -0.1202
     76  CA        46.7460   30.0770   17.9530 C.3   300  SER300      0.2020
     77  C         47.5320   28.8870   18.5740 C.2   300  SER300      0.2618
     78  O         47.9210   28.9580   19.7280 O.2   300  SER300     -0.2717
     79  CB        45.2300   29.8930   18.0110 C.3   300  SER300      0.2103
     80  OG        44.8130   29.4010   19.2920 O.3   300  SER300     -0.2182
     81  N         47.7960   27.8300   17.8170 N.am  301  GLN301     -0.1979
     82  CA        48.5940   26.7040   18.3130 C.3   301  GLN301      0.1601
     83  C         50.0200   27.1090   18.6680 C.2   301  GLN301      0.2287
     84  O         50.6760   26.4500   19.4700 O.2   301  GLN301     -0.2864
     85  CB        48.7090   25.6030   17.2580 C.3   301  GLN301      0.0394
     86  CG        47.4300   25.1140   16.7410 C.3   301  GLN301      0.0908
     87  CD        46.5920   24.6370   17.8380 C.2   301  GLN301      0.2608
     88  OE1       47.0080   23.7550   18.5820 O.2   301  GLN301     -0.2717
     89  NE2       45.4050   25.2280   17.9880 N.am  301  GLN301     -0.0878
     90  N         49.4600   30.4290   21.9180 N.3   304  LEU304     -0.1245
     91  CA        48.9080   29.7440   23.0780 C.3   304  LEU304      0.1561
     92  C         49.4460   28.3320   23.1080 C.2   304  LEU304      0.2260
     93  O         48.6810   27.3790   22.9470 O.2   304  LEU304     -0.2867
     94  CB        47.4040   29.6010   22.9420 C.3   304  LEU304      0.0270
     95  CG        46.4430   30.5720   23.5620 C.3   304  LEU304      0.0019
     96  CD1       45.0760   30.1120   23.1500 C.3   304  LEU304      0.0001
     97  CD2       46.5880   30.4790   25.0480 C.3   304  LEU304      0.0001
     98  N         40.4620   19.8450   17.0550 N.3   324  ARG324     -0.1245
     99  CA        40.0500   19.8540   18.4530 C.3   324  ARG324      0.1563
    100  C         40.5240   18.6160   19.2230 C.2   324  ARG324      0.2260
    101  O         40.3800   17.4810   18.7470 O.2   324  ARG324     -0.2867
    102  CB        38.5200   19.9140   18.5430 C.3   324  ARG324      0.0307
    103  CG        37.8560   20.8110   17.5190 C.3   324  ARG324      0.0489
    104  CD        36.3520   20.6340   17.5640 C.3   324  ARG324      0.2205
    105  NE        35.9480   19.2750   17.2160 N.pl3 324  ARG324     -0.0865
    106  CZ        35.6470   18.8800   15.9820 C.cat 324  ARG324      0.5346
    107  NH1       35.7070   19.7440   14.9720 N.pl3 324  ARG324      0.1354
    108  NH2       35.2810   17.6220   15.7600 N.pl3 324  ARG324      0.1354
@<TRIPOS>BOND
     1    48    49    1
     2    52    49    1
     3    52    53    1
     4    49    50    1
     5    50    51    2
     6    54    53    1
     7    54    55    1
     8    56    55    1
     9    73    72   ar
    10    57    58    1
    11    72    71    1
    12    72    74   ar
    13    61    58    1
    14    61    62    1
    15    58    59    1
    16    71    70    1
    17    66    59   am
    18    66    67    1
    19    70    67    1
    20    59    60    2
    21    67    68    1
    22    62    63    1
    23    68    69    2
    24    64    63   ar
    25    63    65   ar
    26   107   106    1
    27   108   106    1
    28   106   105    2
    29    75    76    1
    30    86    85    1
    31    86    87    1
    32    98    99    1
    33   105   104    1
    34    85    82    1
    35   103   104    1
    36   103   102    1
    37    81    82    1
    38    81    77   am
    39    87    89   am
    40    87    88    2
    41    76    79    1
    42    76    77    1
    43    79    80    1
    44    82    83    1
    45    99   102    1
    46    99   100    1
    47    77    78    2
    48    83    84    2
    49   101   100    2
    50    47    45    1
    51    44    45    2
    52    44    43    1
    53    45    46    1
    54    90    91    1
    55    42    43    1
    56    42    41    1
    57    27    26    1
    58    28    26    1
    59    94    91    1
    60    94    95    1
    61    93    92    2
    62    91    92    1
    63    40    39    2
    64    96    95    1
    65    41    38    1
    66    38    39    1
    67    38    37    1
    68    26    25    1
    69    95    97    1
    70    25    22    1
    71    24    23    2
    72    22    23    1
    73    22    21    1
    74    11     9   ar
    75    11    10   ar
    76     9     7   ar
    77    23    29   am
    78    35    34   ar
    79    17    18    1
    80    17    16    1
    81    29    30    1
    82    32    31    2
    83    10     8   ar
    84     7     6   ar
    85    30    31    1
    86    30    33    1
    87    18    19    1
    88    34    33    1
    89    34    36   ar
    90    19    20    1
    91    15    14    2
    92    13    16    1
    93    13    14    1
    94    13    12    1
    95     8     6   ar
    96     6     5    1
    97     4     3    2
    98     5     2    1
    99     2     3    1
   100     2     1    1
