@<TRIPOS>MOLECULE
tmp/3obxA00.pdb
 155 151 0 0 0
SMALL
GASTEIGER

@<TRIPOS>ATOM
      1  N        -10.8100   -2.0480    1.8200 N.3    32  ASP32      -0.1239
      2  CA        -9.3620   -2.1020    1.6870 C.3    32  ASP32       0.1674
      3  C         -8.7160   -2.8650    2.8400 C.2    32  ASP32       0.2266
      4  O         -7.5020   -2.8130    3.0240 O.2    32  ASP32      -0.2867
      5  CB        -8.7390   -0.7120    1.5760 C.3    32  ASP32       0.1410
      6  CG        -7.3260   -0.7630    1.0130 C.2    32  ASP32       0.3668
      7  OD1       -7.1480   -1.3410   -0.0830 O.co2  32  ASP32      -0.2456
      8  OD2       -6.3920   -0.2390    1.6550 O.co2  32  ASP32      -0.2456
      9  N         -5.9860   -0.5590    4.7870 N.3    53  THR53      -0.1218
     10  CA        -6.1600    0.8240    5.2220 C.3    53  THR53       0.1862
     11  C         -7.6180    1.1340    5.5430 C.2    53  THR53       0.2287
     12  O         -8.5320    0.4560    5.0630 O.2    53  THR53      -0.2866
     13  CB        -5.7000    1.8350    4.1340 C.3    53  THR53       0.1770
     14  OG1       -6.5430    1.7260    2.9790 O.3    53  THR53      -0.2211
     15  CG2       -4.2680    1.5740    3.7270 C.3    53  THR53       0.0375
     16  N         -8.8070   14.1450    8.0770 N.3    58  TYR58      -0.1227
     17  CA        -7.9640   14.9550    8.9540 C.3    58  TYR58       0.1736
     18  C         -7.6930   16.3370    8.3740 C.2    58  TYR58       0.2595
     19  O         -7.1420   16.4650    7.2830 O.2    58  TYR58      -0.2718
     20  CB        -6.6270   14.2570    9.2100 C.3    58  TYR58       0.0548
     21  CG        -5.6610   15.0750   10.0460 C.ar   58  TYR58      -0.0200
     22  CD1       -5.9230   15.3460   11.3880 C.ar   58  TYR58      -0.0009
     23  CD2       -4.4810   15.5750    9.4930 C.ar   58  TYR58      -0.0009
     24  CE1       -5.0330   16.0910   12.1620 C.ar   58  TYR58       0.0417
     25  CE2       -3.5850   16.3220   10.2570 C.ar   58  TYR58       0.0417
     26  CZ        -3.8670   16.5750   11.5920 C.ar   58  TYR58       0.1957
     27  OH        -2.9750   17.2910   12.3610 O.3    58  TYR58      -0.2866
     28  N         -8.0750   17.3660    9.1230 N.am   59  ARG59      -0.1980
     29  CA        -7.8840   18.7510    8.7080 C.3    59  ARG59       0.1597
     30  C         -8.3020   19.0360    7.2700 C.2    59  ARG59       0.2287
     31  O         -7.6590   19.8300    6.5820 O.2    59  ARG59      -0.2864
     32  CB        -6.4230   19.1730    8.8940 C.3    59  ARG59       0.0334
     33  CG        -5.9340   19.1140   10.3270 C.3    59  ARG59       0.0492
     34  CD        -4.5550   19.7390   10.4610 C.3    59  ARG59       0.2205
     35  NE        -4.5730   21.1660   10.1520 N.pl3  59  ARG59      -0.0865
     36  CZ        -3.5340   21.9800   10.3070 C.cat  59  ARG59       0.5346
     37  NH1       -2.3830   21.5100   10.7680 N.pl3  59  ARG59       0.1354
     38  NH2       -3.6460   23.2660   10.0070 N.pl3  59  ARG59       0.1354
     39  N         -9.1910   13.1750    3.2810 N.3    62  THR62      -0.1203
     40  CA        -9.2590   11.7890    3.7330 C.3    62  THR62       0.1994
     41  C         -7.9520   11.0580    3.4510 C.2    62  THR62       0.2618
     42  O         -7.3840   11.1730    2.3650 O.2    62  THR62      -0.2717
     43  CB       -10.4000   11.0260    3.0290 C.3    62  THR62       0.1784
     44  OG1      -11.6570   11.6290    3.3600 O.3    62  THR62      -0.2211
     45  CG2      -10.4130    9.5670    3.4630 C.3    62  THR62       0.0376
     46  N         -7.4830   10.3010    4.4350 N.am   63  TYR63      -0.1961
     47  CA        -6.2480    9.5480    4.2890 C.3    63  TYR63       0.1771
     48  C         -6.5000    8.0680    4.4960 C.2    63  TYR63       0.2620
     49  O         -7.3620    7.6840    5.2790 O.2    63  TYR63      -0.2715
     50  CB        -5.2070   10.0400    5.2920 C.3    63  TYR63       0.0574
     51  CG        -4.8460   11.4850    5.0690 C.ar   63  TYR63      -0.0198
     52  CD1       -5.6020   12.5080    5.6360 C.ar   63  TYR63      -0.0009
     53  CD2       -3.7760   11.8310    4.2450 C.ar   63  TYR63      -0.0009
     54  CE1       -5.3020   13.8460    5.3860 C.ar   63  TYR63       0.0417
     55  CE2       -3.4690   13.1620    3.9860 C.ar   63  TYR63       0.0417
     56  CZ        -4.2340   14.1630    4.5590 C.ar   63  TYR63       0.1957
     57  OH        -3.9330   15.4800    4.2960 O.3    63  TYR63      -0.2866
     58  N         -5.7570    7.2410    3.7680 N.am   64  ASN64      -0.1958
     59  CA        -5.8920    5.7980    3.8840 C.3    64  ASN64       0.1819
     60  C         -4.8360    5.3460    4.8830 C.2    64  ASN64       0.2621
     61  O         -3.6980    5.0530    4.5190 O.2    64  ASN64      -0.2715
     62  CB        -5.6810    5.1480    2.5160 C.3    64  ASN64       0.1195
     63  CG        -6.6800    5.6440    1.4890 C.2    64  ASN64       0.2630
     64  OD1       -7.8870    5.6120    1.7250 O.2    64  ASN64      -0.2716
     65  ND2       -6.1840    6.1110    0.3480 N.am   64  ASN64      -0.0877
     66  N         -5.2320    5.3110    6.1540 N.am   65  ILE65      -0.1964
     67  CA        -4.3440    4.9450    7.2550 C.3    65  ILE65       0.1712
     68  C         -4.1080    3.4390    7.3180 C.2    65  ILE65       0.2458
     69  O         -5.0500    2.6630    7.4510 O.2    65  ILE65      -0.2730
     70  CB        -4.9300    5.4310    8.6070 C.3    65  ILE65       0.0289
     71  CG1       -5.1120    6.9560    8.5870 C.3    65  ILE65       0.0022
     72  CG2       -4.0200    5.0090    9.7560 C.3    65  ILE65       0.0023
     73  CD1       -3.8190    7.7370    8.3600 C.3    65  ILE65       0.0001
     74  N         -2.8380    3.0080    7.2260 N.am   66  PRO66      -0.2727
     75  CA        -2.4560    1.5910    7.2630 C.3    66  PRO66       0.1402
     76  C         -2.4800    0.9520    8.6510 C.2    66  PRO66       0.2269
     77  O         -1.7650    1.3840    9.5640 O.2    66  PRO66      -0.2865
     78  CB        -1.0610    1.6070    6.6550 C.3    66  PRO66       0.0296
     79  CG        -0.5070    2.8970    7.1790 C.3    66  PRO66       0.0237
     80  CD        -1.6580    3.8620    6.9910 C.3    66  PRO66       0.0939
     81  N          4.2020    2.8820    5.8610 N.3    87  THR87      -0.1218
     82  CA         4.8850    2.5010    4.6320 C.3    87  THR87       0.1862
     83  C          6.1180    3.3920    4.5330 C.2    87  THR87       0.2287
     84  O          6.3310    4.2590    5.3790 O.2    87  THR87      -0.2866
     85  CB         4.0020    2.7360    3.3890 C.3    87  THR87       0.1770
     86  OG1        3.6900    4.1310    3.2790 O.3    87  THR87      -0.2211
     87  CG2        2.7140    1.9320    3.4910 C.3    87  THR87       0.0375
     88  N          6.7300    5.8680    2.7110 N.3    89  SER89      -0.1202
     89  CA         6.4390    7.2800    2.4730 C.3    89  SER89       0.2020
     90  C          5.9550    8.0450    3.6960 C.2    89  SER89       0.2619
     91  O          5.6450    9.2350    3.6070 O.2    89  SER89      -0.2717
     92  CB         5.3900    7.4150    1.3690 C.3    89  SER89       0.2103
     93  OG         4.1330    6.9330    1.8100 O.3    89  SER89      -0.2182
     94  N          5.8990    7.3720    4.8370 N.am   90  MET90      -0.1965
     95  CA         5.4160    8.0070    6.0520 C.3    90  MET90       0.1736
     96  C          6.1780    7.5650    7.2900 C.2    90  MET90       0.2617
     97  O          6.9900    6.6410    7.2480 O.2    90  MET90      -0.2715
     98  CB         3.9330    7.6890    6.2280 C.3    90  MET90       0.0427
     99  CG         3.6350    6.2070    6.0930 C.3    90  MET90       0.0599
    100  SD         1.9010    5.8000    6.3060 S.3    90  MET90      -0.1393
    101  CE         1.2460    6.2110    4.6870 C.3    90  MET90       0.0692
    102  N          5.8980    8.2370    8.3990 N.am   91  THR91      -0.1951
    103  CA         6.5400    7.9290    9.6650 C.3    91  THR91       0.1897
    104  C          5.4820    7.8210   10.7520 C.2    91  THR91       0.2313
    105  O          4.5620    8.6370   10.8180 O.2    91  THR91      -0.2863
    106  CB         7.5510    9.0260   10.0560 C.3    91  THR91       0.1794
    107  OG1        8.0490    8.7700   11.3740 O.3    91  THR91      -0.2208
    108  CG2        6.8920   10.3950   10.0200 C.3    91  THR91       0.0378
    109  N          3.7230    8.1110   14.3350 N.3    93  LYS93      -0.1245
    110  CA         3.7560    9.1240   15.3790 C.3    93  LYS93       0.1561
    111  C          3.4300    8.5150   16.7400 C.2    93  LYS93       0.2260
    112  O          2.2720    8.2140   17.0390 O.2    93  LYS93      -0.2867
    113  CB         2.7550   10.2380   15.0660 C.3    93  LYS93       0.0271
    114  CG         2.6650   11.3130   16.1380 C.3    93  LYS93       0.0035
    115  CD         3.9300   12.1550   16.2170 C.3    93  LYS93       0.0206
    116  CE         4.0620   13.0760   15.0130 C.3    93  LYS93       0.1093
    117  NZ         5.2120   14.0150   15.1510 N.3    93  LYS93      -0.1314
    118  N         -3.6430   11.9390   14.0040 N.3   134  PRO134     -0.2116
    119  CA        -3.1440   10.9490   13.0440 C.3   134  PRO134      0.1372
    120  C         -2.0030   10.1230   13.6420 C.2   134  PRO134      0.2244
    121  O         -1.1200   10.6640   14.3090 O.2   134  PRO134     -0.2868
    122  CB        -2.6790   11.8120   11.8770 C.3   134  PRO134      0.0268
    123  CG        -3.6310   12.9590   11.9150 C.3   134  PRO134      0.0207
    124  CD        -3.6780   13.2800   13.3970 C.3   134  PRO134      0.0892
    125  N          0.1680    8.5060   11.8880 N.3   136  VAL136     -0.1231
    126  CA         1.2580    8.5560   10.9210 C.3   136  VAL136      0.1692
    127  C          1.2100    9.8800   10.1770 C.2   136  VAL136      0.2592
    128  O          0.1530   10.4960   10.0490 O.2   136  VAL136     -0.2718
    129  CB         1.1640    7.4130    9.8820 C.3   136  VAL136      0.0266
    130  CG1        1.5910    6.1000   10.5090 C.3   136  VAL136      0.0020
    131  CG2       -0.2580    7.3090    9.3460 C.3   136  VAL136      0.0020
    132  N          2.3700   10.3120    9.6960 N.am  137  PHE137     -0.1962
    133  CA         2.4940   11.5520    8.9450 C.3   137  PHE137      0.1771
    134  C          3.4270   11.3010    7.7660 C.2   137  PHE137      0.2620
    135  O          4.3980   10.5510    7.8860 O.2   137  PHE137     -0.2715
    136  CB         3.0610   12.6590    9.8390 C.3   137  PHE137      0.0574
    137  CG         2.0580   13.2340   10.8010 C.ar  137  PHE137     -0.0200
    138  CD1        1.1130   14.1570   10.3670 C.ar  137  PHE137     -0.0042
    139  CD2        2.0470   12.8410   12.1340 C.ar  137  PHE137     -0.0042
    140  CE1        0.1670   14.6820   11.2490 C.ar  137  PHE137     -0.0003
    141  CE2        1.1070   13.3580   13.0250 C.ar  137  PHE137     -0.0003
    142  CZ         0.1660   14.2810   12.5810 C.ar  137  PHE137     -0.0000
    143  N          3.1190   11.9140    6.6290 N.am  138  SER138     -0.1950
    144  CA         3.9320   11.7510    5.4310 C.3   138  SER138      0.1924
    145  C          5.3010   12.3890    5.6230 C.2   138  SER138      0.2314
    146  O          5.4190   13.4550    6.2290 O.2   138  SER138     -0.2863
    147  CB         3.2300   12.3890    4.2320 C.3   138  SER138      0.2116
    148  OG         3.9410   12.1330    3.0330 O.3   138  SER138     -0.2180
    149  N          8.6640   14.4730    4.8750 N.3   140  PRO140     -0.2116
    150  CA         8.8240   15.7570    4.1860 C.3   140  PRO140      0.1372
    151  C          9.4870   15.6210    2.8170 C.2   140  PRO140      0.2244
    152  O          9.8960   14.4930    2.4670 O.2   140  PRO140     -0.2868
    153  CB         9.6700   16.5640    5.1650 C.3   140  PRO140      0.0268
    154  CG        10.5370   15.5130    5.7800 C.3   140  PRO140      0.0207
    155  CD         9.5550   14.3930    6.0460 C.3   140  PRO140      0.0892
@<TRIPOS>BOND
     1     7     6   ar
     2    65    63   am
     3     6     5    1
     4     6     8   ar
     5    92    93    1
     6    92    89    1
     7    63    64    2
     8    63    62    1
     9     5     2    1
    10     2     1    1
    11     2     3    1
    12    42    41    2
    13   152   151    2
    14    89    88    1
    15    89    90    1
    16    62    59    1
    17   151   150    1
    18     3     4    2
    19    14    13    1
    20    43    44    1
    21    43    45    1
    22    43    40    1
    23   148   147    1
    24    86    85    1
    25    39    40    1
    26    85    87    1
    27    85    82    1
    28    41    40    1
    29    41    46   am
    30    91    90    2
    31    90    94   am
    32    15    13    1
    33    58    59    1
    34    58    48   am
    35    59    60    1
    36    55    53   ar
    37    55    56   ar
    38    13    10    1
    39   150   149    1
    40   150   153    1
    41   147   144    1
    42    53    51   ar
    43    47    46    1
    44    47    48    1
    45    47    50    1
    46    57    56    1
    47    48    49    2
    48    61    60    2
    49    83    82    1
    50    83    84    2
    51    56    54   ar
    52    82    81    1
    53   101   100    1
    54     9    10    1
    55    94    95    1
    56   149   155    1
    57    60    66   am
    58    12    11    2
    59    51    50    1
    60    51    52   ar
    61   153   154    1
    62    10    11    1
    63    54    52   ar
    64   144   145    1
    65   144   143    1
    66   145   146    2
    67   154   155    1
    68    95    98    1
    69    95    96    1
    70    99    98    1
    71    99   100    1
    72    66    67    1
    73    31    30    2
    74   143   134   am
    75    78    79    1
    76    78    75    1
    77    80    79    1
    78    80    74    1
    79    74    75    1
    80    74    68   am
    81    97    96    2
    82    67    68    1
    83    67    70    1
    84    75    76    1
    85    30    29    1
    86    19    18    2
    87    96   102   am
    88    68    69    2
    89   134   135    2
    90   134   133    1
    91    16    17    1
    92    73    71    1
    93    18    17    1
    94    18    28   am
    95   102   103    1
    96    71    70    1
    97    70    72    1
    98    76    77    2
    99    29    32    1
   100    29    28    1
   101    32    33    1
   102   133   132    1
   103   133   136    1
   104    17    20    1
   105    20    21    1
   106   131   129    1
   107    23    21   ar
   108    23    25   ar
   109   103   106    1
   110   103   104    1
   111   132   127   am
   112   136   137    1
   113   129   130    1
   114   129   126    1
   115    38    36    1
   116   108   106    1
   117    21    22   ar
   118   128   127    2
   119   106   107    1
   120    35    36    2
   121    35    34    1
   122   127   126    1
   123    25    26   ar
   124    36    37    1
   125    33    34    1
   126   138   137   ar
   127   138   140   ar
   128   104   105    2
   129   137   139   ar
   130   126   125    1
   131   140   142   ar
   132    22    24   ar
   133    26    24   ar
   134    26    27    1
   135   122   123    1
   136   122   119    1
   137   123   124    1
   138   139   141   ar
   139   142   141   ar
   140   119   120    1
   141   119   118    1
   142   124   118    1
   143   120   121    2
   144   109   110    1
   145   116   117    1
   146   116   115    1
   147   113   110    1
   148   113   114    1
   149   110   111    1
   150   114   115    1
   151   111   112    2
