@<TRIPOS>MOLECULE
tmp/3obzA00.pdb
 140 132 0 0 0
SMALL
GASTEIGER

@<TRIPOS>ATOM
      1  N        -29.5550  133.0860  -61.2130 N.3   140  MET140     -0.1245
      2  CA       -30.6520  133.2570  -62.1650 C.3   140  MET140      0.1570
      3  C        -31.9840  132.8390  -61.5480 C.2   140  MET140      0.2261
      4  O        -32.0290  132.0340  -60.6160 O.2   140  MET140     -0.2867
      5  CB       -30.4600  132.3680  -63.4060 C.3   140  MET140      0.0387
      6  CG       -29.1850  132.5400  -64.1980 C.3   140  MET140      0.0595
      7  SD       -29.0230  131.2280  -65.4670 S.3   140  MET140     -0.1393
      8  CE       -30.6190  130.4970  -65.4230 C.3   140  MET140      0.0692
      9  N        -35.4300  131.2190  -62.9220 N.3   142  ILE142     -0.1245
     10  CA       -35.9720  130.5920  -64.1160 C.3   142  ILE142      0.1561
     11  C        -37.4590  130.3700  -63.9520 C.2   142  ILE142      0.2260
     12  O        -37.9050  129.7180  -63.0070 O.2   142  ILE142     -0.2867
     13  CB       -35.2400  129.2620  -64.3920 C.3   142  ILE142      0.0252
     14  CG1      -33.7320  129.5360  -64.4730 C.3   142  ILE142      0.0019
     15  CG2      -35.7410  128.6490  -65.7010 C.3   142  ILE142      0.0019
     16  CD1      -32.8600  128.2940  -64.5680 C.3   142  ILE142      0.0001
     17  N        -39.9860  129.0980  -66.5000 N.3   144  LYS144     -0.1245
     18  CA       -40.6390  127.9350  -67.0900 C.3   144  LYS144      0.1561
     19  C        -42.1130  128.2980  -67.2090 C.2   144  LYS144      0.2260
     20  O        -42.9700  127.6590  -66.5930 O.2   144  LYS144     -0.2867
     21  CB       -40.4980  126.6900  -66.2070 C.3   144  LYS144      0.0271
     22  CG       -39.2040  125.9100  -66.3820 C.3   144  LYS144      0.0035
     23  CD       -39.1150  125.1800  -67.7330 C.3   144  LYS144      0.0206
     24  CE       -37.8960  124.2500  -67.7410 C.3   144  LYS144      0.1093
     25  NZ       -37.6120  123.6150  -69.0550 N.3   144  LYS144     -0.1314
     26  N        -34.5550  123.2440  -71.7830 N.3   152  VAL152     -0.1245
     27  CA       -33.1490  123.5740  -71.5960 C.3   152  VAL152      0.1561
     28  C        -32.4810  122.3010  -72.1010 C.2   152  VAL152      0.2260
     29  O        -32.6410  121.2370  -71.5110 O.2   152  VAL152     -0.2867
     30  CB       -32.8180  123.7830  -70.1090 C.3   152  VAL152      0.0252
     31  CG1      -31.3090  123.8760  -69.9220 C.3   152  VAL152      0.0019
     32  CG2      -33.4910  125.0530  -69.6000 C.3   152  VAL152      0.0019
     33  N        -26.6520  119.6350  -71.1670 N.3   155  HIS155     -0.1241
     34  CA       -25.4410  120.4130  -71.0260 C.3   155  HIS155      0.1621
     35  C        -24.7380  120.1590  -69.7000 C.2   155  HIS155      0.2264
     36  O        -25.2420  119.4430  -68.8380 O.2   155  HIS155     -0.2867
     37  CB       -25.7760  121.9040  -71.1360 C.3   155  HIS155      0.0745
     38  CG       -26.5940  122.4150  -69.9930 C.ar  155  HIS155      0.0817
     39  ND1      -27.9390  122.1410  -69.8570 N.ar  155  HIS155     -0.2268
     40  CD2      -26.2460  123.1410  -68.9040 C.ar  155  HIS155      0.1154
     41  CE1      -28.3850  122.6770  -68.7330 C.ar  155  HIS155      0.1986
     42  NE2      -27.3760  123.2900  -68.1360 N.ar  155  HIS155     -0.2212
     43  N        -22.6510  122.5430  -66.7670 N.3   157  ASP157     -0.1239
     44  CA       -22.4420  123.9400  -66.4220 C.3   157  ASP157      0.1674
     45  C        -21.0230  124.4400  -66.6490 C.2   157  ASP157      0.2266
     46  O        -20.8300  125.6110  -66.9860 O.2   157  ASP157     -0.2867
     47  CB       -22.8620  124.2110  -64.9790 C.3   157  ASP157      0.1410
     48  CG       -24.3560  124.0150  -64.7610 C.2   157  ASP157      0.3668
     49  OD1      -25.1230  124.1090  -65.7400 O.co2 157  ASP157     -0.2456
     50  OD2      -24.7630  123.7760  -63.6130 O.co2 157  ASP157     -0.2456
     51  N        -26.3920  125.4390  -57.4040 N.3   172  VAL172     -0.1231
     52  CA       -27.4530  125.2730  -56.4100 C.3   172  VAL172      0.1692
     53  C        -28.7380  125.6510  -57.1350 C.2   172  VAL172      0.2592
     54  O        -28.8580  126.7570  -57.6660 O.2   172  VAL172     -0.2718
     55  CB       -27.2640  126.2010  -55.1930 C.3   172  VAL172      0.0266
     56  CG1      -28.4400  126.0410  -54.2270 C.3   172  VAL172      0.0020
     57  CG2      -25.9580  125.8750  -54.4890 C.3   172  VAL172      0.0020
     58  N        -29.6840  124.7190  -57.1680 N.am  173  TRP173     -0.1976
     59  CA       -30.9540  124.9040  -57.8600 C.3   173  TRP173      0.1640
     60  C        -32.0750  124.7330  -56.8460 C.2   173  TRP173      0.2290
     61  O        -32.2090  123.6730  -56.2300 O.2   173  TRP173     -0.2864
     62  CB       -31.0720  123.8510  -58.9630 C.3   173  TRP173      0.0576
     63  CG       -32.2420  124.0000  -59.8820 C.ar  173  TRP173      0.0006
     64  CD1      -32.2590  124.6300  -61.0980 C.ar  173  TRP173      0.0946
     65  CD2      -33.5590  123.4690  -59.6870 C.ar  173  TRP173      0.0152
     66  NE1      -33.5020  124.5130  -61.6700 N.ar  173  TRP173     -0.2442
     67  CE2      -34.3180  123.8030  -60.8230 C.ar  173  TRP173      0.0810
     68  CE3      -34.1680  122.7350  -58.6590 C.ar  173  TRP173      0.0012
     69  CZ2      -35.6550  123.4320  -60.9650 C.ar  173  TRP173      0.0191
     70  CZ3      -35.4940  122.3660  -58.8000 C.ar  173  TRP173      0.0001
     71  CH2      -36.2230  122.7140  -59.9460 C.ar  173  TRP173      0.0015
     72  N        -36.1390  118.9090  -63.8120 N.3   186  LEU186     -0.1245
     73  CA       -34.8120  118.5730  -64.2940 C.3   186  LEU186      0.1561
     74  C        -34.6670  117.0730  -64.5590 C.2   186  LEU186      0.2260
     75  O        -35.4220  116.2570  -64.0310 O.2   186  LEU186     -0.2867
     76  CB       -33.7560  118.9660  -63.2660 C.3   186  LEU186      0.0270
     77  CG       -33.6100  120.4270  -62.8550 C.3   186  LEU186      0.0019
     78  CD1      -32.5630  120.4910  -61.7650 C.3   186  LEU186      0.0001
     79  CD2      -33.2240  121.3000  -64.0440 C.3   186  LEU186      0.0001
     80  N        -25.7990  120.5750  -58.0080 N.3   239  ILE239     -0.1245
     81  CA       -25.4250  120.1840  -59.3590 C.3   239  ILE239      0.1561
     82  C        -23.9340  120.3150  -59.5950 C.2   239  ILE239      0.2260
     83  O        -23.4090  121.4240  -59.6560 O.2   239  ILE239     -0.2867
     84  CB       -26.1570  121.0550  -60.4190 C.3   239  ILE239      0.0252
     85  CG1      -27.6780  120.9080  -60.2620 C.3   239  ILE239      0.0019
     86  CG2      -25.7060  120.6590  -61.8280 C.3   239  ILE239      0.0019
     87  CD1      -28.4890  121.8040  -61.2010 C.3   239  ILE239      0.0001
     88  N        -27.2390  117.5080  -67.5510 N.3   245  HIS245     -0.1226
     89  CA       -28.6330  117.6810  -67.1510 C.3   245  HIS245      0.1752
     90  C        -29.4120  118.5170  -68.1640 C.2   245  HIS245      0.2596
     91  O        -28.8290  119.2660  -68.9510 O.2   245  HIS245     -0.2718
     92  CB       -28.7380  118.3100  -65.7510 C.3   245  HIS245      0.0759
     93  CG       -28.0790  119.6470  -65.6250 C.ar  245  HIS245      0.0818
     94  ND1      -26.7100  119.8110  -65.6390 N.ar  245  HIS245     -0.2268
     95  CD2      -28.6030  120.8850  -65.4510 C.ar  245  HIS245      0.1154
     96  CE1      -26.4190  121.0890  -65.4740 C.ar  245  HIS245      0.1986
     97  NE2      -27.5500  121.7640  -65.3570 N.ar  245  HIS245     -0.2212
     98  N        -30.7340  118.3820  -68.1330 N.am  246  LYS246     -0.1966
     99  CA       -31.6080  119.0940  -69.0590 C.3   246  LYS246      0.1728
    100  C        -32.9860  119.2150  -68.4290 C.2   246  LYS246      0.2616
    101  O        -33.2370  118.6720  -67.3560 O.2   246  LYS246     -0.2715
    102  CB       -31.7580  118.2870  -70.3480 C.3   246  LYS246      0.0311
    103  CG       -32.5270  116.9870  -70.1060 C.3   246  LYS246      0.0038
    104  CD       -32.8430  116.2140  -71.3850 C.3   246  LYS246      0.0206
    105  CE       -33.6390  114.9600  -71.0550 C.3   246  LYS246      0.1093
    106  NZ       -34.0920  114.2470  -72.2830 N.3   246  LYS246     -0.1314
    107  N        -33.8790  119.9240  -69.1080 N.am  247  SER247     -0.1950
    108  CA       -35.2520  120.0690  -68.6450 C.3   247  SER247      0.1924
    109  C        -36.1290  120.2550  -69.8810 C.2   247  SER247      0.2314
    110  O        -35.7760  121.0090  -70.7910 O.2   247  SER247     -0.2863
    111  CB       -35.3970  121.2600  -67.6830 C.3   247  SER247      0.2116
    112  OG       -35.1480  122.4980  -68.3190 O.3   247  SER247     -0.2180
    113  N        -43.0210  126.8520  -63.4250 N.3   256  ARG256     -0.1245
    114  CA       -42.1110  126.0180  -62.6310 C.3   256  ARG256      0.1563
    115  C        -40.9330  126.8950  -62.2330 C.2   256  ARG256      0.2260
    116  O        -39.8020  126.6660  -62.6330 O.2   256  ARG256     -0.2867
    117  CB       -41.6300  124.8160  -63.4630 C.3   256  ARG256      0.0307
    118  CG       -40.8650  123.7510  -62.6750 C.3   256  ARG256      0.0489
    119  CD       -39.5320  123.4070  -63.3350 C.3   256  ARG256      0.2205
    120  NE       -38.6120  124.5390  -63.3440 N.pl3 256  ARG256     -0.0865
    121  CZ       -37.4100  124.5350  -63.9170 C.cat 256  ARG256      0.5346
    122  NH1      -36.9680  123.4450  -64.5450 N.pl3 256  ARG256      0.1354
    123  NH2      -36.6350  125.6190  -63.8460 N.pl3 256  ARG256      0.1354
    124  N        -31.6130  129.8630  -58.9440 N.3   260  THR260     -0.1218
    125  CA       -30.3390  129.1630  -59.0020 C.3   260  THR260      0.1862
    126  C        -29.1600  130.1170  -58.8510 C.2   260  THR260      0.2287
    127  O        -29.2710  131.3250  -59.1070 O.2   260  THR260     -0.2866
    128  CB       -30.1620  128.4420  -60.3610 C.3   260  THR260      0.1770
    129  OG1      -30.0070  129.4190  -61.3950 O.3   260  THR260     -0.2211
    130  CG2      -31.3710  127.5980  -60.6870 C.3   260  THR260      0.0375
    131  N        -24.4930  129.8230  -58.7980 N.3   262  HIS262     -0.1241
    132  CA       -23.3280  128.9540  -58.8700 C.3   262  HIS262      0.1621
    133  C        -22.1630  129.4490  -58.0380 C.2   262  HIS262      0.2264
    134  O        -21.8470  130.6420  -58.0250 O.2   262  HIS262     -0.2867
    135  CB       -22.8760  128.7800  -60.3260 C.3   262  HIS262      0.0745
    136  CG       -23.7770  127.9010  -61.1340 C.ar  262  HIS262      0.0817
    137  ND1      -24.9880  128.3300  -61.6360 N.ar  262  HIS262     -0.2268
    138  CD2      -23.6580  126.6010  -61.5000 C.ar  262  HIS262      0.1154
    139  CE1      -25.5750  127.3340  -62.2760 C.ar  262  HIS262      0.1986
    140  NE2      -24.7890  126.2730  -62.2060 N.ar  262  HIS262     -0.2212
@<TRIPOS>BOND
     1   106   105    1
     2    28    27    1
     3    28    29    2
     4    26    27    1
     5    27    30    1
     6   104   105    1
     7   104   103    1
     8    33    34    1
     9    37    34    1
    10    37    38    1
    11    34    35    1
    12   110   109    2
    13   102   103    1
    14   102    99    1
    15    30    31    1
    16    30    32    1
    17    38    39   ar
    18    38    40   ar
    19   109   108    1
    20    39    41   ar
    21    35    36    2
    22   107   108    1
    23   107   100   am
    24    99   100    1
    25    99    98    1
    26    25    24    1
    27    91    90    2
    28    40    42   ar
    29    41    42   ar
    30   108   111    1
    31   100   101    2
    32   112   111    1
    33    90    98   am
    34    90    89    1
    35    24    23    1
    36    23    22    1
    37    88    89    1
    38    19    18    1
    39    19    20    2
    40    89    92    1
    41    18    17    1
    42    18    21    1
    43    46    45    2
    44    43    44    1
    45    45    44    1
    46    44    47    1
    47    22    21    1
    48    92    93    1
    49    49    48   ar
    50    15    13    1
    51    94    93   ar
    52    94    96   ar
    53    93    95   ar
    54    96    97   ar
    55     7     8    1
    56     7     6    1
    57    95    97   ar
    58    47    48    1
    59    48    50   ar
    60    16    14    1
    61    74    73    1
    62    74    75    2
    63   122   121    1
    64    14    13    1
    65    13    10    1
    66    73    72    1
    67    73    76    1
    68     6     5    1
    69    10    11    1
    70    10     9    1
    71    79    77    1
    72    11    12    2
    73   121   123    1
    74   121   120    2
    75   117   118    1
    76   117   114    1
    77   113   114    1
    78     5     2    1
    79   120   119    1
    80   119   118    1
    81    76    77    1
    82    77    78    1
    83   116   115    2
    84   114   115    1
    85   139   140   ar
    86   139   137   ar
    87   140   138   ar
    88     2     3    1
    89     2     1    1
    90    86    84    1
    91    66    64   ar
    92    66    67   ar
    93   137   136   ar
    94     3     4    2
    95   138   136   ar
    96   129   128    1
    97    87    85    1
    98   136   135    1
    99    64    63   ar
   100    69    67   ar
   101    69    71   ar
   102    67    65   ar
   103   130   128    1
   104    84    85    1
   105    84    81    1
   106   128   125    1
   107   135   132    1
   108    71    70   ar
   109    63    65   ar
   110    63    62    1
   111    65    68   ar
   112    83    82    2
   113    82    81    1
   114    81    80    1
   115   127   126    2
   116   125   124    1
   117   125   126    1
   118    62    59    1
   119   132   131    1
   120   132   133    1
   121    70    68   ar
   122   133   134    2
   123    59    58    1
   124    59    60    1
   125    54    53    2
   126    51    52    1
   127    58    53   am
   128    53    52    1
   129    60    61    2
   130    52    55    1
   131    55    57    1
   132    55    56    1
