@<TRIPOS>MOLECULE
tmp/3oc0B04.pdb
 175 170 0 0 0
SMALL
GASTEIGER

@<TRIPOS>ATOM
      1  N         56.6130   69.3930   72.1160 N.3    87  ARG87      -0.1245
      2  CA        57.5040   68.9240   73.1580 C.3    87  ARG87       0.1563
      3  C         56.9850   69.1080   74.5660 C.2    87  ARG87       0.2260
      4  O         57.2940   68.3310   75.4500 O.2    87  ARG87      -0.2867
      5  CB        58.8580   69.6050   73.0600 C.3    87  ARG87       0.0307
      6  CG        59.9040   68.8640   73.8840 C.3    87  ARG87       0.0489
      7  CD        61.1380   69.6280   74.1570 C.3    87  ARG87       0.2205
      8  NE        61.8230   69.9270   72.9280 N.pl3  87  ARG87      -0.0865
      9  CZ        62.9100   69.2970   72.5210 C.cat  87  ARG87       0.5346
     10  NH1       63.4200   68.3390   73.2510 N.pl3  87  ARG87       0.1354
     11  NH2       63.4880   69.6000   71.3740 N.pl3  87  ARG87       0.1354
     12  N         58.8560   75.9600   71.9960 N.3   167  GLU167     -0.1231
     13  CA        60.1010   75.2600   71.7150 C.3   167  GLU167      0.1699
     14  C         61.4000   76.0070   71.9840 C.2   167  GLU167      0.2592
     15  O         62.3650   75.4070   72.3620 O.2   167  GLU167     -0.2718
     16  CB        60.1080   74.8270   70.2330 C.3   167  GLU167      0.0402
     17  CG        61.3740   74.1000   69.7810 C.3   167  GLU167      0.1161
     18  CD        61.4880   72.7280   70.4180 C.2   167  GLU167      0.3649
     19  OE1       60.4320   72.1740   70.8020 O.co2 167  GLU167     -0.2457
     20  OE2       62.6060   72.1980   70.5320 O.co2 167  GLU167     -0.2457
     21  N         61.4090   77.3160   71.8620 N.am  168  GLU168     -0.1966
     22  CA        62.6550   78.0400   71.8590 C.3   168  GLU168      0.1733
     23  C         62.7880   79.1570   72.8850 C.2   168  GLU168      0.2616
     24  O         63.8770   79.5560   73.1580 O.2   168  GLU168     -0.2715
     25  CB        62.8510   78.6760   70.4750 C.3   168  GLU168      0.0429
     26  CG        62.7550   77.7260   69.2910 C.3   168  GLU168      0.1163
     27  CD        63.9650   76.8110   69.0950 C.2   168  GLU168      0.3649
     28  OE1       65.0450   77.0130   69.6920 O.co2 168  GLU168     -0.2457
     29  OE2       63.8460   75.8400   68.3470 O.co2 168  GLU168     -0.2457
     30  N         61.7060   79.7080   73.3870 N.am  169  VAL169     -0.1977
     31  CA        61.7900   80.8390   74.2820 C.3   169  VAL169      0.1596
     32  C         61.4800   80.3670   75.6880 C.2   169  VAL169      0.2287
     33  O         62.3360   80.4410   76.5420 O.2   169  VAL169     -0.2864
     34  CB        60.7940   81.9240   73.8870 C.3   169  VAL169      0.0276
     35  CG1       60.9720   83.1120   74.7440 C.3   169  VAL169      0.0022
     36  CG2       60.9630   82.3230   72.4800 C.3   169  VAL169      0.0022
     37  N         60.1920   77.0270   76.7200 N.3   171  SER171     -0.1217
     38  CA        60.3110   75.5940   77.0010 C.3   171  SER171      0.1889
     39  C         59.1100   75.1200   77.8050 C.2   171  SER171      0.2288
     40  O         59.2130   74.3370   78.7520 O.2   171  SER171     -0.2866
     41  CB        61.5840   75.2930   77.7450 C.3   171  SER171      0.2089
     42  OG        62.6740   75.8870   77.0980 O.3   171  SER171     -0.2183
     43  N         70.8140   80.2120   75.9060 N.3   319  PHE319     -0.1227
     44  CA        69.8330   79.9680   74.8350 C.3   319  PHE319      0.1736
     45  C         68.8000   81.0810   74.9210 C.2   319  PHE319      0.2595
     46  O         67.8650   81.1640   74.1320 O.2   319  PHE319     -0.2718
     47  CB        69.1320   78.6070   75.0070 C.3   319  PHE319      0.0547
     48  CG        70.0340   77.4370   74.8230 C.ar  319  PHE319     -0.0202
     49  CD1       70.2670   76.9140   73.5790 C.ar  319  PHE319     -0.0042
     50  CD2       70.6800   76.8810   75.8940 C.ar  319  PHE319     -0.0042
     51  CE1       71.1210   75.8330   73.4300 C.ar  319  PHE319     -0.0003
     52  CE2       71.5260   75.8330   75.7290 C.ar  319  PHE319     -0.0003
     53  CZ        71.7370   75.3050   74.5120 C.ar  319  PHE319     -0.0000
     54  N         69.0090   81.9700   75.8780 N.am  320  ARG320     -0.1980
     55  CA        68.0050   82.9600   76.2380 C.3   320  ARG320      0.1597
     56  C         68.5770   83.8320   77.3510 C.2   320  ARG320      0.2287
     57  O         69.4610   83.4240   78.0900 O.2   320  ARG320     -0.2864
     58  CB        66.7750   82.2120   76.7520 C.3   320  ARG320      0.0334
     59  CG        65.6350   83.0070   77.4180 C.3   320  ARG320      0.0492
     60  CD        64.6400   82.0510   78.1230 C.3   320  ARG320      0.2205
     61  NE        65.4120   80.8380   78.3360 N.pl3 320  ARG320     -0.0865
     62  CZ        64.9620   79.5970   78.4190 C.cat 320  ARG320      0.5346
     63  NH1       63.6710   79.3030   78.5870 N.pl3 320  ARG320      0.1354
     64  NH2       65.8800   78.6320   78.4570 N.pl3 320  ARG320      0.1354
     65  N         77.2320   65.9530   68.7700 N.3   509  TYR509     -0.1241
     66  CA        76.1060   66.8760   68.7350 C.3   509  TYR509      0.1605
     67  C         76.7020   68.1830   68.2270 C.2   509  TYR509      0.2264
     68  O         76.5290   68.5650   67.0670 O.2   509  TYR509     -0.2867
     69  CB        75.4340   67.0840   70.1070 C.3   509  TYR509      0.0534
     70  CG        74.1260   67.9210   70.0300 C.ar  509  TYR509     -0.0201
     71  CD1       73.0260   67.4740   69.3040 C.ar  509  TYR509     -0.0009
     72  CD2       74.0090   69.1470   70.6760 C.ar  509  TYR509     -0.0009
     73  CE1       71.8630   68.2240   69.2130 C.ar  509  TYR509      0.0417
     74  CE2       72.8380   69.9040   70.6030 C.ar  509  TYR509      0.0417
     75  CZ        71.7670   69.4380   69.8620 C.ar  509  TYR509      0.1957
     76  OH        70.5800   70.1570   69.7830 O.3   509  TYR509     -0.2866
     77  N         69.9130   65.4630   64.8180 N.3   592  SER592     -0.1202
     78  CA        69.5000   66.8670   64.9520 C.3   592  SER592      0.2020
     79  C         70.6930   67.7440   64.6340 C.2   592  SER592      0.2618
     80  O         71.3060   67.5500   63.5850 O.2   592  SER592     -0.2717
     81  CB        68.9620   67.1160   66.3730 C.3   592  SER592      0.2103
     82  OG        67.8690   68.0090   66.3810 O.3   592  SER592     -0.2182
     83  N         71.0600   68.6830   65.4960 N.am  593  TYR593     -0.1975
     84  CA        72.2800   69.4410   65.2140 C.3   593  TYR593      0.1639
     85  C         73.3690   68.4270   64.8800 C.2   593  TYR593      0.2290
     86  O         74.0930   68.5360   63.8760 O.2   593  TYR593     -0.2864
     87  CB        72.7160   70.3490   66.3770 C.3   593  TYR593      0.0560
     88  CG        73.5810   71.4910   65.8820 C.ar  593  TYR593     -0.0198
     89  CD1       74.9250   71.3180   65.6690 C.ar  593  TYR593     -0.0009
     90  CD2       73.0370   72.7160   65.5880 C.ar  593  TYR593     -0.0009
     91  CE1       75.7020   72.3350   65.1880 C.ar  593  TYR593      0.0417
     92  CE2       73.8010   73.7320   65.1260 C.ar  593  TYR593      0.0417
     93  CZ        75.1350   73.5390   64.9260 C.ar  593  TYR593      0.1957
     94  OH        75.9100   74.5700   64.4790 O.3   593  TYR593     -0.2866
     95  N         69.4350   68.9330   60.2860 N.3   618  VAL618     -0.1245
     96  CA        69.1420   70.1830   59.6260 C.3   618  VAL618      0.1561
     97  C         70.0080   70.1330   58.3480 C.2   618  VAL618      0.2260
     98  O         71.0960   69.6120   58.3410 O.2   618  VAL618     -0.2867
     99  CB        69.5870   71.3860   60.4600 C.3   618  VAL618      0.0252
    100  CG1       69.6440   72.5980   59.6150 C.3   618  VAL618      0.0019
    101  CG2       68.6740   71.6360   61.5880 C.3   618  VAL618      0.0019
    102  N         70.1260   76.1870   56.8970 N.3   621  TRP621     -0.1241
    103  CA        69.6340   77.0350   57.9500 C.3   621  TRP621      0.1605
    104  C         68.3660   77.7680   57.6000 C.2   621  TRP621      0.2264
    105  O         67.6100   78.1000   58.4860 O.2   621  TRP621     -0.2867
    106  CB        70.7360   77.9180   58.4890 C.3   621  TRP621      0.0550
    107  CG        71.6870   77.0130   59.2450 C.ar  621  TRP621      0.0003
    108  CD1       72.9660   76.6940   58.9050 C.ar  621  TRP621      0.0946
    109  CD2       71.3940   76.2660   60.4250 C.ar  621  TRP621      0.0152
    110  NE1       73.4840   75.7960   59.8040 N.ar  621  TRP621     -0.2442
    111  CE2       72.5380   75.5350   60.7600 C.ar  621  TRP621      0.0810
    112  CE3       70.2850   76.1650   61.2500 C.ar  621  TRP621      0.0012
    113  CZ2       72.5940   74.7030   61.8700 C.ar  621  TRP621      0.0191
    114  CZ3       70.3430   75.3280   62.3410 C.ar  621  TRP621      0.0001
    115  CH2       71.4850   74.6180   62.6370 C.ar  621  TRP621      0.0015
    116  N         65.1420   75.9130   59.0350 N.3   624  TYR624     -0.1241
    117  CA        64.8340   75.7800   60.4630 C.3   624  TYR624      0.1605
    118  C         64.1990   77.0540   60.9780 C.2   624  TYR624      0.2264
    119  O         64.2610   78.0720   60.3110 O.2   624  TYR624     -0.2867
    120  CB        66.0880   75.4220   61.2520 C.3   624  TYR624      0.0534
    121  CG        65.7720   74.8440   62.5890 C.ar  624  TYR624     -0.0201
    122  CD1       64.9790   73.7370   62.6910 C.ar  624  TYR624     -0.0009
    123  CD2       66.2680   75.4010   63.7530 C.ar  624  TYR624     -0.0009
    124  CE1       64.6780   73.1940   63.9050 C.ar  624  TYR624      0.0417
    125  CE2       65.9680   74.8530   64.9770 C.ar  624  TYR624      0.0417
    126  CZ        65.1680   73.7550   65.0350 C.ar  624  TYR624      0.1957
    127  OH        64.8220   73.2060   66.2190 O.3   624  TYR624     -0.2866
    128  N         65.7480   80.1490   66.9910 N.3   628  TYR628     -0.1241
    129  CA        67.0310   79.4500   67.1680 C.3   628  TYR628      0.1605
    130  C         68.0440   79.8890   66.0900 C.2   628  TYR628      0.2264
    131  O         69.1750   80.2900   66.3940 O.2   628  TYR628     -0.2867
    132  CB        66.8180   77.9240   67.1330 C.3   628  TYR628      0.0534
    133  CG        68.0550   77.0400   67.2850 C.ar  628  TYR628     -0.0201
    134  CD1       69.0090   76.9560   66.2780 C.ar  628  TYR628     -0.0009
    135  CD2       68.2290   76.2500   68.4050 C.ar  628  TYR628     -0.0009
    136  CE1       70.1130   76.1670   66.4020 C.ar  628  TYR628      0.0417
    137  CE2       69.3440   75.4370   68.5380 C.ar  628  TYR628      0.0417
    138  CZ        70.2890   75.4130   67.5290 C.ar  628  TYR628      0.1957
    139  OH        71.4030   74.6100   67.6400 O.3   628  TYR628     -0.2866
    140  N         69.3730   83.5390   66.1550 N.3   631  ARG631     -0.1245
    141  CA        70.1290   83.8070   67.3470 C.3   631  ARG631      0.1563
    142  C         71.5960   83.5990   67.0740 C.2   631  ARG631      0.2260
    143  O         72.4200   84.3650   67.5790 O.2   631  ARG631     -0.2867
    144  CB        69.6920   82.9170   68.5050 C.3   631  ARG631      0.0307
    145  CG        70.3060   83.3550   69.8440 C.3   631  ARG631      0.0489
    146  CD        69.5590   82.8870   70.9850 C.3   631  ARG631      0.2205
    147  NE        69.5940   81.4330   71.0540 N.pl3 631  ARG631     -0.0865
    148  CZ        68.5320   80.6410   71.0580 C.cat 631  ARG631      0.5346
    149  NH1       67.3080   81.1280   70.9750 N.pl3 631  ARG631      0.1354
    150  NH2       68.7170   79.3380   71.1380 N.pl3 631  ARG631      0.1354
    151  N         59.4900   69.6610   63.9750 N.3   672  ASN672     -0.1225
    152  CA        60.6150   70.5150   64.4500 C.3   672  ASN672      0.1785
    153  C         61.6880   70.7030   63.3670 C.2   672  ASN672      0.2597
    154  O         61.8680   71.7930   62.8510 O.2   672  ASN672     -0.2718
    155  CB        61.2250   69.9400   65.7240 C.3   672  ASN672      0.1169
    156  CG        62.1310   70.9250   66.4440 C.2   672  ASN672      0.2627
    157  OD1       62.3770   70.8030   67.6790 O.2   672  ASN672     -0.2716
    158  ND2       62.6460   71.8940   65.7060 N.am  672  ASN672     -0.0877
    159  N         62.4250   69.6550   63.0390 N.am  673  VAL673     -0.1980
    160  CA        63.3350   69.7190   61.9000 C.3   673  VAL673      0.1595
    161  C         62.6230   68.9460   60.8040 C.2   673  VAL673      0.2287
    162  O         62.6580   67.7240   60.7720 O.2   673  VAL673     -0.2864
    163  CB        64.6630   69.0620   62.1560 C.3   673  VAL673      0.0276
    164  CG1       65.4540   68.9950   60.8720 C.3   673  VAL673      0.0022
    165  CG2       65.4350   69.7960   63.2130 C.3   673  VAL673      0.0022
    166  N         60.5970   64.2210   65.6680 N.3   702  HIS702     -0.1241
    167  CA        62.0280   64.4550   65.9200 C.3   702  HIS702      0.1621
    168  C         62.7170   63.4980   66.8620 C.2   702  HIS702      0.2264
    169  O         63.9280   63.3140   66.7540 O.2   702  HIS702     -0.2867
    170  CB        62.2560   65.8480   66.4870 C.3   702  HIS702      0.0745
    171  CG        63.5910   66.4310   66.1600 C.ar  702  HIS702      0.0817
    172  ND1       64.1590   66.3300   64.9110 N.ar  702  HIS702     -0.2268
    173  CD2       64.4510   67.1690   66.9090 C.ar  702  HIS702      0.1154
    174  CE1       65.3300   66.9500   64.9120 C.ar  702  HIS702      0.1986
    175  NE2       65.5260   67.4770   66.1100 N.ar  702  HIS702     -0.2212
@<TRIPOS>BOND
     1   102   103    1
     2   104   103    1
     3   104   105    2
     4   103   106    1
     5    98    97    2
     6    97    96    1
     7   106   107    1
     8   108   107   ar
     9   108   110   ar
    10   116   117    1
    11   107   109   ar
    12   100    99    1
    13    96    95    1
    14    96    99    1
    15   110   111   ar
    16   119   118    2
    17   109   111   ar
    18   109   112   ar
    19    99   101    1
    20   117   118    1
    21   117   120    1
    22   111   113   ar
    23   162   161    2
    24   161   160    1
    25   164   163    1
    26   112   114   ar
    27   120   121    1
    28   113   115   ar
    29   160   163    1
    30   160   159    1
    31   163   165    1
    32   114   115   ar
    33   121   122   ar
    34   121   123   ar
    35   122   124   ar
    36   154   153    2
    37   159   153   am
    38   153   152    1
    39    80    79    2
    40   123   125   ar
    41    86    85    2
    42   124   126   ar
    43   151   152    1
    44   152   155    1
    45    94    93    1
    46    79    78    1
    47    79    83   am
    48    77    78    1
    49    85    84    1
    50   172   174   ar
    51   172   171   ar
    52   174   175   ar
    53    93    92   ar
    54    93    91   ar
    55    78    81    1
    56   125   126   ar
    57   126   127    1
    58    92    90   ar
    59    91    89   ar
    60    84    83    1
    61    84    87    1
    62    90    88   ar
    63   166   167    1
    64    89    88   ar
    65   158   156   am
    66   155   156    1
    67    88    87    1
    68   167   170    1
    69   167   168    1
    70   130   131    2
    71   130   129    1
    72   175   173   ar
    73   140   141    1
    74   171   170    1
    75   171   173   ar
    76   134   136   ar
    77   134   133   ar
    78    81    82    1
    79   136   138   ar
    80   156   157    2
    81   169   168    2
    82   128   129    1
    83    68    67    2
    84   142   141    1
    85   142   143    2
    86   132   129    1
    87   132   133    1
    88   133   135   ar
    89   141   144    1
    90   138   139    1
    91   138   137   ar
    92    67    66    1
    93    29    27   ar
    94   135   137   ar
    95   144   145    1
    96    66    65    1
    97    66    69    1
    98    27    26    1
    99    27    28   ar
   100    73    71   ar
   101    73    75   ar
   102    26    25    1
   103    71    70   ar
   104    17    16    1
   105    17    18    1
   106    76    75    1
   107   145   146    1
   108    75    74   ar
   109    70    69    1
   110    70    72   ar
   111    16    13    1
   112    18    20   ar
   113    18    19   ar
   114    25    22    1
   115    74    72   ar
   116   149   148    1
   117   146   147    1
   118   147   148    2
   119   148   150    1
   120    11     9    1
   121    13    14    1
   122    13    12    1
   123    22    21    1
   124    22    23    1
   125    21    14   am
   126    14    15    2
   127     1     2    1
   128    36    34    1
   129     9     8    2
   130     9    10    1
   131    23    24    2
   132    23    30   am
   133     8     7    1
   134     5     2    1
   135     5     6    1
   136     2     3    1
   137    30    31    1
   138    51    49   ar
   139    51    53   ar
   140    49    48   ar
   141     6     7    1
   142    34    31    1
   143    34    35    1
   144    46    45    2
   145    31    32    1
   146    53    52   ar
   147     3     4    2
   148    48    47    1
   149    48    50   ar
   150    44    45    1
   151    44    47    1
   152    44    43    1
   153    45    54   am
   154    32    33    2
   155    52    50   ar
   156    54    55    1
   157    55    58    1
   158    55    56    1
   159    37    38    1
   160    58    59    1
   161    38    41    1
   162    38    39    1
   163    42    41    1
   164    56    57    2
   165    59    60    1
   166    39    40    2
   167    60    61    1
   168    61    62    2
   169    62    64    1
   170    62    63    1
