@<TRIPOS>MOLECULE
tmp/3oc1A00.pdb
 165 153 0 0 0
SMALL
GASTEIGER

@<TRIPOS>ATOM
      1  N         -8.8150    4.2130   23.4390 N.3    30  VAL30      -0.1245
      2  CA        -8.8100    2.7490   23.2700 C.3    30  VAL30       0.1561
      3  C         -9.5910    1.9380   24.2990 C.2    30  VAL30       0.2260
      4  O         -9.4740    2.1800   25.5170 O.2    30  VAL30      -0.2867
      5  CB        -7.3670    2.1920   23.3170 C.3    30  VAL30       0.0252
      6  CG1       -7.3620    0.7220   22.9550 C.3    30  VAL30       0.0019
      7  CG2       -6.4880    2.9630   22.3680 C.3    30  VAL30       0.0019
      8  N         -8.1790   -4.9180   20.4130 N.3    43  ALA43      -0.1245
      9  CA        -8.2020   -3.4990   20.7310 C.3    43  ALA43       0.1562
     10  C         -9.0750   -2.6840   19.7310 C.2    43  ALA43       0.2260
     11  O         -8.9790   -2.8670   18.4930 O.2    43  ALA43      -0.2867
     12  CB        -6.7850   -2.9690   20.8020 C.3    43  ALA43       0.0290
     13  N         -9.9620    1.2360   18.7600 N.3    45  LYS45      -0.1245
     14  CA        -9.6440    2.6730   18.9290 C.3    45  LYS45       0.1561
     15  C        -10.6320    3.4760   18.1210 C.2    45  LYS45       0.2260
     16  O        -10.8540    3.2170   16.8980 O.2    45  LYS45      -0.2867
     17  CB        -8.2490    2.9720   18.4190 C.3    45  LYS45       0.0271
     18  CG        -7.7000    4.3810   18.6170 C.3    45  LYS45       0.0035
     19  CD        -6.3630    4.4360   17.9090 C.3    45  LYS45       0.0206
     20  CE        -5.5370    5.7290   18.1040 C.3    45  LYS45       0.1093
     21  NZ        -4.6240    5.9250   16.8630 N.3    45  LYS45      -0.1314
     22  N         -3.8660    8.9720    6.5870 N.3    62  ARG62      -0.1231
     23  CA        -2.5370    8.3860    6.5950 C.3    62  ARG62       0.1694
     24  C         -2.5930    7.2070    7.5180 C.2    62  ARG62       0.2591
     25  O         -2.0780    6.1240    7.2160 O.2    62  ARG62      -0.2718
     26  CB        -1.5380    9.3870    7.1550 C.3    62  ARG62       0.0321
     27  CG        -0.0860    8.9450    7.2250 C.3    62  ARG62       0.0489
     28  CD         0.7940    9.9800    7.9690 C.3    62  ARG62       0.2205
     29  NE         0.8990   11.2360    7.2360 N.pl3  62  ARG62      -0.0865
     30  CZ         0.4740   12.4460    7.6390 C.cat  62  ARG62       0.5346
     31  NH1       -0.0830   12.6320    8.8240 N.pl3  62  ARG62       0.1354
     32  NH2        0.6280   13.4960    6.8330 N.pl3  62  ARG62       0.1354
     33  N         -3.2540    7.4110    8.6480 N.am   63  GLU63      -0.1979
     34  CA        -3.4590    6.3320    9.6080 C.3    63  GLU63       0.1602
     35  C         -4.1410    5.1250    8.9000 C.2    63  GLU63       0.2287
     36  O         -3.6370    4.0000    8.9700 O.2    63  GLU63      -0.2864
     37  CB        -4.2790    6.8440   10.8070 C.3    63  GLU63       0.0415
     38  CG        -4.6460    5.8470   11.8310 C.3    63  GLU63       0.1163
     39  CD        -3.4610    5.4190   12.7060 C.2    63  GLU63       0.3649
     40  OE1       -2.2990    5.6270   12.2570 O.co2  63  GLU63      -0.2457
     41  OE2       -3.6840    4.8790   13.8370 O.co2  63  GLU63      -0.2457
     42  N         -1.7830    3.4900    6.3810 N.3    66  LEU66      -0.1231
     43  CA        -0.6750    2.7050    6.9650 C.3    66  LEU66       0.1693
     44  C         -1.1430    1.3700    7.5230 C.2    66  LEU66       0.2591
     45  O         -0.5710    0.3230    7.1890 O.2    66  LEU66      -0.2718
     46  CB         0.1050    3.4540    8.0330 C.3    66  LEU66       0.0284
     47  CG         0.9910    4.6220    7.6010 C.3    66  LEU66       0.0019
     48  CD1        1.4810    5.3570    8.8460 C.3    66  LEU66       0.0001
     49  CD2        2.2070    4.1900    6.8230 C.3    66  LEU66       0.0001
     50  N         -2.1880    1.3890    8.3630 N.am   67  LEU67      -0.1980
     51  CA        -2.6890    0.1530    8.9980 C.3    67  LEU67       0.1596
     52  C         -3.1200   -0.8270    7.9330 C.2    67  LEU67       0.2287
     53  O         -2.7410   -1.9620    7.9720 O.2    67  LEU67      -0.2864
     54  CB        -3.7870    0.4210   10.0260 C.3    67  LEU67       0.0297
     55  CG        -3.1840    1.3390   11.0900 C.3    67  LEU67       0.0022
     56  CD1       -4.1920    2.0440   11.9940 C.3    67  LEU67       0.0001
     57  CD2       -2.0700    0.7330   11.8820 C.3    67  LEU67       0.0001
     58  N         -0.0400   -2.5560    6.3630 N.3    70  MET70      -0.1245
     59  CA         0.8300   -3.3680    7.2380 C.3    70  MET70       0.1570
     60  C          0.3580   -4.8430    7.4140 C.2    70  MET70       0.2261
     61  O         -0.6770   -5.1340    8.0230 O.2    70  MET70      -0.2867
     62  CB         1.0720   -2.7110    8.5800 C.3    70  MET70       0.0387
     63  CG         1.8710   -1.4020    8.5880 C.3    70  MET70       0.0595
     64  SD         3.4550   -1.2080    7.7250 S.3    70  MET70      -0.1393
     65  CE         2.8300   -0.8220    6.1120 C.3    70  MET70       0.0692
     66  N          4.6490   -6.0510   13.3900 N.3    75  VAL75      -0.1231
     67  CA         4.0970   -4.7610   13.0070 C.3    75  VAL75       0.1692
     68  C          2.5620   -4.8370   13.1530 C.2    75  VAL75       0.2591
     69  O          1.9240   -5.7840   12.6880 O.2    75  VAL75      -0.2718
     70  CB         4.3650   -4.4440   11.5050 C.3    75  VAL75       0.0266
     71  CG1        3.5500   -3.2360   11.1010 C.3    75  VAL75       0.0020
     72  CG2        5.9000   -4.2610   11.1690 C.3    75  VAL75       0.0020
     73  N          1.9940   -3.8240   13.7990 N.am   76  ILE76      -0.1980
     74  CA         0.5960   -3.7390   14.0450 C.3    76  ILE76       0.1595
     75  C         -0.1460   -3.9420   12.7550 C.2    76  ILE76       0.2287
     76  O          0.2590   -3.4720   11.6710 O.2    76  ILE76      -0.2864
     77  CB         0.2010   -2.4030   14.7620 C.3    76  ILE76       0.0276
     78  CG1       -1.2110   -2.5100   15.4080 C.3    76  ILE76       0.0022
     79  CG2        0.4350   -1.1830   13.8390 C.3    76  ILE76       0.0022
     80  CD1       -1.6610   -1.2560   16.0220 C.3    76  ILE76       0.0001
     81  N         -4.2870   -4.4890   10.9810 N.3    78  LEU78      -0.1245
     82  CA        -5.6760   -4.0410   11.1120 C.3    78  LEU78       0.1561
     83  C         -6.6450   -5.2160   10.9560 C.2    78  LEU78       0.2260
     84  O         -6.7690   -5.7700    9.8830 O.2    78  LEU78      -0.2867
     85  CB        -5.9420   -2.9380   10.0580 C.3    78  LEU78       0.0270
     86  CG        -6.7830   -1.6660   10.2340 C.3    78  LEU78       0.0019
     87  CD1       -7.9360   -1.7420    9.3210 C.3    78  LEU78       0.0001
     88  CD2       -7.1870   -1.1890   11.6890 C.3    78  LEU78       0.0001
     89  N        -10.9780    1.6780   14.6320 N.3    96  LEU96      -0.1245
     90  CA        -9.9030    0.7960   14.2320 C.3    96  LEU96       0.1561
     91  C         -9.9390   -0.3510   15.1860 C.2    96  LEU96       0.2260
     92  O        -10.0590   -0.1330   16.4070 O.2    96  LEU96      -0.2867
     93  CB        -8.5730    1.5310   14.3390 C.3    96  LEU96       0.0270
     94  CG        -8.5010    2.7480   13.4120 C.3    96  LEU96       0.0019
     95  CD1       -7.2480    3.5920   13.6220 C.3    96  LEU96       0.0001
     96  CD2       -8.6350    2.3360   11.9250 C.3    96  LEU96       0.0001
     97  N         -7.8020   -3.7360   16.2810 N.3    98  THR98      -0.1218
     98  CA        -6.5240   -4.4220   16.1710 C.3    98  THR98       0.1862
     99  C         -6.2780   -5.4040   17.3090 C.2    98  THR98       0.2287
    100  O         -7.0380   -5.4150   18.2710 O.2    98  THR98      -0.2866
    101  CB        -5.3790   -3.4010   16.0390 C.3    98  THR98       0.1770
    102  OG1       -4.2330   -4.0690   15.4770 O.3    98  THR98      -0.2211
    103  CG2       -5.0700   -2.7360   17.4000 C.3    98  THR98       0.0375
    104  N          8.9490   -2.5790    7.2320 N.3   133  ILE133     -0.1245
    105  CA         8.6070   -1.1330    7.0960 C.3   133  ILE133      0.1561
    106  C          9.5560   -0.3210    6.1890 C.2   133  ILE133      0.2260
    107  O          9.1130    0.5110    5.3790 O.2   133  ILE133     -0.2867
    108  CB         8.5110   -0.4390    8.4530 C.3   133  ILE133      0.0252
    109  CG1        7.3600   -1.0520    9.2620 C.3   133  ILE133      0.0019
    110  CG2        8.3800    1.1070    8.2830 C.3   133  ILE133      0.0019
    111  CD1        7.4210   -0.6510   10.6200 C.3   133  ILE133      0.0001
    112  N          8.6930    3.5470    4.2240 N.3   138  ILE138     -0.1231
    113  CA         8.2670    4.1730    5.4170 C.3   138  ILE138      0.1692
    114  C          9.4350    4.1720    6.3890 C.2   138  ILE138      0.2592
    115  O         10.1240    3.1680    6.5520 O.2   138  ILE138     -0.2718
    116  CB         7.1270    3.3860    6.0360 C.3   138  ILE138      0.0266
    117  CG1        6.0330    3.1450    5.0190 C.3   138  ILE138      0.0019
    118  CG2        6.5520    4.1240    7.2450 C.3   138  ILE138      0.0020
    119  CD1        5.0800    2.0320    5.4600 C.3   138  ILE138      0.0001
    120  N          9.6420    5.3160    7.0230 N.am  139  ILE139     -0.1966
    121  CA        10.5650    5.5420    8.1370 C.3   139  ILE139      0.1727
    122  C          9.6470    5.6830    9.3270 C.2   139  ILE139      0.2616
    123  O          8.6880    6.3640    9.2240 O.2   139  ILE139     -0.2715
    124  CB        11.2810    6.8860    7.9120 C.3   139  ILE139      0.0290
    125  CG1       12.1130    6.8200    6.6110 C.3   139  ILE139      0.0022
    126  CG2       12.0840    7.3150    9.1270 C.3   139  ILE139      0.0023
    127  CD1       12.8400    8.1180    6.2440 C.3   139  ILE139      0.0001
    128  N          9.9220    5.0350   10.4560 N.am  140  HIS140     -0.1973
    129  CA         9.0660    5.1510   11.6240 C.3   140  HIS140      0.1656
    130  C          9.2550    6.4810   12.3300 C.2   140  HIS140      0.2291
    131  O          8.2800    7.0670   12.6910 O.2   140  HIS140     -0.2864
    132  CB         9.3050    4.0100   12.6120 C.3   140  HIS140      0.0771
    133  CG         8.3700    4.0330   13.7990 C.ar  140  HIS140      0.0820
    134  ND1        8.3520    5.0630   14.7180 N.ar  140  HIS140     -0.2267
    135  CD2        7.4360    3.1490   14.2180 C.ar  140  HIS140      0.1154
    136  CE1        7.4300    4.8260   15.6360 C.ar  140  HIS140      0.1986
    137  NE2        6.8640    3.6650   15.3590 N.ar  140  HIS140     -0.2212
    138  N          5.6920   -3.7000   16.2380 N.3   158  ILE158     -0.1231
    139  CA         5.8770   -2.2620   16.1620 C.3   158  ILE158      0.1692
    140  C          4.5670   -1.4620   15.9420 C.2   158  ILE158      0.2592
    141  O          3.6620   -1.8660   15.1970 O.2   158  ILE158     -0.2718
    142  CB         6.8990   -1.9280   15.0790 C.3   158  ILE158      0.0266
    143  CG1        8.2450   -2.5900   15.3930 C.3   158  ILE158      0.0019
    144  CG2        7.0130   -0.4220   14.8930 C.3   158  ILE158      0.0020
    145  CD1        9.0660   -2.7760   14.1230 C.3   158  ILE158      0.0001
    146  N          4.4810   -0.3010   16.5800 N.am  159  LEU159     -0.1966
    147  CA         3.3460    0.6020   16.3380 C.3   159  LEU159      0.1728
    148  C          3.7650    2.0680   16.5480 C.2   159  LEU159      0.2616
    149  O          4.9670    2.3770   16.7500 O.2   159  LEU159     -0.2715
    150  CB         2.1670    0.2270   17.2730 C.3   159  LEU159      0.0311
    151  CG         2.4040    0.3150   18.8010 C.3   159  LEU159      0.0022
    152  CD1        1.2140    0.8860   19.6030 C.3   159  LEU159      0.0001
    153  CD2        2.7580   -1.0510   19.3120 C.3   159  LEU159      0.0001
    154  N          2.7600    2.9530   16.4940 N.am  160  ASP160     -0.1957
    155  CA         2.8930    4.3810   16.8170 C.3   160  ASP160      0.1840
    156  C          1.7390    4.8000   17.7060 C.2   160  ASP160      0.2622
    157  O          0.6300    4.3970   17.4670 O.2   160  ASP160     -0.2715
    158  CB         2.8870    5.2180   15.5450 C.3   160  ASP160      0.1450
    159  CG         3.6730    6.5400   15.6890 C.2   160  ASP160      0.3671
    160  OD1        4.1950    6.9190   16.7720 O.co2 160  ASP160     -0.2456
    161  OD2        3.8040    7.2070   14.6660 O.co2 160  ASP160     -0.2456
    162  N          1.9760    5.6170   18.7240 N.am  161  GLY161     -0.1954
    163  CA         0.9850    5.7530   19.8230 C.3   161  GLY161      0.1869
    164  C          0.4020    7.1490   20.0170 C.2   161  GLY161      0.2309
    165  O          0.4390    8.0030   19.1010 O.2   161  GLY161     -0.2863
@<TRIPOS>BOND
     1   112   113    1
     2   117   119    1
     3   117   116    1
     4   107   106    2
     5   113   116    1
     6   113   114    1
     7   116   118    1
     8    65    64    1
     9   106   105    1
    10   127   125    1
    11    58    59    1
    12    42    43    1
    13   114   115    2
    14   114   120   am
    15    22    23    1
    16    23    26    1
    17    23    24    1
    18   125   124    1
    19    49    47    1
    20    32    30    1
    21    43    44    1
    22    43    46    1
    23   120   121    1
    24   105   104    1
    25   105   108    1
    26    26    27    1
    27    45    44    2
    28    25    24    2
    29    27    28    1
    30    29    30    2
    31    29    28    1
    32    59    60    1
    33    59    62    1
    34    60    61    2
    35    24    33   am
    36    44    50   am
    37    47    46    1
    38    47    48    1
    39    30    31    1
    40    64    63    1
    41   124   121    1
    42   124   126    1
    43    52    53    2
    44    52    51    1
    45   121   122    1
    46   110   108    1
    47    50    51    1
    48   108   109    1
    49    62    63    1
    50    33    34    1
    51    35    36    2
    52    35    34    1
    53    51    54    1
    54   123   122    2
    55   109   111    1
    56    87    86    1
    57   122   128   am
    58    34    37    1
    59    84    83    2
    60    54    55    1
    61    85    86    1
    62    85    82    1
    63    86    88    1
    64   128   129    1
    65    37    38    1
    66    83    82    1
    67    81    82    1
    68    55    57    1
    69    55    56    1
    70    71    70    1
    71    72    70    1
    72    70    67    1
    73   129   130    1
    74   129   132    1
    75    76    75    2
    76    38    39    1
    77    96    94    1
    78    40    39   ar
    79   130   131    2
    80   132   133    1
    81    69    68    2
    82    39    41   ar
    83    75    74    1
    84    67    68    1
    85    67    66    1
    86    68    73   am
    87    94    95    1
    88    94    93    1
    89    73    74    1
    90   133   135   ar
    91   133   134   ar
    92    79    77    1
    93    74    77    1
    94   145   143    1
    95   135   137   ar
    96    90    93    1
    97    90    89    1
    98    90    91    1
    99   161   159   ar
   100   134   136   ar
   101    77    78    1
   102   144   142    1
   103   142   143    1
   104   142   139    1
   105    91    92    2
   106   141   140    2
   107   137   136   ar
   108    78    80    1
   109   102   101    1
   110   158   159    1
   111   158   155    1
   112   159   160   ar
   113   140   139    1
   114   140   146   am
   115   101    98    1
   116   101   103    1
   117   139   138    1
   118    98    97    1
   119    98    99    1
   120   147   148    1
   121   147   146    1
   122   147   150    1
   123   154   148   am
   124   154   155    1
   125   148   149    2
   126   155   156    1
   127    21    20    1
   128    16    15    2
   129   150   151    1
   130    99   100    2
   131   157   156    2
   132   156   162   am
   133    19    20    1
   134    19    18    1
   135    15    14    1
   136    17    18    1
   137    17    14    1
   138    11    10    2
   139   162   163    1
   140    13    14    1
   141   151   153    1
   142   151   152    1
   143   165   164    2
   144    10     9    1
   145   163   164    1
   146     8     9    1
   147     9    12    1
   148     7     5    1
   149     6     5    1
   150     2     5    1
   151     2     1    1
   152     2     3    1
   153     3     4    2
