@<TRIPOS>MOLECULE
tmp/3ocbA01.pdb
 199 189 0 0 0
SMALL
GASTEIGER

@<TRIPOS>ATOM
      1  N          8.7320   -4.8010   11.9320 N.3    13  LEU13      -0.1231
      2  CA         9.3950   -5.0130   13.2190 C.3    13  LEU13       0.1693
      3  C          8.6900   -4.3160   14.3830 C.2    13  LEU13       0.2593
      4  O          8.7590   -4.7800   15.5190 O.2    13  LEU13      -0.2718
      5  CB        10.8780   -4.6060   13.1540 C.3    13  LEU13       0.0284
      6  CG        11.8000   -5.3470   12.1770 C.3    13  LEU13       0.0019
      7  CD1       13.1750   -4.7290   12.1860 C.3    13  LEU13       0.0001
      8  CD2       11.8930   -6.8220   12.5030 C.3    13  LEU13       0.0001
      9  N          8.0150   -3.2070   14.1010 N.am   14  GLY14      -0.1942
     10  CA         7.2510   -2.5050   15.1230 C.3    14  GLY14       0.2014
     11  C          6.5120   -1.3030   14.5810 C.2    14  GLY14       0.2639
     12  O          7.0490   -0.5600   13.7620 O.2    14  GLY14      -0.2714
     13  N          5.2700   -1.1260   15.0280 N.am   15  LYS15      -0.1963
     14  CA         4.4860    0.0720   14.7230 C.3    15  LYS15       0.1728
     15  C          4.4790    0.9860   15.9340 C.2    15  LYS15       0.2616
     16  O          4.6110    0.5210   17.0660 O.2    15  LYS15      -0.2715
     17  CB         3.0400   -0.2820   14.3500 C.3    15  LYS15       0.0311
     18  CG         2.8480   -0.8790   12.9520 C.3    15  LYS15       0.0038
     19  CD         1.3810   -0.8200   12.4640 C.3    15  LYS15       0.0206
     20  CE         0.3620   -1.4560   13.4380 C.3    15  LYS15       0.1093
     21  NZ         0.5810   -2.9100   13.7410 N.3    15  LYS15      -0.1314
     22  N          4.3270    2.2830   15.6880 N.am   16  GLY16      -0.1955
     23  CA         4.2130    3.2810   16.7510 C.3    16  GLY16       0.1869
     24  C          3.2310    4.3490   16.3270 C.2    16  GLY16       0.2309
     25  O          2.6070    4.2280   15.2770 O.2    16  GLY16      -0.2863
     26  N          4.1620    7.4030   15.6530 N.3    18  PHE18      -0.1227
     27  CA         4.9310    8.3050   14.7960 C.3    18  PHE18       0.1736
     28  C          5.3060    7.6620   13.4540 C.2    18  PHE18       0.2596
     29  O          5.7160    8.3510   12.5140 O.2    18  PHE18      -0.2718
     30  CB         6.1870    8.7580   15.5490 C.3    18  PHE18       0.0547
     31  CG         6.0670    8.6450   17.0550 C.ar   18  PHE18      -0.0202
     32  CD1        6.4880    7.4780   17.7180 C.ar   18  PHE18      -0.0042
     33  CD2        5.5200    9.6900   17.8090 C.ar   18  PHE18      -0.0042
     34  CE1        6.3740    7.3530   19.1190 C.ar   18  PHE18      -0.0003
     35  CE2        5.4020    9.5850   19.2080 C.ar   18  PHE18      -0.0003
     36  CZ         5.8310    8.4090   19.8680 C.ar   18  PHE18      -0.0000
     37  N          5.1520    6.3420   13.3740 N.am   19  GLY19      -0.1942
     38  CA         5.4740    5.5960   12.1660 C.3    19  GLY19       0.2014
     39  C          5.7720    4.1420   12.4550 C.2    19  GLY19       0.2639
     40  O          5.2340    3.5670   13.4060 O.2    19  GLY19      -0.2714
     41  N          6.6390    3.5490   11.6390 N.am   20  LYS20      -0.1963
     42  CA         6.9700    2.1260   11.7570 C.3    20  LYS20       0.1728
     43  C          8.4560    1.8370   11.5350 C.2    20  LYS20       0.2616
     44  O          9.1880    2.6620   10.9790 O.2    20  LYS20      -0.2715
     45  CB         6.1060    1.2900   10.7990 C.3    20  LYS20       0.0311
     46  CG         6.2700    1.6220    9.3100 C.3    20  LYS20       0.0038
     47  CD         5.0010    1.3260    8.5140 C.3    20  LYS20       0.0206
     48  CE         5.1340    1.8310    7.0800 C.3    20  LYS20       0.1093
     49  NZ         3.8520    2.3930    6.5640 N.3    20  LYS20      -0.1314
     50  N          8.8890    0.6620   11.9840 N.am   21  VAL21      -0.1977
     51  CA        10.2440    0.1790   11.7330 C.3    21  VAL21       0.1596
     52  C         10.1680   -1.1240   10.9540 C.2    21  VAL21       0.2287
     53  O          9.5810   -2.0970   11.4280 O.2    21  VAL21      -0.2864
     54  CB        11.0380   -0.0270   13.0440 C.3    21  VAL21       0.0276
     55  CG1       12.3850   -0.7030   12.7790 C.3    21  VAL21       0.0022
     56  CG2       11.2430    1.3020   13.7440 C.3    21  VAL21       0.0022
     57  N         17.6120   -1.9640    9.6460 N.3    34  ALA34      -0.1245
     58  CA        16.3030   -1.5830   10.1710 C.3    34  ALA34       0.1562
     59  C         15.9810   -0.1440    9.7790 C.2    34  ALA34       0.2260
     60  O         16.7810    0.7690   10.0130 O.2    34  ALA34      -0.2867
     61  CB        16.2660   -1.7450   11.6680 C.3    34  ALA34       0.0290
     62  N         13.4260    3.0320   10.2110 N.3    36  LYS36      -0.1245
     63  CA        12.3530    3.7270   10.8910 C.3    36  LYS36       0.1561
     64  C         11.7490    4.6770    9.8760 C.2    36  LYS36       0.2260
     65  O         12.4590    5.4760    9.2700 O.2    36  LYS36      -0.2867
     66  CB        12.8660    4.4730   12.1330 C.3    36  LYS36       0.0271
     67  CG        11.7550    4.9340   13.0830 C.3    36  LYS36       0.0035
     68  CD        12.2310    5.1100   14.5190 C.3    36  LYS36       0.0206
     69  CE        12.8840    6.4650   14.7450 C.3    36  LYS36       0.1093
     70  NZ        12.9610    6.8030   16.1900 N.3    36  LYS36      -0.1314
     71  N          9.0320    7.5220    9.5040 N.3    38  LEU38      -0.1245
     72  CA         8.2060    8.5080   10.1920 C.3    38  LEU38       0.1561
     73  C          7.3700    9.2940    9.1990 C.2    38  LEU38       0.2260
     74  O          7.9060    9.8430    8.2350 O.2    38  LEU38      -0.2867
     75  CB         9.0910    9.4700   10.9870 C.3    38  LEU38       0.0270
     76  CG        10.0020    8.8810   12.0690 C.3    38  LEU38       0.0019
     77  CD1       11.0810    9.8740   12.4660 C.3    38  LEU38       0.0001
     78  CD2        9.2050    8.4330   13.2830 C.3    38  LEU38       0.0001
     79  N         23.3250    1.4360   18.3990 N.3    68  THR68      -0.1218
     80  CA        22.8370    1.2940   17.0330 C.3    68  THR68       0.1862
     81  C         23.4980    2.3310   16.1340 C.2    68  THR68       0.2287
     82  O         23.3720    3.5380   16.3670 O.2    68  THR68      -0.2866
     83  CB        21.3240    1.4950   16.9930 C.3    68  THR68       0.1770
     84  OG1       20.7210    0.6170   17.9390 O.3    68  THR68      -0.2211
     85  CG2       20.7700    1.1980   15.6200 C.3    68  THR68       0.0375
     86  N         19.2450    2.0040    9.8460 N.3    84  MET84      -0.1230
     87  CA        20.0960    1.6860   11.0090 C.3    84  MET84       0.1702
     88  C         20.5080    0.2150   11.0990 C.2    84  MET84       0.2592
     89  O         19.8780   -0.6470   10.4820 O.2    84  MET84      -0.2718
     90  CB        19.3710    2.0590   12.2990 C.3    84  MET84       0.0401
     91  CG        19.0530    3.5270   12.4450 C.3    84  MET84       0.0596
     92  SD        17.9340    3.8180   13.8130 S.3    84  MET84      -0.1393
     93  CE        16.3840    3.2710   13.1080 C.3    84  MET84       0.0692
     94  N         21.5550   -0.0630   11.8850 N.am   85  GLU85      -0.1966
     95  CA        21.9850   -1.4410   12.1620 C.3    85  GLU85       0.1733
     96  C         20.8250   -2.2920   12.6740 C.2    85  GLU85       0.2616
     97  O         20.1370   -1.9260   13.6230 O.2    85  GLU85      -0.2715
     98  CB        23.1280   -1.4840   13.1780 C.3    85  GLU85       0.0429
     99  CG        24.5280   -1.3310   12.6050 C.3    85  GLU85       0.1163
    100  CD        25.6220   -1.6310   13.6320 C.2    85  GLU85       0.3649
    101  OE1       26.8040   -1.7740   13.2260 O.co2  85  GLU85      -0.2457
    102  OE2       25.3080   -1.7230   14.8430 O.co2  85  GLU85      -0.2457
    103  N         20.6060   -3.4250   12.0230 N.am   86  TYR86      -0.1960
    104  CA        19.5360   -4.3380   12.4040 C.3    86  TYR86       0.1771
    105  C         19.9560   -5.1480   13.6260 C.2    86  TYR86       0.2619
    106  O         21.0510   -5.7030   13.6660 O.2    86  TYR86      -0.2715
    107  CB        19.1850   -5.2450   11.2200 C.3    86  TYR86       0.0574
    108  CG        18.1800   -6.3430   11.5090 C.ar   86  TYR86      -0.0198
    109  CD1       16.9510   -6.0640   12.1380 C.ar   86  TYR86      -0.0009
    110  CD2       18.4450   -7.6620   11.1290 C.ar   86  TYR86      -0.0009
    111  CE1       16.0240   -7.0780   12.3900 C.ar   86  TYR86       0.0417
    112  CE2       17.5260   -8.6760   11.3730 C.ar   86  TYR86       0.0417
    113  CZ        16.3170   -8.3820   12.0040 C.ar   86  TYR86       0.1957
    114  OH        15.4140   -9.4060   12.2430 O.3    86  TYR86      -0.2866
    115  N         19.0960   -5.1860   14.6340 N.am   87  ALA87      -0.1977
    116  CA        19.3710   -5.9770   15.8240 C.3    87  ALA87       0.1597
    117  C         18.4020   -7.1490   15.8510 C.2    87  ALA87       0.2287
    118  O         17.2750   -7.0260   16.3330 O.2    87  ALA87      -0.2864
    119  CB        19.2430   -5.1230   17.0720 C.3    87  ALA87       0.0319
    120  N         14.3660   -7.4770   21.6740 N.3    91  GLU91      -0.1245
    121  CA        14.4490   -6.6650   22.8910 C.3    91  GLU91       0.1567
    122  C         14.7060   -7.4980   24.1400 C.2    91  GLU91       0.2260
    123  O         14.1700   -8.5980   24.2800 O.2    91  GLU91      -0.2867
    124  CB        13.1600   -5.8640   23.0790 C.3    91  GLU91       0.0388
    125  CG        12.7880   -5.0080   21.8760 C.3    91  GLU91       0.1160
    126  CD        11.3860   -4.4250   21.9650 C.2    91  GLU91       0.3649
    127  OE1       10.6650   -4.7500   22.9450 O.co2  91  GLU91      -0.2457
    128  OE2       11.0170   -3.6430   21.0480 O.co2  91  GLU91      -0.2457
    129  N         15.6620    1.4610   29.4410 N.3   133  LYS133     -0.1245
    130  CA        14.5890    0.5450   29.8000 C.3   133  LYS133      0.1561
    131  C         14.7480   -0.7420   28.9970 C.2   133  LYS133      0.2260
    132  O         15.5210   -0.7730   28.0400 O.2   133  LYS133     -0.2867
    133  CB        13.2180    1.1890   29.5610 C.3   133  LYS133      0.0271
    134  CG        12.8430    1.4740   28.1100 C.3   133  LYS133      0.0035
    135  CD        11.5310    2.2320   28.1100 C.3   133  LYS133      0.0206
    136  CE        10.7810    2.1220   26.8060 C.3   133  LYS133      0.1093
    137  NZ         9.5170    2.9180   26.8640 N.3   133  LYS133     -0.1314
    138  N         12.8960   -2.2190   26.9080 N.3   135  GLU135     -0.1231
    139  CA        12.4230   -2.1180   25.5410 C.3   135  GLU135      0.1699
    140  C         13.4180   -1.4230   24.6170 C.2   135  GLU135      0.2592
    141  O         13.3380   -1.5700   23.4080 O.2   135  GLU135     -0.2718
    142  CB        11.0970   -1.3680   25.4940 C.3   135  GLU135      0.0402
    143  CG         9.9430   -2.0920   26.1550 C.3   135  GLU135      0.1161
    144  CD         9.7450   -1.7240   27.6180 C.2   135  GLU135      0.3649
    145  OE1       10.7100   -1.3280   28.3020 O.co2 135  GLU135     -0.2457
    146  OE2        8.6010   -1.8460   28.0860 O.co2 135  GLU135     -0.2457
    147  N         14.3380   -0.6470   25.1770 N.am  136  ASN136     -0.1974
    148  CA        15.2610    0.1220   24.3530 C.3   136  ASN136      0.1688
    149  C         16.6000   -0.5740   24.2260 C.2   136  ASN136      0.2292
    150  O         17.5270   -0.0530   23.6020 O.2   136  ASN136     -0.2864
    151  CB        15.4430    1.5380   24.9090 C.3   136  ASN136      0.1181
    152  CG        14.2680    2.4410   24.6040 C.2   136  ASN136      0.2629
    153  OD1       13.2400    1.9900   24.1000 O.2   136  ASN136     -0.2716
    154  ND2       14.4100    3.7240   24.9070 N.am  136  ASN136     -0.0877
    155  N         18.4130   -3.7780   22.8770 N.3   138  MET138     -0.1245
    156  CA        18.2830   -4.8980   21.9790 C.3   138  MET138      0.1570
    157  C         19.5430   -5.7390   21.8790 C.2   138  MET138      0.2261
    158  O         20.5850   -5.3710   22.4140 O.2   138  MET138     -0.2867
    159  CB        17.7810   -4.4250   20.6280 C.3   138  MET138      0.0387
    160  CG        16.2910   -4.2110   20.6560 C.3   138  MET138      0.0595
    161  SD        15.5490   -4.0360   19.0390 S.3   138  MET138     -0.1393
    162  CE        16.1190   -2.3790   18.7160 C.3   138  MET138      0.0692
    163  N         18.7850    1.4430   21.1680 N.3   148  THR148     -0.1203
    164  CA        18.0520    2.2030   20.1520 C.3   148  THR148      0.1994
    165  C         17.2610    3.3460   20.7730 C.2   148  THR148      0.2617
    166  O         17.2310    3.4910   21.9900 O.2   148  THR148     -0.2717
    167  CB        17.0390    1.3200   19.4190 C.3   148  THR148      0.1784
    168  OG1       16.2190    0.6300   20.3760 O.3   148  THR148     -0.2211
    169  CG2       17.7460    0.3220   18.5590 C.3   148  THR148      0.0376
    170  N         16.6190    4.1450   19.9200 N.am  149  ASP149     -0.1973
    171  CA        15.6680    5.1810   20.3370 C.3   149  ASP149      0.1709
    172  C         16.3360    6.3150   21.1090 C.2   149  ASP149      0.2293
    173  O         16.2860    6.3600   22.3390 O.2   149  ASP149     -0.2864
    174  CB        14.5170    4.5620   21.1410 C.3   149  ASP149      0.1436
    175  CG        13.8850    3.3850   20.4300 C.2   149  ASP149      0.3671
    176  OD1       13.9660    2.2610   20.9620 O.co2 149  ASP149     -0.2456
    177  OD2       13.3290    3.5770   19.3250 O.co2 149  ASP149     -0.2456
    178  N         11.0920  -10.8930   17.6230 N.3   294  PHE294     -0.1241
    179  CA        10.2210   -9.7330   17.4890 C.3   294  PHE294      0.1605
    180  C          8.7590  -10.1130   17.7230 C.2   294  PHE294      0.2264
    181  O          8.3820  -11.2770   17.5840 O.2   294  PHE294     -0.2867
    182  CB        10.3970   -9.0930   16.1140 C.3   294  PHE294      0.0534
    183  CG        11.6810   -8.3400   15.9630 C.ar  294  PHE294     -0.0203
    184  CD1       12.8470   -8.9960   15.5820 C.ar  294  PHE294     -0.0042
    185  CD2       11.7270   -6.9720   16.2090 C.ar  294  PHE294     -0.0042
    186  CE1       14.0430   -8.3020   15.4470 C.ar  294  PHE294     -0.0003
    187  CE2       12.9160   -6.2630   16.0740 C.ar  294  PHE294     -0.0003
    188  CZ        14.0790   -6.9310   15.6910 C.ar  294  PHE294     -0.0000
    189  N          3.3460   -7.7310   14.8400 N.3   298  PHE298     -0.1241
    190  CA         4.0410   -6.9760   13.7950 C.3   298  PHE298      0.1605
    191  C          4.6360   -7.8990   12.7280 C.2   298  PHE298      0.2264
    192  O          4.4460   -7.6670   11.5330 O.2   298  PHE298     -0.2867
    193  CB         5.1520   -6.0830   14.3770 C.3   298  PHE298      0.0534
    194  CG         4.7030   -5.1850   15.5000 C.ar  298  PHE298     -0.0203
    195  CD1        5.3490   -5.2270   16.7320 C.ar  298  PHE298     -0.0042
    196  CD2        3.6450   -4.2940   15.3280 C.ar  298  PHE298     -0.0042
    197  CE1        4.9480   -4.4030   17.7770 C.ar  298  PHE298     -0.0003
    198  CE2        3.2340   -3.4650   16.3690 C.ar  298  PHE298     -0.0003
    199  CZ         3.8880   -3.5210   17.5970 C.ar  298  PHE298     -0.0000
@<TRIPOS>BOND
     1    49    48    1
     2    48    47    1
     3    74    73    2
     4    47    46    1
     5    73    72    1
     6    65    64    2
     7    46    45    1
     8    71    72    1
     9    57    58    1
    10    59    60    2
    11    59    58    1
    12    86    87    1
    13    64    63    1
    14    58    61    1
    15    72    75    1
    16    62    63    1
    17    89    88    2
    18    45    42    1
    19    63    66    1
    20    52    53    2
    21    52    51    1
    22    44    43    2
    23    75    76    1
    24    87    88    1
    25    87    90    1
    26    88    94   am
    27   110   112   ar
    28   110   108   ar
    29   107   108    1
    30   107   104    1
    31   112   113   ar
    32   108   109   ar
    33   192   191    2
    34    43    42    1
    35    43    50   am
    36    41    42    1
    37    41    39   am
    38    51    50    1
    39    51    54    1
    40    94    95    1
    41     1     2    1
    42   113   114    1
    43   113   111   ar
    44   103   104    1
    45   103    96   am
    46    76    77    1
    47    76    78    1
    48    66    67    1
    49   109   111   ar
    50    95    96    1
    51    95    98    1
    52    38    39    1
    53    38    37    1
    54     6     7    1
    55     6     8    1
    56     6     5    1
    57    90    91    1
    58   104   105    1
    59    91    92    1
    60    39    40    2
    61    19    18    1
    62    19    20    1
    63    29    28    2
    64    99    98    1
    65    99   100    1
    66    96    97    2
    67   191   190    1
    68    55    54    1
    69    18    17    1
    70    54    56    1
    71    67    68    1
    72    93    92    1
    73     5     2    1
    74     2     3    1
    75   101   100   ar
    76    37    28   am
    77    20    21    1
    78    28    27    1
    79   105   106    2
    80   105   115   am
    81   100   102   ar
    82    12    11    2
    83   190   193    1
    84   190   189    1
    85     9     3   am
    86     9    10    1
    87    17    14    1
    88   193   194    1
    89     3     4    2
    90    68    69    1
    91    11    13   am
    92    11    10    1
    93   115   116    1
    94    14    13    1
    95    14    15    1
    96    69    70    1
    97    27    30    1
    98    27    26    1
    99    25    24    2
   100   196   194   ar
   101   196   198   ar
   102   186   184   ar
   103   186   188   ar
   104   194   195   ar
   105    30    31    1
   106   184   183   ar
   107    85    83    1
   108    22    15   am
   109    22    23    1
   110   188   187   ar
   111   116   117    1
   112   116   119    1
   113   117   118    2
   114    15    16    2
   115   183   182    1
   116   183   185   ar
   117   187   185   ar
   118   182   179    1
   119    81    82    2
   120    81    80    1
   121    24    23    1
   122   198   199   ar
   123   195   197   ar
   124    83    80    1
   125    83    84    1
   126    80    79    1
   127    31    32   ar
   128    31    33   ar
   129   179   178    1
   130   179   180    1
   131   181   180    2
   132   199   197   ar
   133    32    34   ar
   134    33    35   ar
   135   169   167    1
   136   162   161    1
   137   161   160    1
   138    34    36   ar
   139    35    36   ar
   140   177   175   ar
   141   167   164    1
   142   167   168    1
   143   170   171    1
   144   170   165   am
   145   164   165    1
   146   164   163    1
   147   171   172    1
   148   171   174    1
   149   175   176   ar
   150   175   174    1
   151   159   160    1
   152   159   156    1
   153   165   166    2
   154   128   126   ar
   155   172   173    2
   156   120   121    1
   157   125   126    1
   158   125   124    1
   159   157   156    1
   160   157   158    2
   161   126   127   ar
   162   156   155    1
   163   121   124    1
   164   121   122    1
   165   141   140    2
   166   150   149    2
   167   153   152    2
   168   122   123    2
   169   149   148    1
   170   148   151    1
   171   148   147    1
   172   152   154   am
   173   152   151    1
   174   140   147   am
   175   140   139    1
   176   142   139    1
   177   142   143    1
   178   139   138    1
   179   143   144    1
   180   136   137    1
   181   136   135    1
   182   144   146   ar
   183   144   145   ar
   184   132   131    2
   185   135   134    1
   186   134   133    1
   187   131   130    1
   188   129   130    1
   189   133   130    1
