@<TRIPOS>MOLECULE
tmp/3occF00.pdb
 147 137 0 0 0
SMALL
GASTEIGER

@<TRIPOS>ATOM
      1  N         27.9810   19.3400   16.9550 N.3    20  GLY20      -0.1225
      2  CA        27.4790   19.3080   18.3560 C.3    20  GLY20       0.1811
      3  C         25.9870   19.6110   18.4210 C.2    20  GLY20       0.2280
      4  O         25.2660   19.1160   19.3130 O.2    20  GLY20      -0.2866
      5  N         22.0290   22.0570   13.6350 N.3    24  ARG24      -0.1245
      6  CA        22.9850   22.0910   12.5230 C.3    24  ARG24       0.1563
      7  C         22.9440   20.7790   11.7440 C.2    24  ARG24       0.2260
      8  O         23.0300   20.7840   10.5050 O.2    24  ARG24      -0.2867
      9  CB        24.4220   22.3860   12.9990 C.3    24  ARG24       0.0307
     10  CG        25.3470   22.7510   11.7920 C.3    24  ARG24       0.0489
     11  CD        26.8550   22.8630   12.1900 C.3    24  ARG24       0.2205
     12  NE        26.9760   23.7430   13.3600 N.pl3  24  ARG24      -0.0865
     13  CZ        27.8180   23.5520   14.3820 C.cat  24  ARG24       0.5346
     14  NH1       27.7640   24.3620   15.4320 N.pl3  24  ARG24       0.1354
     15  NH2       28.6900   22.5520   14.3760 N.pl3  24  ARG24       0.1354
     16  N         25.9170   16.6050   20.7450 N.3    63  GLY63      -0.1210
     17  CA        25.8200   17.4020   21.9820 C.3    63  GLY63       0.1956
     18  C         27.1400   18.0730   22.3530 C.2    63  GLY63       0.2611
     19  O         28.1450   17.9700   21.6370 O.2    63  GLY63      -0.2717
     20  N         27.1570   18.8150   23.4550 N.am   64  MET64      -0.1979
     21  CA        28.3910   19.5400   23.7930 C.3    64  MET64       0.1605
     22  C         29.1950   18.7420   24.8050 C.2    64  MET64       0.2287
     23  O         28.6760   18.3130   25.8430 O.2    64  MET64      -0.2864
     24  CB        28.0820   20.9480   24.3670 C.3    64  MET64       0.0413
     25  CG        27.3050   21.8280   23.3770 C.3    64  MET64       0.0598
     26  SD        27.2200   23.5260   23.8990 S.3    64  MET64      -0.1393
     27  CE        26.2220   23.3750   25.4150 C.3    64  MET64       0.0692
     28  N         33.5320   14.6180   12.7920 N.3    87  ARG87      -0.1245
     29  CA        32.9460   15.7190   13.5650 C.3    87  ARG87       0.1563
     30  C         33.0780   16.9870   12.7080 C.2    87  ARG87       0.2260
     31  O         34.1570   17.2860   12.1770 O.2    87  ARG87      -0.2867
     32  CB        33.6650   15.8980   14.9060 C.3    87  ARG87       0.0307
     33  CG        33.3490   17.2220   15.6410 C.3    87  ARG87       0.0489
     34  CD        33.9360   17.2600   17.0760 C.3    87  ARG87       0.2205
     35  NE        34.1470   18.6670   17.4980 N.pl3  87  ARG87      -0.0865
     36  CZ        33.2090   19.6050   17.5570 C.cat  87  ARG87       0.5346
     37  NH1       31.9100   19.3290   17.2930 N.pl3  87  ARG87       0.1354
     38  NH2       33.5740   20.8660   17.8270 N.pl3  87  ARG87       0.1354
     39  N         32.4210   23.7120   15.5250 N.3    90  SER90      -0.1202
     40  CA        32.9670   25.0530   15.5780 C.3    90  SER90       0.2020
     41  C         34.1960   25.0370   16.5150 C.2    90  SER90       0.2619
     42  O         34.4990   24.0250   17.1340 O.2    90  SER90      -0.2717
     43  CB        31.9010   26.0420   16.0590 C.3    90  SER90       0.2103
     44  OG        31.4200   25.7130   17.3630 O.3    90  SER90      -0.2182
     45  N         34.9380   26.1260   16.5860 N.am   91  CYS91      -0.1955
     46  CA        35.9970   26.1930   17.6110 C.3    91  CYS91       0.1843
     47  C         36.3600   27.6430   17.8510 C.2    91  CYS91       0.2626
     48  O         36.0300   28.5160   17.0380 O.2    91  CYS91      -0.2714
     49  CB        37.2380   25.4100   17.1410 C.3    91  CYS91       0.0997
     50  SG        37.9900   26.0910   15.6000 S.3    91  CYS91      -0.0797
     51  N         37.0680   27.8930   18.9400 N.am   92  GLY92      -0.1954
     52  CA        37.5030   29.2490   19.2610 C.3    92  GLY92       0.1869
     53  C         38.9980   29.3650   19.0070 C.2    92  GLY92       0.2309
     54  O         39.7740   28.4980   19.3770 O.2    92  GLY92      -0.2863
     55  N         38.4500   21.1540   25.4260 N.3   156  ALA156     -0.1245
     56  CA        38.2790   21.6580   26.7970 C.3   156  ALA156      0.1562
     57  C         37.0680   20.9910   27.4550 C.2   156  ALA156      0.2260
     58  O         36.0090   20.8010   26.8090 O.2   156  ALA156     -0.2867
     59  CB        38.0630   23.2120   26.7520 C.3   156  ALA156      0.0290
     60  N         34.1720   25.3710   29.0660 N.3   159  PHE159     -0.1241
     61  CA        34.0460   26.5240   28.1850 C.3   159  PHE159      0.1605
     62  C         34.3640   27.7850   28.9930 C.2   159  PHE159      0.2264
     63  O         35.1960   28.6060   28.5450 O.2   159  PHE159     -0.2867
     64  CB        32.6180   26.5720   27.6190 C.3   159  PHE159      0.0534
     65  CG        32.3740   27.6870   26.6670 C.ar  159  PHE159     -0.0203
     66  CD1       32.0190   28.9380   27.1350 C.ar  159  PHE159     -0.0042
     67  CD2       32.4470   27.4750   25.2850 C.ar  159  PHE159     -0.0042
     68  CE1       31.7210   29.9580   26.2560 C.ar  159  PHE159     -0.0003
     69  CE2       32.1370   28.5020   24.3890 C.ar  159  PHE159     -0.0003
     70  CZ        31.8190   29.7390   24.8750 C.ar  159  PHE159     -0.0000
     71  N         45.1450   29.4570   27.7720 N.3   167  PHE167     -0.1241
     72  CA        45.0650   29.8270   26.3480 C.3   167  PHE167      0.1605
     73  C         46.4290   30.2970   25.8400 C.2   167  PHE167      0.2264
     74  O         46.7330   30.1170   24.6560 O.2   167  PHE167     -0.2867
     75  CB        44.0180   30.9420   26.1070 C.3   167  PHE167      0.0534
     76  CG        42.6080   30.5130   26.4260 C.ar  167  PHE167     -0.0203
     77  CD1       41.7900   31.3170   27.1910 C.ar  167  PHE167     -0.0042
     78  CD2       42.1190   29.2990   25.9530 C.ar  167  PHE167     -0.0042
     79  CE1       40.4860   30.9350   27.4810 C.ar  167  PHE167     -0.0003
     80  CE2       40.8270   28.9040   26.2340 C.ar  167  PHE167     -0.0003
     81  CZ        40.0050   29.7150   26.9960 C.ar  167  PHE167     -0.0000
     82  N         40.0490   25.8270   19.8420 N.3   178  VAL178     -0.1231
     83  CA        39.6030   25.1890   21.0750 C.3   178  VAL178      0.1692
     84  C         38.1770   24.7400   20.8720 C.2   178  VAL178      0.2592
     85  O         37.3340   25.5320   20.4660 O.2   178  VAL178     -0.2718
     86  CB        39.6090   26.1930   22.2320 C.3   178  VAL178      0.0266
     87  CG1       39.1230   25.5050   23.5340 C.3   178  VAL178      0.0020
     88  CG2       41.0570   26.8240   22.3830 C.3   178  VAL178      0.0020
     89  N         37.9250   23.4340   21.0610 N.am  179  GLU179     -0.1966
     90  CA        36.5520   22.9760   21.0630 C.3   179  GLU179      0.1733
     91  C         36.3770   22.0920   22.2910 C.2   179  GLU179      0.2616
     92  O         37.0640   22.3340   23.3120 O.2   179  GLU179     -0.2715
     93  CB        36.1420   22.3600   19.7060 C.3   179  GLU179      0.0429
     94  CG        37.1890   21.4950   19.0600 C.3   179  GLU179      0.1163
     95  CD        37.2030   20.1230   19.6750 C.2   179  GLU179      0.3649
     96  OE1       38.0940   19.8770   20.5110 O.co2 179  GLU179     -0.2457
     97  OE2       36.3340   19.2850   19.3540 O.co2 179  GLU179     -0.2457
     98  N         35.4580   21.1220   22.2750 N.am  180  MET180     -0.1963
     99  CA        35.1780   20.4000   23.5120 C.3   180  MET180      0.1736
    100  C         34.9660   18.9170   23.3010 C.2   180  MET180      0.2616
    101  O         34.3770   18.2620   24.1480 O.2   180  MET180     -0.2715
    102  CB        33.9880   21.0040   24.2680 C.3   180  MET180      0.0427
    103  CG        34.2530   22.4840   24.7410 C.3   180  MET180      0.0599
    104  SD        32.7820   23.2450   25.4510 S.3   180  MET180     -0.1393
    105  CE        32.4850   22.1250   26.8330 C.3   180  MET180      0.0692
    106  N         35.4370   18.3860   22.1730 N.am  181  GLU181     -0.1977
    107  CA        34.9580   17.0470   21.7860 C.3   181  GLU181      0.1602
    108  C         35.9870   16.1500   21.1080 C.2   181  GLU181      0.2287
    109  O         36.0140   14.9230   21.3230 O.2   181  GLU181     -0.2864
    110  CB        33.7260   17.1630   20.8540 C.3   181  GLU181      0.0415
    111  CG        32.4820   17.7280   21.5540 C.3   181  GLU181      0.1163
    112  CD        32.3830   19.2490   21.5100 C.2   181  GLU181      0.3649
    113  OE1       33.2140   19.9260   20.8470 O.co2 181  GLU181     -0.2457
    114  OE2       31.3950   19.7550   22.1170 O.co2 181  GLU181     -0.2457
    115  N         34.5560   29.9800   14.9760 N.3   203  SER203     -0.1202
    116  CA        33.3110   30.7020   15.2310 C.3   203  SER203      0.2020
    117  C         33.5190   31.8530   16.2150 C.2   203  SER203      0.2618
    118  O         32.6570   32.7510   16.3090 O.2   203  SER203     -0.2717
    119  CB        32.2780   29.7380   15.8080 C.3   203  SER203      0.2103
    120  OG        32.8360   29.1160   16.9510 O.3   203  SER203     -0.2182
    121  N         34.6700   31.8610   16.9070 N.am  204  ASP204     -0.1973
    122  CA        34.9460   32.8340   17.9810 C.3   204  ASP204      0.1709
    123  C         36.4410   33.0930   17.9290 C.2   204  ASP204      0.2293
    124  O         37.2050   32.1800   17.6460 O.2   204  ASP204     -0.2864
    125  CB        34.6960   32.1610   19.3480 C.3   204  ASP204      0.1436
    126  CG        33.2510   31.8160   19.5610 C.2   204  ASP204      0.3671
    127  OD1       32.8910   30.6430   19.3300 O.co2 204  ASP204     -0.2456
    128  OD2       32.4640   32.7440   19.8880 O.co2 204  ASP204     -0.2456
    129  N         39.0510   33.8620   20.8500 N.3   206  ILE206     -0.1245
    130  CA        39.1030   33.9130   22.3000 C.3   206  ILE206      0.1561
    131  C         39.8560   35.1250   22.8090 C.2   206  ILE206      0.2260
    132  O         39.5040   35.6520   23.8610 O.2   206  ILE206     -0.2867
    133  CB        39.6580   32.5650   22.8580 C.3   206  ILE206      0.0252
    134  CG1       38.6240   31.4740   22.5920 C.3   206  ILE206      0.0019
    135  CG2       40.0870   32.7170   24.3670 C.3   206  ILE206      0.0019
    136  CD1       39.1930   30.0290   22.7110 C.3   206  ILE206      0.0001
    137  N         26.1720   30.0790   13.5050 N.3   217  ARG217     -0.1245
    138  CA        26.7220   28.7670   13.8270 C.3   217  ARG217      0.1563
    139  C         25.8670   27.6260   13.2940 C.2   217  ARG217      0.2260
    140  O         26.3680   26.5570   12.9430 O.2   217  ARG217     -0.2867
    141  CB        26.9400   28.6350   15.3480 C.3   217  ARG217      0.0307
    142  CG        27.9190   29.6650   15.8960 C.3   217  ARG217      0.0489
    143  CD        27.6730   29.9390   17.4260 C.3   217  ARG217      0.2205
    144  NE        28.2690   31.2090   17.8550 N.pl3 217  ARG217     -0.0865
    145  CZ        29.4650   31.3070   18.4350 C.cat 217  ARG217      0.5346
    146  NH1       30.1540   30.2120   18.7090 N.pl3 217  ARG217      0.1354
    147  NH2       29.9680   32.5020   18.7490 N.pl3 217  ARG217      0.1354
@<TRIPOS>BOND
     1     8     7    2
     2     7     6    1
     3    10    11    1
     4    10     9    1
     5    31    30    2
     6    11    12    1
     7     6     9    1
     8     6     5    1
     9    30    29    1
    10    28    29    1
    11   140   139    2
    12   139   138    1
    13    12    13    2
    14   137   138    1
    15    29    32    1
    16   138   141    1
    17    15    13    1
    18    13    14    1
    19    32    33    1
    20   115   116    1
    21   116   119    1
    22   116   117    1
    23   141   142    1
    24    39    40    1
    25    40    43    1
    26    40    41    1
    27    50    49    1
    28    33    34    1
    29   119   120    1
    30   142   143    1
    31    43    44    1
    32   117   118    2
    33   117   121   am
    34    41    45   am
    35    41    42    2
    36    45    46    1
    37   121   122    1
    38     1     2    1
    39    48    47    2
    40    34    35    1
    41    49    46    1
    42    37    36    1
    43   143   144    1
    44    35    36    2
    45    36    38    1
    46    46    47    1
    47   124   123    2
    48    47    51   am
    49   144   145    2
    50   123   122    1
    51   122   125    1
    52     2     3    1
    53     3     4    2
    54   145   146    1
    55   145   147    1
    56    51    52    1
    57    53    52    1
    58    53    54    2
    59    94    95    1
    60    94    93    1
    61   127   126   ar
    62   125   126    1
    63    97    95   ar
    64   126   128   ar
    65    95    96   ar
    66    93    90    1
    67    82    83    1
    68    85    84    2
    69    16    17    1
    70   113   112   ar
    71   129   130    1
    72   110   111    1
    73   110   107    1
    74    84    89   am
    75    84    83    1
    76    89    90    1
    77    90    91    1
    78    83    86    1
    79   108   109    2
    80   108   107    1
    81   112   111    1
    82   112   114   ar
    83    19    18    2
    84   107   106    1
    85    17    18    1
    86   106   100   am
    87    86    88    1
    88    86    87    1
    89    98    91   am
    90    98    99    1
    91    91    92    2
    92   130   131    1
    93   130   133    1
    94    18    20   am
    95   134   136    1
    96   134   133    1
    97   131   132    2
    98   133   135    1
    99   100    99    1
   100   100   101    2
   101    25    26    1
   102    25    24    1
   103    20    21    1
   104    99   102    1
   105    21    24    1
   106    21    22    1
   107    26    27    1
   108   102   103    1
   109    69    70   ar
   110    69    67   ar
   111    74    73    2
   112   103   104    1
   113    22    23    2
   114    70    68   ar
   115    67    65   ar
   116    55    56    1
   117   104   105    1
   118    73    72    1
   119    78    80   ar
   120    78    76   ar
   121    75    72    1
   122    75    76    1
   123    80    81   ar
   124    68    66   ar
   125    72    71    1
   126    76    77   ar
   127    65    66   ar
   128    65    64    1
   129    59    56    1
   130    56    57    1
   131    58    57    2
   132    81    79   ar
   133    77    79   ar
   134    64    61    1
   135    61    62    1
   136    61    60    1
   137    63    62    2
