@<TRIPOS>MOLECULE
tmp/3ocdC00.pdb
 246 237 0 0 0
SMALL
GASTEIGER

@<TRIPOS>ATOM
      1  N          6.5250  -29.4990   53.6500 N.3   127  PHE127     -0.1241
      2  CA         5.1510  -29.9680   53.7260 C.3   127  PHE127      0.1605
      3  C          4.9640  -31.1740   52.8160 C.2   127  PHE127      0.2264
      4  O          4.1890  -32.0870   53.1230 O.2   127  PHE127     -0.2867
      5  CB         4.2020  -28.8480   53.3090 C.3   127  PHE127      0.0534
      6  CG         2.7550  -29.1170   53.6300 C.ar  127  PHE127     -0.0203
      7  CD1        2.2570  -28.8830   54.9080 C.ar  127  PHE127     -0.0042
      8  CD2        1.8830  -29.5690   52.6490 C.ar  127  PHE127     -0.0042
      9  CE1        0.9170  -29.1220   55.2100 C.ar  127  PHE127     -0.0003
     10  CE2        0.5390  -29.8030   52.9460 C.ar  127  PHE127     -0.0003
     11  CZ         0.0620  -29.5740   54.2310 C.ar  127  PHE127     -0.0000
     12  N          6.0960  -40.6810   54.9880 N.3   136  PHE136     -0.1227
     13  CA         5.2010  -39.6050   55.4110 C.3   136  PHE136      0.1736
     14  C          5.7430  -38.2040   55.1340 C.2   136  PHE136      0.2596
     15  O          6.9410  -37.9440   55.2840 O.2   136  PHE136     -0.2718
     16  CB         4.8740  -39.7390   56.9060 C.3   136  PHE136      0.0547
     17  CG         3.7850  -40.7430   57.2190 C.ar  136  PHE136     -0.0202
     18  CD1        3.2320  -41.5430   56.2240 C.ar  136  PHE136     -0.0042
     19  CD2        3.3300  -40.9000   58.5260 C.ar  136  PHE136     -0.0042
     20  CE1        2.2390  -42.4780   56.5160 C.ar  136  PHE136     -0.0003
     21  CE2        2.3300  -41.8300   58.8290 C.ar  136  PHE136     -0.0003
     22  CZ         1.7880  -42.6250   57.8250 C.ar  136  PHE136     -0.0000
     23  N          4.8350  -37.3250   54.7110 N.am  137  SER137     -0.1938
     24  CA         5.0250  -35.8820   54.7150 C.3   137  SER137      0.2055
     25  C          3.7750  -35.3080   55.3530 C.2   137  SER137      0.2643
     26  O          2.7880  -36.0350   55.5270 O.2   137  SER137     -0.2714
     27  CB         5.1690  -35.3440   53.2960 C.3   137  SER137      0.2130
     28  OG         3.9160  -35.2570   52.6350 O.3   137  SER137     -0.2179
     29  N          3.8060  -34.0220   55.7050 N.am  138  CYS138     -0.1967
     30  CA         2.6290  -33.3280   56.2600 C.3   138  CYS138      0.1712
     31  C          1.4330  -33.4660   55.3340 C.2   138  CYS138      0.2296
     32  O          0.2890  -33.5780   55.7880 O.2   138  CYS138     -0.2864
     33  CB         2.9110  -31.8370   56.4570 C.3   138  CYS138      0.0983
     34  SG         4.4880  -31.4130   57.2460 S.3   138  CYS138     -0.0798
     35  N          0.6980  -35.9230   53.3840 N.3   140  THR140     -0.1203
     36  CA         0.1290  -37.2690   53.3360 C.3   140  THR140      0.1994
     37  C         -1.3440  -37.2220   53.7540 C.2   140  THR140      0.2618
     38  O         -2.2140  -37.8390   53.1220 O.2   140  THR140     -0.2717
     39  CB         0.8590  -38.2480   54.2980 C.3   140  THR140      0.1784
     40  OG1        2.2730  -38.2000   54.0780 O.3   140  THR140     -0.2211
     41  CG2        0.3730  -39.6630   54.0850 C.3   140  THR140      0.0376
     42  N         -1.5990  -36.4560   54.8080 N.am  141  CYS141     -0.1955
     43  CA        -2.8720  -36.4390   55.5030 C.3   141  CYS141      0.1843
     44  C         -3.6000  -35.1150   55.3630 C.2   141  CYS141      0.2625
     45  O         -4.8310  -35.0820   55.4300 O.2   141  CYS141     -0.2714
     46  CB        -2.6350  -36.7260   56.9820 C.3   141  CYS141      0.0997
     47  SG        -1.7420  -38.2540   57.2700 S.3   141  CYS141     -0.0797
     48  N         -2.8420  -34.0340   55.1600 N.am  142  HIS142     -0.1973
     49  CA        -3.4040  -32.6870   55.0590 C.3   142  HIS142      0.1656
     50  C         -3.2770  -32.1290   53.6470 C.2   142  HIS142      0.2291
     51  O         -3.1010  -30.9220   53.4640 O.2   142  HIS142     -0.2864
     52  CB        -2.7020  -31.7250   56.0230 C.3   142  HIS142      0.0771
     53  CG        -2.6160  -32.2170   57.4310 C.ar  142  HIS142      0.0820
     54  ND1       -3.7290  -32.4560   58.2090 N.ar  142  HIS142     -0.2267
     55  CD2       -1.5450  -32.4960   58.2110 C.ar  142  HIS142      0.1154
     56  CE1       -3.3460  -32.8630   59.4050 C.ar  142  HIS142      0.1986
     57  NE2       -2.0260  -32.8980   59.4320 N.ar  142  HIS142     -0.2212
     58  N         -8.3630  -39.5340   59.9070 N.3   149  ILE149     -0.1245
     59  CA        -7.6110  -40.5940   60.5370 C.3   149  ILE149      0.1561
     60  C         -8.3830  -41.0030   61.7830 C.2   149  ILE149      0.2260
     61  O         -8.5450  -40.2140   62.7100 O.2   149  ILE149     -0.2867
     62  CB        -6.1500  -40.1650   60.8020 C.3   149  ILE149      0.0252
     63  CG1       -5.3400  -40.4020   59.5160 C.3   149  ILE149      0.0019
     64  CG2       -5.5490  -40.9130   62.0140 C.3   149  ILE149      0.0019
     65  CD1       -3.9540  -39.8440   59.5140 C.3   149  ILE149      0.0001
     66  N        -10.3260  -38.4880   63.7980 N.3   152  GLN152     -0.1231
     67  CA        -9.6530  -37.2080   63.7150 C.3   152  GLN152      0.1698
     68  C         -9.8730  -36.6860   62.3160 C.2   152  GLN152      0.2592
     69  O         -9.4030  -37.2820   61.3430 O.2   152  GLN152     -0.2718
     70  CB        -8.1510  -37.3380   64.0030 C.3   152  GLN152      0.0381
     71  CG        -7.7890  -37.8780   65.3870 C.3   152  GLN152      0.0905
     72  CD        -7.8800  -36.8390   66.4980 C.2   152  GLN152      0.2608
     73  OE1       -7.3120  -37.0330   67.5720 O.2   152  GLN152     -0.2717
     74  NE2       -8.6000  -35.7340   66.2520 N.am  152  GLN152     -0.0878
     75  N        -10.6100  -35.5820   62.2280 N.am  153  ALA153     -0.1966
     76  CA       -10.8650  -34.9030   60.9720 C.3   153  ALA153      0.1728
     77  C         -9.5840  -34.2440   60.4810 C.2   153  ALA153      0.2616
     78  O         -8.9480  -33.4850   61.2060 O.2   153  ALA153     -0.2715
     79  CB       -11.9730  -33.8610   61.1480 C.3   153  ALA153      0.0334
     80  N         -9.2110  -34.5470   59.2450 N.am  154  LEU154     -0.1964
     81  CA        -7.9910  -34.0140   58.6580 C.3   154  LEU154      0.1713
     82  C         -8.2270  -32.6860   57.9650 C.2   154  LEU154      0.2458
     83  O         -8.9720  -32.6220   56.9810 O.2   154  LEU154     -0.2730
     84  CB        -7.3930  -35.0150   57.6710 C.3   154  LEU154      0.0310
     85  CG        -6.6980  -36.1980   58.3290 C.3   154  LEU154      0.0022
     86  CD1       -6.3910  -37.2550   57.2930 C.3   154  LEU154      0.0001
     87  CD2       -5.4330  -35.7260   59.0440 C.3   154  LEU154      0.0001
     88  N         -7.5930  -31.6170   58.4810 N.am  155  PRO155     -0.2727
     89  CA        -7.6700  -30.3120   57.8570 C.3   155  PRO155      0.1402
     90  C         -6.7070  -30.2400   56.6810 C.2   155  PRO155      0.2269
     91  O         -5.5050  -30.4460   56.8690 O.2   155  PRO155     -0.2865
     92  CB        -7.2090  -29.3780   58.9750 C.3   155  PRO155      0.0296
     93  CG        -6.2950  -30.1990   59.7990 C.3   155  PRO155      0.0237
     94  CD        -6.7960  -31.5930   59.7260 C.3   155  PRO155      0.0939
     95  N         -4.2990  -28.5040   54.0820 N.3   157  LEU157     -0.1245
     96  CA        -3.3810  -27.3860   54.2970 C.3   157  LEU157      0.1561
     97  C         -2.4560  -27.0740   53.1030 C.2   157  LEU157      0.2260
     98  O         -1.6640  -26.1310   53.1570 O.2   157  LEU157     -0.2867
     99  CB        -2.5600  -27.6270   55.5750 C.3   157  LEU157      0.0270
    100  CG        -3.3120  -27.5150   56.9160 C.3   157  LEU157      0.0019
    101  CD1       -2.6710  -28.3790   57.9920 C.3   157  LEU157      0.0001
    102  CD2       -3.4380  -26.0570   57.3700 C.3   157  LEU157      0.0001
    103  N         -8.9220  -21.6740   59.3560 N.3   166  LEU166     -0.1231
    104  CA        -9.4710  -22.1670   60.6410 C.3   166  LEU166      0.1693
    105  C         -8.4640  -22.9820   61.4570 C.2   166  LEU166      0.2593
    106  O         -8.6660  -23.2210   62.6570 O.2   166  LEU166     -0.2718
    107  CB       -10.7430  -23.0050   60.4090 C.3   166  LEU166      0.0284
    108  CG       -11.7780  -23.0930   61.5430 C.3   166  LEU166      0.0019
    109  CD1      -12.7580  -21.9210   61.4670 C.3   166  LEU166      0.0001
    110  CD2      -12.5430  -24.4310   61.5180 C.3   166  LEU166      0.0001
    111  N         -7.3910  -23.4160   60.8040 N.am  167  THR167     -0.1939
    112  CA        -6.3370  -24.1750   61.4730 C.3   167  THR167      0.2028
    113  C         -5.3920  -23.2490   62.2340 C.2   167  THR167      0.2642
    114  O         -5.2730  -23.3570   63.4570 O.2   167  THR167     -0.2714
    115  CB        -5.5570  -25.0940   60.4860 C.3   167  THR167      0.1808
    116  OG1       -6.3550  -26.2430   60.1750 O.3   167  THR167     -0.2208
    117  CG2       -4.2090  -25.5680   61.0860 C.3   167  THR167      0.0379
    118  N         -4.7380  -22.3390   61.5130 N.am  168  MET168     -0.1976
    119  CA        -3.6990  -21.4820   62.1010 C.3   168  MET168      0.1605
    120  C         -4.2770  -20.3570   62.9690 C.2   168  MET168      0.2287
    121  O         -3.5560  -19.7270   63.7530 O.2   168  MET168     -0.2864
    122  CB        -2.7680  -20.9110   61.0160 C.3   168  MET168      0.0413
    123  CG        -1.9270  -21.9490   60.2800 C.3   168  MET168      0.0598
    124  SD        -0.8830  -22.9340   61.3800 S.3   168  MET168     -0.1393
    125  CE         0.5420  -21.8610   61.5610 C.3   168  MET168      0.0692
    126  N         -6.2100  -20.6470   65.4280 N.3   170  THR170     -0.1203
    127  CA        -6.6110  -21.2200   66.7090 C.3   170  THR170      0.1994
    128  C         -5.4340  -21.7950   67.5090 C.2   170  THR170      0.2617
    129  O         -5.6280  -22.4920   68.5180 O.2   170  THR170     -0.2717
    130  CB        -7.7280  -22.2810   66.5300 C.3   170  THR170      0.1784
    131  OG1       -7.5210  -22.9950   65.3020 O.3   170  THR170     -0.2211
    132  CG2       -9.0990  -21.6080   66.4880 C.3   170  THR170      0.0376
    133  N         -4.2170  -21.4930   67.0570 N.am  171  TRP171     -0.1975
    134  CA        -3.0070  -21.8030   67.8150 C.3   171  TRP171      0.1640
    135  C         -2.4630  -20.5080   68.3940 C.2   171  TRP171      0.2290
    136  O         -2.3580  -19.5210   67.6820 O.2   171  TRP171     -0.2864
    137  CB        -1.9720  -22.5250   66.9440 C.3   171  TRP171      0.0576
    138  CG        -2.3460  -23.9500   66.7240 C.ar  171  TRP171      0.0006
    139  CD1       -3.2300  -24.4260   65.8050 C.ar  171  TRP171      0.0946
    140  CD2       -1.8710  -25.0920   67.4530 C.ar  171  TRP171      0.0152
    141  NE1       -3.3370  -25.7860   65.9090 N.ar  171  TRP171     -0.2442
    142  CE2       -2.5140  -26.2220   66.9160 C.ar  171  TRP171      0.0810
    143  CE3       -0.9550  -25.2680   68.5060 C.ar  171  TRP171      0.0012
    144  CZ2       -2.2910  -27.5160   67.4040 C.ar  171  TRP171      0.0191
    145  CZ3       -0.7300  -26.5600   68.9890 C.ar  171  TRP171      0.0001
    146  CH2       -1.3980  -27.6640   68.4380 C.ar  171  TRP171      0.0015
    147  N         -4.9610  -27.8390   74.8210 N.3   175  ARG175     -0.1245
    148  CA        -5.2700  -29.2160   74.4450 C.3   175  ARG175      0.1563
    149  C         -5.7690  -30.0270   75.6510 C.2   175  ARG175      0.2260
    150  O         -4.9810  -30.3800   76.5330 O.2   175  ARG175     -0.2867
    151  CB        -4.0240  -29.8830   73.8400 C.3   175  ARG175      0.0307
    152  CG        -3.6150  -29.3560   72.4650 C.3   175  ARG175      0.0489
    153  CD        -2.7340  -30.3470   71.6980 C.3   175  ARG175      0.2205
    154  NE        -3.3230  -31.6860   71.5810 N.pl3 175  ARG175     -0.0865
    155  CZ        -4.1370  -32.0930   70.6000 C.cat 175  ARG175      0.5346
    156  NH1       -4.5060  -31.2720   69.6150 N.pl3 175  ARG175      0.1354
    157  NH2       -4.5920  -33.3400   70.6090 N.pl3 175  ARG175      0.1354
    158  N          2.5200  -23.8810   68.2790 N.3   184  MET184     -0.1245
    159  CA         2.8410  -24.4910   66.9970 C.3   184  MET184      0.1570
    160  C          4.2360  -25.1100   67.0120 C.2   184  MET184      0.2261
    161  O          4.5570  -25.9290   66.1490 O.2   184  MET184     -0.2867
    162  CB         2.7190  -23.4840   65.8440 C.3   184  MET184      0.0387
    163  CG         2.6330  -24.1300   64.4460 C.3   184  MET184      0.0595
    164  SD         1.2280  -25.2660   64.2760 S.3   184  MET184     -0.1393
    165  CE        -0.0980  -24.1300   64.6010 C.3   184  MET184      0.0692
    166  N          3.2310  -28.6340   67.9840 N.3   187  ARG187     -0.1231
    167  CA         2.6370  -29.3270   66.8340 C.3   187  ARG187      0.1694
    168  C          3.6830  -29.8670   65.8420 C.2   187  ARG187      0.2591
    169  O          3.7030  -31.0630   65.5430 O.2   187  ARG187     -0.2718
    170  CB         1.6710  -28.4050   66.1060 C.3   187  ARG187      0.0321
    171  CG         0.9180  -29.0940   64.9910 C.3   187  ARG187      0.0489
    172  CD        -0.5370  -29.2550   65.3460 C.3   187  ARG187      0.2205
    173  NE        -0.7970  -30.0650   66.5340 N.pl3 187  ARG187     -0.0865
    174  CZ        -1.4650  -31.2120   66.5200 C.cat 187  ARG187      0.5346
    175  NH1       -1.9100  -31.7090   65.3820 N.pl3 187  ARG187      0.1354
    176  NH2       -1.6670  -31.8850   67.6450 N.pl3 187  ARG187      0.1354
    177  N          4.5400  -28.9830   65.3350 N.am  188  MET188     -0.1979
    178  CA         5.6320  -29.3710   64.4320 C.3   188  MET188      0.1605
    179  C          6.4840  -30.5030   65.0290 C.2   188  MET188      0.2287
    180  O          6.8190  -31.4570   64.3340 O.2   188  MET188     -0.2864
    181  CB         6.5060  -28.1580   64.0910 C.3   188  MET188      0.0413
    182  CG         5.7280  -26.9160   63.6210 C.3   188  MET188      0.0598
    183  SD         5.2690  -26.9530   61.8800 S.3   188  MET188     -0.1393
    184  CE         4.2260  -25.5000   61.6900 C.3   188  MET188      0.0692
    185  N          4.0230  -33.7470   65.3410 N.3   191  MET191     -0.1230
    186  CA         3.7030  -34.3120   64.0180 C.3   191  MET191      0.1702
    187  C          4.9140  -35.0310   63.4010 C.2   191  MET191      0.2592
    188  O          4.7640  -36.1040   62.8160 O.2   191  MET191     -0.2718
    189  CB         3.1460  -33.2590   63.0470 C.3   191  MET191      0.0401
    190  CG         1.8850  -32.4760   63.4650 C.3   191  MET191      0.0596
    191  SD         0.3350  -33.3600   63.7670 S.3   191  MET191     -0.1393
    192  CE         0.5480  -33.7980   65.4970 C.3   191  MET191      0.0692
    193  N          6.1050  -34.4440   63.5330 N.am  192  TYR192     -0.1976
    194  CA         7.3500  -35.1010   63.0850 C.3   192  TYR192      0.1639
    195  C          7.6150  -36.4260   63.8100 C.2   192  TYR192      0.2290
    196  O          8.0860  -37.3960   63.1970 O.2   192  TYR192     -0.2864
    197  CB         8.5600  -34.1760   63.2350 C.3   192  TYR192      0.0560
    198  CG         8.8920  -33.3720   61.9930 C.ar  192  TYR192     -0.0198
    199  CD1        8.9640  -31.9880   62.0370 C.ar  192  TYR192     -0.0009
    200  CD2        9.1450  -34.0010   60.7760 C.ar  192  TYR192     -0.0009
    201  CE1        9.2660  -31.2450   60.8960 C.ar  192  TYR192      0.0417
    202  CE2        9.4590  -33.2580   59.6240 C.ar  192  TYR192      0.0417
    203  CZ         9.5180  -31.8870   59.6960 C.ar  192  TYR192      0.1957
    204  OH         9.8230  -31.1500   58.5640 O.3   192  TYR192     -0.2866
    205  N          5.3800  -38.5080   64.9110 N.3   194  GLN194     -0.1231
    206  CA         4.4700  -39.4240   64.2520 C.3   194  GLN194      0.1698
    207  C          4.9410  -39.7910   62.8370 C.2   194  GLN194      0.2592
    208  O          4.7020  -40.8990   62.3670 O.2   194  GLN194     -0.2718
    209  CB         3.0990  -38.7660   64.2290 C.3   194  GLN194      0.0381
    210  CG         2.0540  -39.4350   63.3810 C.3   194  GLN194      0.0905
    211  CD         0.8910  -38.5230   63.1640 C.2   194  GLN194      0.2608
    212  OE1        1.0170  -37.4840   62.5120 O.2   194  GLN194     -0.2717
    213  NE2       -0.2530  -38.8880   63.7210 N.am  194  GLN194     -0.0878
    214  N          5.6270  -38.8670   62.1700 N.am  195  MET195     -0.1979
    215  CA         6.1940  -39.1380   60.8470 C.3   195  MET195      0.1605
    216  C          7.3960  -40.0830   60.9230 C.2   195  MET195      0.2287
    217  O          8.0620  -40.3480   59.9110 O.2   195  MET195     -0.2864
    218  CB         6.5860  -37.8320   60.1570 C.3   195  MET195      0.0413
    219  CG         5.4060  -37.1160   59.4930 C.3   195  MET195      0.0598
    220  SD         5.8280  -35.5430   58.7320 S.3   195  MET195     -0.1393
    221  CE         7.3880  -35.9440   57.9410 C.3   195  MET195      0.0692
    222  N          8.2770  -24.0560   57.7900 N.3   210  LEU210     -0.1245
    223  CA         6.9870  -24.7400   57.7950 C.3   210  LEU210      0.1561
    224  C          5.8550  -23.8600   58.3460 C.2   210  LEU210      0.2260
    225  O          4.7380  -23.8870   57.8170 O.2   210  LEU210     -0.2867
    226  CB         7.0630  -26.0580   58.5700 C.3   210  LEU210      0.0270
    227  CG         7.2400  -27.3790   57.8090 C.3   210  LEU210      0.0019
    228  CD1        7.0180  -28.5350   58.7760 C.3   210  LEU210      0.0001
    229  CD2        6.2980  -27.5230   56.6050 C.3   210  LEU210      0.0001
    230  N          2.3970  -22.1770   56.3710 N.3   214  LEU214     -0.1245
    231  CA         1.0030  -22.4390   56.7450 C.3   214  LEU214      0.1561
    232  C          0.2880  -21.1330   57.0820 C.2   214  LEU214      0.2260
    233  O         -0.9170  -20.9920   56.8560 O.2   214  LEU214     -0.2867
    234  CB         0.9140  -23.4390   57.9160 C.3   214  LEU214      0.0270
    235  CG         1.4090  -24.8860   57.7530 C.3   214  LEU214      0.0019
    236  CD1        1.1010  -25.7160   59.0120 C.3   214  LEU214      0.0001
    237  CD2        0.8190  -25.5670   56.5280 C.3   214  LEU214      0.0001
    238  N         -8.8200  -27.6580   72.5250 N.3   229  LYS229     -0.1245
    239  CA        -8.7710  -28.9260   71.8130 C.3   229  LYS229      0.1561
    240  C         -8.6420  -30.0680   72.8170 C.2   229  LYS229      0.2260
    241  O         -8.5130  -31.2310   72.4400 O.2   229  LYS229     -0.2867
    242  CB        -7.5900  -28.9630   70.8270 C.3   229  LYS229      0.0271
    243  CG        -7.7610  -28.0970   69.5980 C.3   229  LYS229      0.0035
    244  CD        -6.6710  -28.3690   68.5710 C.3   229  LYS229      0.0206
    245  CE        -6.2800  -27.1060   67.8100 C.3   229  LYS229      0.1093
    246  NZ        -7.3590  -26.5760   66.9400 N.3   229  LYS229     -0.1314
@<TRIPOS>BOND
     1    28    27    1
     2     8    10   ar
     3     8     6   ar
     4     3     4    2
     5     3     2    1
     6    10    11   ar
     7    97    98    2
     8    97    96    1
     9    38    37    2
    10    27    24    1
    11     5     6    1
    12     5     2    1
    13    36    35    1
    14    36    37    1
    15    36    39    1
    16    51    50    2
    17     6     7   ar
    18    50    49    1
    19     1     2    1
    20    37    42   am
    21    40    39    1
    22    95    96    1
    23    41    39    1
    24    11     9   ar
    25    96    99    1
    26    23    24    1
    27    23    14   am
    28    24    25    1
    29    42    43    1
    30     7     9   ar
    31    12    13    1
    32    49    48    1
    33    49    52    1
    34    14    15    2
    35    14    13    1
    36    48    44   am
    37    31    32    2
    38    31    30    1
    39    25    26    2
    40    25    29   am
    41    44    45    2
    42    44    43    1
    43    13    16    1
    44    43    46    1
    45    99   100    1
    46    29    30    1
    47    52    53    1
    48    18    20   ar
    49    18    17   ar
    50    30    33    1
    51   230   231    1
    52    33    34    1
    53    20    22   ar
    54   237   235    1
    55   229   227    1
    56    90    91    2
    57    90    89    1
    58   231   232    1
    59   231   234    1
    60   233   232    2
    61    16    17    1
    62   100   102    1
    63   100   101    1
    64    83    82    2
    65    46    47    1
    66    17    19   ar
    67    86    85    1
    68    53    54   ar
    69    53    55   ar
    70    84    85    1
    71    84    81    1
    72   235   234    1
    73   235   236    1
    74   222   223    1
    75   223   224    1
    76   223   226    1
    77   227   226    1
    78   227   228    1
    79   225   224    2
    80    22    21   ar
    81    89    88    1
    82    89    92    1
    83   221   220    1
    84    82    88   am
    85    82    81    1
    86    54    56   ar
    87    55    57   ar
    88    85    87    1
    89    88    94    1
    90    19    21   ar
    91   204   203    1
    92    81    80    1
    93   220   219    1
    94    92    93    1
    95    80    77   am
    96   103   104    1
    97    56    57   ar
    98   219   218    1
    99    65    63    1
   100    63    62    1
   101   202   203   ar
   102   202   200   ar
   103   203   201   ar
   104    94    93    1
   105    58    59    1
   106   217   216    2
   107   218   215    1
   108   116   115    1
   109   123   122    1
   110   123   124    1
   111   107   104    1
   112   107   108    1
   113    77    76    1
   114    77    78    2
   115   115   117    1
   116   115   112    1
   117    59    62    1
   118    59    60    1
   119   104   105    1
   120   200   198   ar
   121    62    64    1
   122   111   105   am
   123   111   112    1
   124   215   216    1
   125   215   214    1
   126   201   199   ar
   127    76    79    1
   128    76    75    1
   129   122   119    1
   130    69    68    2
   131   124   125    1
   132   105   106    2
   133   109   108    1
   134   112   113    1
   135   118   119    1
   136   118   113   am
   137   110   108    1
   138   184   183    1
   139    60    61    2
   140   183   182    1
   141   198   199   ar
   142   198   197    1
   143   119   120    1
   144   214   207   am
   145    75    68   am
   146   113   114    2
   147    68    67    1
   148   208   207    2
   149   212   211    2
   150   188   187    2
   151   207   206    1
   152   120   121    2
   153   189   190    1
   154   189   186    1
   155   194   197    1
   156   194   193    1
   157   194   195    1
   158   211   210    1
   159   211   213   am
   160   196   195    2
   161   210   209    1
   162   187   193   am
   163   187   186    1
   164   190   191    1
   165   182   181    1
   166    67    66    1
   167    67    70    1
   168   191   192    1
   169    70    71    1
   170   186   185    1
   171   181   178    1
   172   209   206    1
   173   206   205    1
   174   164   163    1
   175   164   165    1
   176   180   179    2
   177   178   179    1
   178   178   177    1
   179   163   162    1
   180   171   172    1
   181   171   170    1
   182   131   130    1
   183   177   168   am
   184   172   173    1
   185   175   174    1
   186    71    72    1
   187   126   127    1
   188   169   168    2
   189   139   141   ar
   190   139   138   ar
   191   168   167    1
   192   162   159    1
   193   141   142   ar
   194   170   167    1
   195   161   160    2
   196    74    72   am
   197   132   130    1
   198    72    73    2
   199   174   173    2
   200   174   176    1
   201   130   127    1
   202   127   128    1
   203   138   137    1
   204   138   140   ar
   205   167   166    1
   206   142   144   ar
   207   142   140   ar
   208   246   245    1
   209   137   134    1
   210   159   160    1
   211   159   158    1
   212   133   128   am
   213   133   134    1
   214   144   146   ar
   215   140   143   ar
   216   128   129    2
   217   136   135    2
   218   245   244    1
   219   134   135    1
   220   146   145   ar
   221   143   145   ar
   222   244   243    1
   223   243   242    1
   224   156   155    1
   225   155   157    1
   226   155   154    2
   227   242   239    1
   228   154   153    1
   229   153   152    1
   230   239   238    1
   231   239   240    1
   232   241   240    2
   233   152   151    1
   234   151   148    1
   235   148   147    1
   236   148   149    1
   237   149   150    2
