@<TRIPOS>MOLECULE
tmp/3ocgA00.pdb
 176 167 0 0 0
SMALL
GASTEIGER

@<TRIPOS>ATOM
      1  N         40.4670   -0.7670   13.0590 N.3    27  VAL27      -0.1245
      2  CA        39.0890   -1.2620   13.0800 C.3    27  VAL27       0.1561
      3  C         38.1630   -0.0440   12.8490 C.2    27  VAL27       0.2260
      4  O         37.4200   -0.0080   11.8610 O.2    27  VAL27      -0.2867
      5  CB        38.7590   -2.0220   14.4040 C.3    27  VAL27       0.0252
      6  CG1       37.3190   -2.5260   14.4180 C.3    27  VAL27       0.0019
      7  CG2       39.7230   -3.1740   14.6460 C.3    27  VAL27       0.0019
      8  N         40.7110    2.1860   17.6680 N.3    35  VAL35      -0.1245
      9  CA        41.0820    0.8340   18.0410 C.3    35  VAL35       0.1561
     10  C         41.7200    0.0490   16.9050 C.2    35  VAL35       0.2260
     11  O         41.3240    0.1910   15.7440 O.2    35  VAL35      -0.2867
     12  CB        39.9630    0.0750   18.8480 C.3    35  VAL35       0.0252
     13  CG1       38.6600    0.8650   18.9490 C.3    35  VAL35       0.0019
     14  CG2       39.7160   -1.3540   18.3720 C.3    35  VAL35       0.0019
     15  N         41.7810   -6.4410   20.9320 N.3    48  ALA48      -0.1231
     16  CA        41.4430   -5.1180   20.4490 C.3    48  ALA48       0.1694
     17  C         42.2950   -4.1790   21.2950 C.2    48  ALA48       0.2592
     18  O         42.2950   -4.3120   22.5220 O.2    48  ALA48      -0.2718
     19  CB        39.9670   -4.8400   20.6450 C.3    48  ALA48       0.0304
     20  N         43.0810   -3.2850   20.6500 N.am   49  VAL49      -0.1966
     21  CA        43.9360   -2.3280   21.3810 C.3    49  VAL49       0.1727
     22  C         43.4420   -0.9160   21.1120 C.2    49  VAL49       0.2616
     23  O         43.3480   -0.4990   19.9570 O.2    49  VAL49      -0.2715
     24  CB        45.4710   -2.4380   21.1190 C.3    49  VAL49       0.0290
     25  CG1       46.2460   -1.6100   22.1310 C.3    49  VAL49       0.0023
     26  CG2       45.9730   -3.8860   21.1160 C.3    49  VAL49       0.0023
     27  N         43.1290   -0.1770   22.1630 N.am   50  LYS50      -0.1977
     28  CA        42.6400    1.1900   21.9990 C.3    50  LYS50       0.1596
     29  C         43.6500    2.1600   22.5060 C.2    50  LYS50       0.2287
     30  O         44.0780    2.0680   23.6550 O.2    50  LYS50      -0.2864
     31  CB        41.2920    1.3900   22.7350 C.3    50  LYS50       0.0298
     32  CG        40.6540    2.7840   22.6240 C.3    50  LYS50       0.0038
     33  CD        39.7440    3.0000   23.8280 C.3    50  LYS50       0.0206
     34  CE        38.6460    4.0000   23.6360 C.3    50  LYS50       0.1093
     35  NZ        37.3630    3.4960   24.1960 N.3    50  LYS50      -0.1314
     36  N         36.8380    6.1430   32.1820 N.3    68  GLU68      -0.1245
     37  CA        36.9360    4.9280   31.3730 C.3    68  GLU68       0.1567
     38  C         37.7670    3.8070   32.0310 C.2    68  GLU68       0.2260
     39  O         37.3270    2.6650   32.0750 O.2    68  GLU68      -0.2867
     40  CB        37.3800    5.2530   29.9470 C.3    68  GLU68       0.0388
     41  CG        37.3830    4.0410   29.0310 C.3    68  GLU68       0.1160
     42  CD        37.6410    4.2470   27.5560 C.2    68  GLU68       0.3649
     43  OE1       37.4570    3.2670   26.8040 O.co2  68  GLU68      -0.2457
     44  OE2       38.0300    5.3650   27.1450 O.co2  68  GLU68      -0.2457
     45  N         35.8390    2.4050   35.1560 N.3    71  LEU71      -0.1231
     46  CA        34.7190    1.6160   34.6280 C.3    71  LEU71       0.1693
     47  C         35.1800    0.2280   34.1830 C.2    71  LEU71       0.2591
     48  O         34.5520   -0.7730   34.5410 O.2    71  LEU71      -0.2718
     49  CB        34.1580    2.3480   33.4210 C.3    71  LEU71       0.0284
     50  CG        32.8040    3.0560   33.5360 C.3    71  LEU71       0.0019
     51  CD1       32.1930    3.0100   34.9250 C.3    71  LEU71       0.0001
     52  CD2       32.8310    4.3970   32.8810 C.3    71  LEU71       0.0001
     53  N         36.2860    0.1790   33.4080 N.am   72  LEU72      -0.1980
     54  CA        36.8620   -1.0450   32.8720 C.3    72  LEU72       0.1596
     55  C         37.4450   -1.9680   33.9080 C.2    72  LEU72       0.2287
     56  O         37.2490   -3.1810   33.8150 O.2    72  LEU72      -0.2864
     57  CB        37.8630   -0.7490   31.7310 C.3    72  LEU72       0.0297
     58  CG        37.1840   -0.3170   30.4370 C.3    72  LEU72       0.0022
     59  CD1       38.1560    0.2450   29.4800 C.3    72  LEU72       0.0001
     60  CD2       36.3400   -1.4440   29.8280 C.3    72  LEU72       0.0001
     61  N         32.0820   -5.8370   28.3000 N.3    81  ILE81      -0.1245
     62  CA        33.4890   -5.8390   27.8760 C.3    81  ILE81       0.1561
     63  C         34.4230   -5.7040   29.0780 C.2    81  ILE81       0.2260
     64  O         34.1460   -4.9310   29.9840 O.2    81  ILE81      -0.2867
     65  CB        33.8040   -4.8320   26.7250 C.3    81  ILE81       0.0252
     66  CG1       35.1400   -5.1760   26.0190 C.3    81  ILE81       0.0019
     67  CG2       33.8230   -3.3980   27.2260 C.3    81  ILE81       0.0019
     68  CD1       35.1660   -6.4280   25.2550 C.3    81  ILE81       0.0001
     69  N         44.4740    0.6420   26.1160 N.3   101  LEU101     -0.1245
     70  CA        43.5780   -0.3240   26.7710 C.3   101  LEU101      0.1561
     71  C         43.4040   -1.5080   25.8570 C.2   101  LEU101      0.2260
     72  O         43.1720   -1.3390   24.6500 O.2   101  LEU101     -0.2867
     73  CB        42.1960    0.3130   27.0930 C.3   101  LEU101      0.0270
     74  CG        42.1840    1.6630   27.8140 C.3   101  LEU101      0.0019
     75  CD1       40.8080    2.2880   27.7170 C.3   101  LEU101      0.0001
     76  CD2       42.5830    1.5120   29.3050 C.3   101  LEU101      0.0001
     77  N         41.4120   -5.2460   25.2800 N.3   103  THR103     -0.1203
     78  CA        40.2380   -6.0980   25.4980 C.3   103  THR103      0.1994
     79  C         40.2900   -7.2490   24.4600 C.2   103  THR103      0.2618
     80  O         41.2030   -7.2910   23.6370 O.2   103  THR103     -0.2717
     81  CB        38.9180   -5.2910   25.2930 C.3   103  THR103      0.1784
     82  OG1       38.7320   -5.0090   23.8970 O.3   103  THR103     -0.2211
     83  CG2       38.8460   -3.9980   26.1310 C.3   103  THR103      0.0376
     84  N         39.2660   -8.1300   24.4480 N.am  104  HIS104     -0.1961
     85  CA        39.1330   -9.1840   23.4450 C.3   104  HIS104      0.1787
     86  C         38.6930   -8.5070   22.1520 C.2   104  HIS104      0.2620
     87  O         38.0970   -7.4260   22.1900 O.2   104  HIS104     -0.2715
     88  CB        38.0580  -10.2120   23.8700 C.3   104  HIS104      0.0785
     89  CG        38.5460  -11.2700   24.8140 C.ar  104  HIS104      0.0821
     90  ND1       37.9840  -11.4310   26.0760 N.ar  104  HIS104     -0.2267
     91  CD2       39.5030  -12.2130   24.6390 C.ar  104  HIS104      0.1154
     92  CE1       38.6450  -12.4290   26.6420 C.ar  104  HIS104      0.1986
     93  NE2       39.5740  -12.9290   25.8220 N.ar  104  HIS104     -0.2212
     94  N         38.9580   -9.1390   21.0170 N.am  105  LEU105     -0.1963
     95  CA        38.5500   -8.6220   19.7170 C.3   105  LEU105      0.1728
     96  C         37.2360   -9.3780   19.3990 C.2   105  LEU105      0.2616
     97  O         37.2210  -10.6090   19.3690 O.2   105  LEU105     -0.2715
     98  CB        39.6490   -8.9400   18.6650 C.3   105  LEU105      0.0311
     99  CG        39.8840   -8.0160   17.4300 C.3   105  LEU105      0.0022
    100  CD1       39.8580   -8.7890   16.1140 C.3   105  LEU105      0.0001
    101  CD2       39.0050   -6.7570   17.3980 C.3   105  LEU105      0.0001
    102  N         36.1370   -8.6570   19.2250 N.am  106  MET106     -0.1963
    103  CA        34.8620   -9.3000   18.9240 C.3   106  MET106      0.1736
    104  C         34.7660   -9.4790   17.4240 C.2   106  MET106      0.2617
    105  O         35.4940   -8.8110   16.6910 O.2   106  MET106     -0.2715
    106  CB        33.6870   -8.4580   19.4740 C.3   106  MET106      0.0427
    107  CG        33.8470   -8.0830   20.9600 C.3   106  MET106      0.0599
    108  SD        33.9410   -9.4800   22.1080 S.3   106  MET106     -0.1393
    109  CE        32.3370  -10.2130   21.8540 C.3   106  MET106      0.0692
    110  N         33.9000  -10.3930   16.9790 N.am  107  GLY107     -0.1940
    111  CA        33.7270  -10.7010   15.5610 C.3   107  GLY107      0.2014
    112  C         32.8910   -9.7020   14.7960 C.2   107  GLY107      0.2639
    113  O         33.2260   -9.3340   13.6660 O.2   107  GLY107     -0.2714
    114  N         31.7710   -9.2790   15.3870 N.am  108  ALA108     -0.1963
    115  CA        30.8430   -8.3570   14.7400 C.3   108  ALA108      0.1728
    116  C         29.9450   -7.6290   15.7390 C.2   108  ALA108      0.2616
    117  O         29.7410   -8.0960   16.8570 O.2   108  ALA108     -0.2715
    118  CB        29.9760   -9.1210   13.7470 C.3   108  ALA108      0.0334
    119  N         29.3980   -6.4900   15.3130 N.am  109  ASP109     -0.1971
    120  CA        28.4430   -5.7260   16.0930 C.3   109  ASP109      0.1709
    121  C         27.0210   -6.0130   15.5880 C.2   109  ASP109      0.2293
    122  O         26.8440   -6.7160   14.5780 O.2   109  ASP109     -0.2864
    123  CB        28.7860   -4.2280   16.1090 C.3   109  ASP109      0.1436
    124  CG        28.7890   -3.5110   14.7790 C.2   109  ASP109      0.3671
    125  OD1       29.6150   -2.5980   14.6080 O.co2 109  ASP109     -0.2456
    126  OD2       27.8940   -3.7880   13.9450 O.co2 109  ASP109     -0.2456
    127  N         25.9860   -0.5540   17.4440 N.3   151  SER151     -0.1217
    128  CA        27.4470   -0.4010   17.2700 C.3   151  SER151      0.1889
    129  C         28.2820   -0.6190   18.5470 C.2   151  SER151      0.2288
    130  O         29.5100   -0.7310   18.4470 O.2   151  SER151     -0.2866
    131  CB        27.7840    0.9280   16.6020 C.3   151  SER151      0.2089
    132  OG        27.5310    2.0390   17.4460 O.3   151  SER151     -0.2183
    133  N         28.4900   -6.0420   20.7980 N.3   154  ALA154     -0.1245
    134  CA        29.3040   -6.8800   19.9560 C.3   154  ALA154      0.1562
    135  C         29.2620   -8.3440   20.3260 C.2   154  ALA154      0.2260
    136  O         29.1660   -8.7000   21.5150 O.2   154  ALA154     -0.2867
    137  CB        30.7310   -6.3580   19.9490 C.3   154  ALA154      0.0290
    138  N         29.8070   -2.6840   25.0440 N.3   164  LEU164     -0.1231
    139  CA        31.0540   -1.9240   24.9650 C.3   164  LEU164      0.1693
    140  C         31.2440   -0.6130   25.7130 C.2   164  LEU164      0.2592
    141  O         32.0690   -0.5680   26.6220 O.2   164  LEU164     -0.2718
    142  CB        31.5820   -1.7790   23.5150 C.3   164  LEU164      0.0284
    143  CG        31.9060   -3.0600   22.6650 C.3   164  LEU164      0.0019
    144  CD1       32.8930   -2.7380   21.6000 C.3   164  LEU164      0.0001
    145  CD2       32.5080   -4.1710   23.4820 C.3   164  LEU164      0.0001
    146  N         30.6660    0.4820   25.2620 N.am  165  ASP165     -0.1960
    147  CA        31.0790    1.8010   25.8150 C.3   165  ASP165      0.1840
    148  C         30.0960    2.3350   26.8150 C.2   165  ASP165      0.2622
    149  O         29.4920    3.3740   26.5810 O.2   165  ASP165     -0.2715
    150  CB        31.2910    2.8030   24.6560 C.3   165  ASP165      0.1450
    151  CG        32.2150    2.3400   23.5300 C.2   165  ASP165      0.3671
    152  OD1       33.3760    1.9450   23.8300 O.co2 165  ASP165     -0.2456
    153  OD2       31.7700    2.3450   22.3420 O.co2 165  ASP165     -0.2456
    154  N         29.9230    1.6210   27.9300 N.am  166  PHE166     -0.1960
    155  CA        28.9050    1.9710   28.9090 C.3   166  PHE166      0.1771
    156  C         28.8650    3.3400   29.6120 C.2   166  PHE166      0.2620
    157  O         28.0310    4.1530   29.2590 O.2   166  PHE166     -0.2715
    158  CB        28.5480    0.8160   29.8460 C.3   166  PHE166      0.0574
    159  CG        29.7330    0.0350   30.3270 C.ar  166  PHE166     -0.0200
    160  CD1       30.2820   -0.9780   29.5460 C.ar  166  PHE166     -0.0042
    161  CD2       30.2650    0.2620   31.5940 C.ar  166  PHE166     -0.0042
    162  CE1       31.4080   -1.6700   29.9760 C.ar  166  PHE166     -0.0003
    163  CE2       31.3690   -0.4490   32.0380 C.ar  166  PHE166     -0.0003
    164  CZ        31.9200   -1.4280   31.2360 C.ar  166  PHE166     -0.0000
    165  N         29.6270    3.6000   30.6290 N.am  167  GLY167     -0.1940
    166  CA        29.3530    4.8670   31.3320 C.3   167  GLY167      0.2014
    167  C         29.9430    6.1850   30.8500 C.2   167  GLY167      0.2638
    168  O         30.0670    7.1030   31.6580 O.2   167  GLY167     -0.2714
    169  N         30.2570    6.3140   29.5390 N.am  168  LEU168     -0.1977
    170  CA        30.8870    7.4670   28.8500 C.3   168  LEU168      0.1596
    171  C         32.4070    7.3650   28.9060 C.2   168  LEU168      0.2287
    172  O         32.9760    6.3650   28.4530 O.2   168  LEU168     -0.2864
    173  CB        30.3850    8.8730   29.2870 C.3   168  LEU168      0.0297
    174  CG        28.8990    9.2210   28.9300 C.3   168  LEU168      0.0022
    175  CD1       28.0830    9.6370   30.1910 C.3   168  LEU168      0.0001
    176  CD2       28.8110   10.3720   27.9280 C.3   168  LEU168      0.0001
@<TRIPOS>BOND
     1     4     3    2
     2     3     2    1
     3     1     2    1
     4     2     5    1
     5   113   112    2
     6   118   115    1
     7   126   124   ar
     8     5     6    1
     9     5     7    1
    10   122   121    2
    11   125   124   ar
    12   115   114    1
    13   115   116    1
    14   124   123    1
    15   112   114   am
    16   112   111    1
    17   119   116   am
    18   119   120    1
    19   111   110    1
    20   121   120    1
    21   116   117    2
    22    11    10    2
    23   120   123    1
    24   100    99    1
    25   131   128    1
    26   131   132    1
    27   105   104    2
    28    10     9    1
    29   110   104   am
    30   128   127    1
    31   128   129    1
    32   101    99    1
    33   104   103    1
    34    99    98    1
    35     8     9    1
    36     9    12    1
    37    14    12    1
    38   130   129    2
    39    98    95    1
    40    12    13    1
    41   103   102    1
    42   103   106    1
    43   102    96   am
    44    97    96    2
    45    96    95    1
    46   106   107    1
    47    95    94    1
    48   137   134    1
    49   134   135    1
    50   134   133    1
    51    23    22    2
    52   135   136    2
    53    16    19    1
    54    16    15    1
    55    16    17    1
    56    20    17   am
    57    20    21    1
    58   107   108    1
    59    94    86   am
    60    22    21    1
    61    22    27   am
    62    26    24    1
    63    24    21    1
    64    24    25    1
    65    17    18    2
    66   144   143    1
    67   109   108    1
    68    28    27    1
    69    28    29    1
    70    28    31    1
    71    86    87    2
    72    86    85    1
    73   153   151   ar
    74    29    30    2
    75    32    31    1
    76    32    33    1
    77   143   145    1
    78   143   142    1
    79    85    88    1
    80    85    84    1
    81   142   139    1
    82   151   152   ar
    83   151   150    1
    84    34    33    1
    85    34    35    1
    86    80    79    2
    87    88    89    1
    88    82    81    1
    89    84    79   am
    90    79    78    1
    91    91    89   ar
    92    91    93   ar
    93    72    71    2
    94   150   147    1
    95    89    90   ar
    96   139   138    1
    97   139   140    1
    98    68    66    1
    99   146   140   am
   100   146   147    1
   101    77    78    1
   102    81    78    1
   103    81    83    1
   104   140   141    2
   105   147   148    1
   106    93    92   ar
   107    71    70    1
   108    66    65    1
   109    90    92   ar
   110    69    70    1
   111   149   148    2
   112    65    67    1
   113    65    62    1
   114    70    73    1
   115    43    42   ar
   116   148   154   am
   117    73    74    1
   118    44    42   ar
   119    42    41    1
   120    75    74    1
   121    74    76    1
   122    62    61    1
   123    62    63    1
   124   176   174    1
   125   154   155    1
   126   172   171    2
   127   170   171    1
   128   170   173    1
   129   170   169    1
   130   155   156    1
   131   155   158    1
   132   174   173    1
   133   174   175    1
   134    41    40    1
   135    63    64    2
   136   157   156    2
   137    59    58    1
   138   169   167   am
   139   160   162   ar
   140   160   159   ar
   141   156   165   am
   142    60    58    1
   143   158   159    1
   144    40    37    1
   145   162   164   ar
   146   159   161   ar
   147    58    57    1
   148   165   166    1
   149   167   166    1
   150   167   168    2
   151   164   163   ar
   152    37    38    1
   153    37    36    1
   154   161   163   ar
   155    57    54    1
   156    38    39    2
   157    54    53    1
   158    54    55    1
   159    52    50    1
   160    53    47   am
   161    49    50    1
   162    49    46    1
   163    50    51    1
   164    56    55    2
   165    47    48    2
   166    47    46    1
   167    46    45    1
