@<TRIPOS>MOLECULE
tmp/3ochA00.pdb
 172 168 0 0 0
SMALL
GASTEIGER

@<TRIPOS>ATOM
      1  N         22.6240   24.3430  -18.7310 N.3     5  ILE5       -0.1231
      2  CA        21.9310   23.8330  -17.5370 C.3     5  ILE5        0.1692
      3  C         22.6700   24.4130  -16.3530 C.2     5  ILE5        0.2592
      4  O         23.9240   24.4050  -16.3630 O.2     5  ILE5       -0.2718
      5  CB        21.7820   22.2700  -17.5330 C.3     5  ILE5        0.0266
      6  CG1       21.1630   21.8250  -16.2220 C.3     5  ILE5        0.0019
      7  CG2       23.1740   21.5780  -17.6680 C.3     5  ILE5        0.0020
      8  CD1       20.6080   20.4140  -16.4220 C.3     5  ILE5        0.0001
      9  N         21.9420   25.0390  -15.4090 N.am    6  ALA6       -0.1966
     10  CA        22.6320   25.7610  -14.2870 C.3     6  ALA6        0.1728
     11  C         21.7410   25.7720  -13.0800 C.2     6  ALA6        0.2616
     12  O         20.5370   25.7540  -13.2180 O.2     6  ALA6       -0.2715
     13  CB        22.9170   27.2270  -14.6650 C.3     6  ALA6        0.0334
     14  N         22.3990   25.8400  -11.9140 N.am    7  ALA7       -0.1977
     15  CA        21.7520   26.0330  -10.6370 C.3     7  ALA7        0.1597
     16  C         22.0790   27.4380  -10.1620 C.2     7  ALA7        0.2287
     17  O         23.2620   27.8610  -10.0140 O.2     7  ALA7       -0.2864
     18  CB        22.2580   25.0160   -9.6290 C.3     7  ALA7        0.0319
     19  N         24.9660   24.8630   -0.2990 N.3    22  TRP22      -0.1241
     20  CA        23.7070   24.1470   -0.2550 C.3    22  TRP22       0.1605
     21  C         23.9480   22.6590   -0.4530 C.2    22  TRP22       0.2264
     22  O         25.0300   22.2370   -0.8220 O.2    22  TRP22      -0.2867
     23  CB        22.7570   24.7040   -1.3530 C.3    22  TRP22       0.0550
     24  CG        23.2750   24.7450   -2.7540 C.ar   22  TRP22       0.0003
     25  CD1       23.9270   23.7750   -3.4340 C.ar   22  TRP22       0.0946
     26  CD2       23.0670   25.8190   -3.6730 C.ar   22  TRP22       0.0152
     27  NE1       24.1450   24.1770   -4.7480 N.ar   22  TRP22      -0.2442
     28  CE2       23.6030   25.4200   -4.9150 C.ar   22  TRP22       0.0810
     29  CE3       22.4000   27.0490   -3.5690 C.ar   22  TRP22       0.0012
     30  CZ2       23.5970   26.2500   -6.0460 C.ar   22  TRP22       0.0191
     31  CZ3       22.3470   27.8910   -4.7140 C.ar   22  TRP22       0.0001
     32  CH2       22.9540   27.4840   -5.9280 C.ar   22  TRP22       0.0015
     33  N         18.5740   18.3170   -7.0220 N.3    27  ASP27      -0.1225
     34  CA        19.0970   19.0830   -8.1750 C.3    27  ASP27       0.1805
     35  C         20.1550   18.2410   -8.9030 C.2    27  ASP27       0.2598
     36  O         20.1740   18.1960  -10.1250 O.2    27  ASP27      -0.2718
     37  CB        19.6670   20.4950   -7.8090 C.3    27  ASP27       0.1424
     38  CG        20.3390   21.1420   -8.9670 C.2    27  ASP27       0.3668
     39  OD1       19.6650   21.5040   -9.9470 O.co2  27  ASP27      -0.2456
     40  OD2       21.5780   21.1900   -8.9510 O.co2  27  ASP27      -0.2456
     41  N         21.0130   17.5740   -8.1460 N.am   28  LEU28      -0.1966
     42  CA        21.9990   16.7380   -8.8080 C.3    28  LEU28       0.1728
     43  C         21.3300   15.6120   -9.6290 C.2    28  LEU28       0.2616
     44  O         21.8070   15.2750  -10.7240 O.2    28  LEU28      -0.2715
     45  CB        22.9650   16.1640   -7.7860 C.3    28  LEU28       0.0311
     46  CG        23.9640   17.1790   -7.2430 C.3    28  LEU28       0.0022
     47  CD1       24.9600   16.3300   -6.3680 C.3    28  LEU28       0.0001
     48  CD2       24.6410   18.0290   -8.3320 C.3    28  LEU28       0.0001
     49  N         20.2410   15.0220   -9.1150 N.am   29  ALA29      -0.1963
     50  CA        19.4770   14.0440   -9.8830 C.3    29  ALA29       0.1728
     51  C         18.8920   14.5970  -11.2090 C.2    29  ALA29       0.2616
     52  O         18.8860   13.8980  -12.2340 O.2    29  ALA29      -0.2715
     53  CB        18.3490   13.4660   -9.0120 C.3    29  ALA29       0.0334
     54  N         18.3570   15.8300  -11.1450 N.am   30  TRP30      -0.1960
     55  CA        17.8200   16.5130  -12.3040 C.3    30  TRP30       0.1771
     56  C         18.9420   16.7510  -13.2940 C.2    30  TRP30       0.2620
     57  O         18.7810   16.5600  -14.4890 O.2    30  TRP30      -0.2715
     58  CB        17.2330   17.8220  -11.8370 C.3    30  TRP30       0.0590
     59  CG        17.0430   18.8990  -12.8290 C.ar   30  TRP30       0.0006
     60  CD1       17.9110   19.9300  -13.0860 C.ar   30  TRP30       0.0946
     61  CD2       15.8930   19.1290  -13.6300 C.ar   30  TRP30       0.0152
     62  NE1       17.3450   20.8260  -13.9950 N.ar   30  TRP30      -0.2442
     63  CE2       16.1080   20.3610  -14.3430 C.ar   30  TRP30       0.0810
     64  CE3       14.6900   18.4570  -13.7940 C.ar   30  TRP30       0.0012
     65  CZ2       15.1840   20.8840  -15.2830 C.ar   30  TRP30       0.0191
     66  CZ3       13.7360   19.0080  -14.7080 C.ar   30  TRP30       0.0001
     67  CH2       14.0010   20.2030  -15.4090 C.ar   30  TRP30       0.0015
     68  N         20.0970   17.1790  -12.7790 N.am   31  PHE31      -0.1960
     69  CA        21.2530   17.4170  -13.6470 C.3    31  PHE31       0.1771
     70  C         21.6540   16.1180  -14.3340 C.2    31  PHE31       0.2619
     71  O         21.8830   16.0730  -15.5710 O.2    31  PHE31      -0.2715
     72  CB        22.4270   17.9440  -12.7740 C.3    31  PHE31       0.0574
     73  CG        23.7090   18.0380  -13.5060 C.ar   31  PHE31      -0.0200
     74  CD1       24.0740   19.2120  -14.1790 C.ar   31  PHE31      -0.0042
     75  CD2       24.5970   16.9410  -13.4710 C.ar   31  PHE31      -0.0042
     76  CE1       25.2750   19.2570  -14.9010 C.ar   31  PHE31      -0.0003
     77  CE2       25.8010   17.0040  -14.1530 C.ar   31  PHE31      -0.0003
     78  CZ        26.1660   18.1740  -14.8090 C.ar   31  PHE31      -0.0000
     79  N         21.7080   15.0490  -13.5460 N.am   32  LYS32      -0.1977
     80  CA        22.1800   13.7600  -14.1360 C.3    32  LYS32       0.1596
     81  C         21.1570   13.2870  -15.2060 C.2    32  LYS32       0.2287
     82  O         21.5020   12.9220  -16.2980 O.2    32  LYS32      -0.2864
     83  CB        22.3140   12.7170  -13.0320 C.3    32  LYS32       0.0298
     84  CG        22.7720   11.3450  -13.5630 C.3    32  LYS32       0.0038
     85  CD        22.8090   10.3500  -12.4020 C.3    32  LYS32       0.0206
     86  CE        23.4580    9.0470  -12.8910 C.3    32  LYS32       0.1093
     87  NZ        23.4860    8.0830  -11.6880 N.3    32  LYS32      -0.1314
     88  N         34.4530   24.4410  -12.8820 N.3    46  THR46      -0.1218
     89  CA        33.3700   23.4610  -12.7590 C.3    46  THR46       0.1862
     90  C         33.9830   22.0750  -12.7760 C.2    46  THR46       0.2287
     91  O         33.5880   21.2600  -11.9540 O.2    46  THR46      -0.2866
     92  CB        32.2960   23.6410  -13.8650 C.3    46  THR46       0.1770
     93  OG1       31.6600   24.8850  -13.6110 O.3    46  THR46      -0.2211
     94  CG2       31.1830   22.5960  -13.8480 C.3    46  THR46       0.0375
     95  N         35.2970   21.3650   -9.3540 N.3    49  SER49      -0.1202
     96  CA        34.2230   21.2250   -8.3840 C.3    49  SER49       0.2020
     97  C         33.5400   19.8730   -8.5230 C.2    49  SER49       0.2618
     98  O         33.1490   19.2590   -7.5060 O.2    49  SER49      -0.2717
     99  CB        33.2370   22.3760   -8.4990 C.3    49  SER49       0.2103
    100  OG        33.7570   23.6010   -7.9740 O.3    49  SER49      -0.2182
    101  N         33.4290   19.3950   -9.7660 N.am   50  ILE50      -0.1979
    102  CA        32.9160   18.0060   -9.9410 C.3    50  ILE50       0.1595
    103  C         33.8300   16.9620   -9.3260 C.2    50  ILE50       0.2287
    104  O         33.3670   16.0340   -8.6270 O.2    50  ILE50      -0.2864
    105  CB        32.6140   17.7430  -11.4140 C.3    50  ILE50       0.0276
    106  CG1       31.5250   18.7310  -11.8870 C.3    50  ILE50       0.0022
    107  CG2       32.0790   16.1860  -11.5430 C.3    50  ILE50       0.0022
    108  CD1       31.4720   18.7560  -13.4280 C.3    50  ILE50       0.0001
    109  N         35.7360   14.6930  -10.7170 N.3    52  ARG52      -0.1245
    110  CA        35.8920   13.3850  -11.4090 C.3    52  ARG52       0.1563
    111  C         35.1520   13.5260  -12.7560 C.2    52  ARG52       0.2260
    112  O         34.3340   14.4330  -12.9150 O.2    52  ARG52      -0.2867
    113  CB        35.2050   12.2530  -10.5680 C.3    52  ARG52       0.0307
    114  CG        33.7100   12.5350  -10.3460 C.3    52  ARG52       0.0489
    115  CD        32.8880   11.3390   -9.8440 C.3    52  ARG52       0.2205
    116  NE        31.4640   11.6630   -9.6300 N.pl3  52  ARG52      -0.0865
    117  CZ        30.4310   10.8340   -9.8690 C.cat  52  ARG52       0.5346
    118  NH1       30.5810    9.5980  -10.4010 N.pl3  52  ARG52       0.1354
    119  NH2       29.2020   11.2660   -9.5990 N.pl3  52  ARG52       0.1354
    120  N         32.2440   12.9600  -15.3110 N.3    54  LEU54      -0.1231
    121  CA        30.8560   12.5610  -15.1190 C.3    54  LEU54       0.1678
    122  C         30.6380   11.2950  -15.9560 C.2    54  LEU54       0.2438
    123  O         30.8490   11.3280  -17.1360 O.2    54  LEU54      -0.2733
    124  CB        29.9210   13.6600  -15.6120 C.3    54  LEU54       0.0284
    125  CG        29.9340   14.9160  -14.7140 C.3    54  LEU54       0.0019
    126  CD1       29.2540   16.0060  -15.5040 C.3    54  LEU54       0.0001
    127  CD2       29.2050   14.6260  -13.4070 C.3    54  LEU54       0.0001
    128  N         30.2440   10.1890  -15.3140 N.am   55  PRO55      -0.2653
    129  CA        30.1360    8.9240  -16.0720 C.3    55  PRO55       0.1628
    130  C         28.9870    9.0230  -17.0820 C.2    55  PRO55       0.2315
    131  O         27.9470    9.7190  -16.8510 O.2    55  PRO55      -0.2861
    132  CB        29.8020    7.8830  -15.0110 C.2    55  PRO55      -0.0016
    133  CG        29.6820    8.5400  -13.7200 C.2    55  PRO55      -0.0072
    134  CD        29.9190   10.0400  -13.8690 C.3    55  PRO55       0.1203
    135  N         28.7910   10.3220  -19.9920 N.3    57  ARG57      -0.1245
    136  CA        28.7610   11.5660  -20.8150 C.3    57  ARG57       0.1563
    137  C         30.1490   11.8030  -21.3650 C.2    57  ARG57       0.2260
    138  O         31.1400   11.4900  -20.6370 O.2    57  ARG57      -0.2867
    139  CB        28.3760   12.7480  -19.9120 C.3    57  ARG57       0.0307
    140  CG        26.8740   12.7850  -19.5760 C.3    57  ARG57       0.0489
    141  CD        26.6070   13.4320  -18.2050 C.3    57  ARG57       0.2205
    142  NE        26.8470   12.4500  -17.1610 N.pl3  57  ARG57      -0.0865
    143  CZ        26.5080   12.5720  -15.8830 C.cat  57  ARG57       0.5346
    144  NH1       25.8700   13.6560  -15.4780 N.pl3  57  ARG57       0.1354
    145  NH2       26.7980   11.5780  -15.0000 N.pl3  57  ARG57       0.1354
    146  N         27.5010   23.0850  -19.0380 N.3    94  ILE94      -0.1245
    147  CA        27.2080   22.8830  -17.6050 C.3    94  ILE94       0.1561
    148  C         27.8330   23.8940  -16.6520 C.2    94  ILE94       0.2260
    149  O         27.7630   23.7420  -15.3990 O.2    94  ILE94      -0.2867
    150  CB        27.5170   21.4370  -17.1650 C.3    94  ILE94       0.0252
    151  CG1       29.0400   21.1280  -17.2170 C.3    94  ILE94       0.0019
    152  CG2       26.6140   20.3710  -17.9860 C.3    94  ILE94       0.0019
    153  CD1       29.4460   19.9060  -16.3400 C.3    94  ILE94       0.0001
    154  N         29.0710   29.8550  -19.5870 N.3   100  TYR100     -0.1241
    155  CA        27.6820   30.2300  -19.8950 C.3   100  TYR100      0.1605
    156  C         27.6190   31.4930  -20.8230 C.2   100  TYR100      0.2264
    157  O         26.8240   31.5260  -21.7690 O.2   100  TYR100     -0.2867
    158  CB        26.8910   30.5350  -18.6270 C.3   100  TYR100      0.0534
    159  CG        26.6430   29.3140  -17.7300 C.ar  100  TYR100     -0.0201
    160  CD1       26.2470   28.0830  -18.2640 C.ar  100  TYR100     -0.0009
    161  CD2       26.7700   29.4540  -16.3220 C.ar  100  TYR100     -0.0009
    162  CE1       25.9640   27.0130  -17.4000 C.ar  100  TYR100      0.0417
    163  CE2       26.4960   28.4210  -15.4820 C.ar  100  TYR100      0.0417
    164  CZ        26.0770   27.2090  -16.0170 C.ar  100  TYR100      0.1957
    165  OH        25.8250   26.2050  -15.1650 O.3   100  TYR100     -0.2866
    166  N         17.7340   25.7190  -12.3770 N.3   113  THR113     -0.1218
    167  CA        17.1370   25.3800  -11.1220 C.3   113  THR113      0.1862
    168  C         17.2340   26.6760  -10.3190 C.2   113  THR113      0.2287
    169  O         18.3300   27.1220  -10.0050 O.2   113  THR113     -0.2866
    170  CB        17.9360   24.2210  -10.4370 C.3   113  THR113      0.1770
    171  OG1       17.9720   23.0960  -11.3200 O.3   113  THR113     -0.2211
    172  CG2       17.3420   23.8690   -9.0880 C.3   113  THR113      0.0375
@<TRIPOS>BOND
     1   157   156    2
     2   137   136    1
     3   137   138    2
     4   156   155    1
     5   136   135    1
     6   136   139    1
     7   139   140    1
     8   155   154    1
     9   155   158    1
    10   140   141    1
    11   146   147    1
    12     1     2    1
    13   158   159    1
    14   160   159   ar
    15   160   162   ar
    16   141   142    1
    17   152   150    1
    18   159   161   ar
    19     7     5    1
    20   147   150    1
    21   147   148    1
    22     2     5    1
    23     2     3    1
    24     5     6    1
    25   162   164   ar
    26   151   150    1
    27   151   153    1
    28   142   143    2
    29   123   122    2
    30   130   131    2
    31   130   129    1
    32   148   149    2
    33     8     6    1
    34     4     3    2
    35     3     9   am
    36   161   163   ar
    37    82    81    2
    38   129   128    1
    39   129   132    1
    40   164   163   ar
    41   164   165    1
    42   122   128   am
    43   122   121    1
    44   143   144    1
    45   143   145    1
    46   124   121    1
    47   124   125    1
    48    71    70    2
    49   126   125    1
    50    67    65   ar
    51    67    66   ar
    52     9    10    1
    53   128   134    1
    54   120   121    1
    55    65    63   ar
    56    81    80    1
    57   132   133    2
    58    76    78   ar
    59    76    74   ar
    60    78    77   ar
    61   125   127    1
    62    66    64   ar
    63    13    10    1
    64    57    56    2
    65    63    62   ar
    66    63    61   ar
    67    70    69    1
    68    70    79   am
    69    10    11    1
    70    74    73   ar
    71    77    75   ar
    72    80    79    1
    73    80    83    1
    74    62    60   ar
    75   134   133    1
    76    92    94    1
    77    92    93    1
    78    92    89    1
    79    64    61   ar
    80    69    68    1
    81    69    72    1
    82    61    59   ar
    83    84    83    1
    84    84    85    1
    85    73    75   ar
    86    73    72    1
    87   108   106    1
    88    56    68   am
    89    56    55    1
    90    12    11    2
    91    60    59   ar
    92    11    14   am
    93   112   111    2
    94    86    85    1
    95    86    87    1
    96    88    89    1
    97    59    58    1
    98    90    89    1
    99    90    91    2
   100   111   110    1
   101   166   167    1
   102    55    58    1
   103    55    54    1
   104    52    51    2
   105    14    15    1
   106   106   105    1
   107   107   105    1
   108   105   102    1
   109   110   109    1
   110   110   113    1
   111   171   170    1
   112    51    54   am
   113    51    50    1
   114   167   170    1
   115   167   168    1
   116    44    43    2
   117    15    16    1
   118    15    18    1
   119   113   114    1
   120   170   172    1
   121   118   117    1
   122   114   115    1
   123   168   169    2
   124    16    17    2
   125    36    35    2
   126    39    38   ar
   127   102   101    1
   128   102   103    1
   129    50    49    1
   130    50    53    1
   131   117   116    2
   132   117   119    1
   133   115   116    1
   134   101    97   am
   135    43    49   am
   136    43    42    1
   137    95    96    1
   138   103   104    2
   139    38    40   ar
   140    38    37    1
   141    35    34    1
   142    35    41   am
   143    42    41    1
   144    42    45    1
   145    97    96    1
   146    97    98    2
   147    99    96    1
   148    99   100    1
   149    48    46    1
   150    34    37    1
   151    34    33    1
   152    45    46    1
   153    46    47    1
   154    30    32   ar
   155    30    28   ar
   156    32    31   ar
   157    28    27   ar
   158    28    26   ar
   159    27    25   ar
   160    31    29   ar
   161    26    29   ar
   162    26    24   ar
   163    25    24   ar
   164    24    23    1
   165    23    20    1
   166    22    21    2
   167    21    20    1
   168    19    20    1
