@<TRIPOS>MOLECULE
tmp/3ocjA00.pdb
 207 195 0 0 0
SMALL
GASTEIGER

@<TRIPOS>ATOM
      1  N          5.6280   29.4940   27.3410 N.3    44  LEU44      -0.1245
      2  CA         6.8490   28.7580   27.6500 C.3    44  LEU44       0.1561
      3  C          6.7300   28.0010   28.9620 C.2    44  LEU44       0.2260
      4  O          7.0740   26.8210   29.0460 O.2    44  LEU44      -0.2867
      5  CB         8.0520   29.6900   27.7460 C.3    44  LEU44       0.0270
      6  CG         8.6460   30.2180   26.4490 C.3    44  LEU44       0.0019
      7  CD1        9.8180   31.1330   26.7840 C.3    44  LEU44       0.0001
      8  CD2        9.0870   29.0730   25.5390 C.3    44  LEU44       0.0001
      9  N          4.7360   24.7780   29.0620 N.3    47  SER47      -0.1217
     10  CA         5.2330   23.7150   28.2010 C.3    47  SER47       0.1889
     11  C          6.3550   22.9390   28.8760 C.2    47  SER47       0.2288
     12  O          7.2290   23.5340   29.4990 O.2    47  SER47      -0.2866
     13  CB         5.7500   24.3260   26.8930 C.3    47  SER47       0.2089
     14  OG         6.5980   23.4420   26.1780 O.3    47  SER47      -0.2183
     15  N          8.8550   21.3960   27.3430 N.3    49  LEU49      -0.1231
     16  CA        10.0750   21.8400   26.6810 C.3    49  LEU49       0.1693
     17  C         10.4090   23.2840   27.0680 C.2    49  LEU49       0.2592
     18  O         11.5660   23.6270   27.3200 O.2    49  LEU49      -0.2718
     19  CB         9.9390   21.7110   25.1600 C.3    49  LEU49       0.0284
     20  CG        11.1210   22.2610   24.3670 C.3    49  LEU49       0.0019
     21  CD1       12.4370   21.6830   24.8720 C.3    49  LEU49       0.0001
     22  CD2       10.9380   21.9770   22.8810 C.3    49  LEU49       0.0001
     23  N          9.3810   24.1220   27.1180 N.am   50  GLY50      -0.1957
     24  CA         9.5470   25.5110   27.4890 C.3    50  GLY50       0.1869
     25  C         10.1660   25.6690   28.8640 C.2    50  GLY50       0.2309
     26  O         11.0590   26.4930   29.0450 O.2    50  GLY50      -0.2863
     27  N         13.8390   24.6980   28.7960 N.3    53  LEU53      -0.1245
     28  CA        14.6450   25.7650   28.2150 C.3    53  LEU53       0.1561
     29  C         14.7910   26.9650   29.1460 C.2    53  LEU53       0.2260
     30  O         15.8680   27.5360   29.2390 O.2    53  LEU53      -0.2867
     31  CB        14.0600   26.2030   26.8760 C.3    53  LEU53       0.0270
     32  CG        14.2460   25.1440   25.7830 C.3    53  LEU53       0.0019
     33  CD1       13.3670   25.4480   24.5780 C.3    53  LEU53       0.0001
     34  CD2       15.7160   25.0310   25.3950 C.3    53  LEU53       0.0001
     35  N         19.4790   22.3850   25.0200 N.3    59  LEU59      -0.1245
     36  CA        18.8030   21.1160   24.8220 C.3    59  LEU59       0.1561
     37  C         19.6290   19.9710   25.3720 C.2    59  LEU59       0.2260
     38  O         20.8580   19.9690   25.2540 O.2    59  LEU59      -0.2867
     39  CB        18.5390   20.8710   23.3360 C.3    59  LEU59       0.0270
     40  CG        17.6010   21.8530   22.6420 C.3    59  LEU59       0.0019
     41  CD1       17.5080   21.5340   21.1520 C.3    59  LEU59       0.0001
     42  CD2       16.2200   21.8560   23.2800 C.3    59  LEU59       0.0001
     43  N         16.3230   17.2690   22.5140 N.3    64  THR64      -0.1218
     44  CA        16.7890   17.2590   21.1370 C.3    64  THR64       0.1862
     45  C         16.0130   16.2180   20.3280 C.2    64  THR64       0.2287
     46  O         15.5010   16.5100   19.2400 O.2    64  THR64      -0.2866
     47  CB        18.2940   16.9500   21.0320 C.3    64  THR64       0.1770
     48  OG1       19.0330   17.9530   21.7290 O.3    64  THR64      -0.2211
     49  CG2       18.7270   16.9580   19.5750 C.3    64  THR64       0.0375
     50  N         12.2060   17.2030   20.0560 N.3    67  LEU67      -0.1245
     51  CA        12.0540   18.3610   19.2000 C.3    67  LEU67       0.1561
     52  C         12.3600   18.0220   17.7420 C.2    67  LEU67       0.2260
     53  O         11.5690   18.3250   16.8400 O.2    67  LEU67      -0.2867
     54  CB        12.9520   19.5000   19.6850 C.3    67  LEU67       0.0270
     55  CG        12.7960   20.8420   18.9700 C.3    67  LEU67       0.0019
     56  CD1       11.3900   21.3890   19.1260 C.3    67  LEU67       0.0001
     57  CD2       13.8230   21.8220   19.5000 C.3    67  LEU67       0.0001
     58  N          2.7270   26.5500   22.2160 N.3    81  GLU81      -0.1245
     59  CA         3.7550   25.5190   22.2290 C.3    81  GLU81       0.1567
     60  C          3.9570   24.9380   20.8350 C.2    81  GLU81       0.2260
     61  O          5.0860   24.7390   20.3930 O.2    81  GLU81      -0.2867
     62  CB         3.3310   24.4180   23.2010 C.3    81  GLU81       0.0388
     63  CG         4.3410   23.3180   23.4100 C.3    81  GLU81       0.1160
     64  CD         3.8890   22.3170   24.4600 C.2    81  GLU81       0.3649
     65  OE1        2.6710   22.0830   24.6070 O.co2  81  GLU81      -0.2457
     66  OE2        4.7580   21.7580   25.1600 O.co2  81  GLU81      -0.2457
     67  N          5.8890   27.2460   18.5980 N.3    84  PHE84      -0.1227
     68  CA         7.3140   27.1390   18.9110 C.3    84  PHE84       0.1736
     69  C          7.9490   25.8970   18.2740 C.2    84  PHE84       0.2595
     70  O          9.0550   25.9600   17.7230 O.2    84  PHE84      -0.2718
     71  CB         7.5440   27.1170   20.4250 C.3    84  PHE84       0.0547
     72  CG         7.0680   28.3590   21.1430 C.ar   84  PHE84      -0.0202
     73  CD1        7.0410   29.5850   20.5000 C.ar   84  PHE84      -0.0042
     74  CD2        6.6860   28.2970   22.4790 C.ar   84  PHE84      -0.0042
     75  CE1        6.6180   30.7270   21.1660 C.ar   84  PHE84      -0.0003
     76  CE2        6.2600   29.4310   23.1530 C.ar   84  PHE84      -0.0003
     77  CZ         6.2280   30.6480   22.4950 C.ar   84  PHE84      -0.0000
     78  N          7.2530   24.7660   18.3450 N.am   85  TYR85      -0.1976
     79  CA         7.7410   23.5120   17.7700 C.3    85  TYR85       0.1639
     80  C          7.7700   23.5120   16.2420 C.2    85  TYR85       0.2290
     81  O          8.5300   22.7600   15.6420 O.2    85  TYR85      -0.2864
     82  CB         6.8440   22.3420   18.1800 C.3    85  TYR85       0.0560
     83  CG         7.2130   21.5810   19.4390 C.ar   85  TYR85      -0.0198
     84  CD1        6.9860   22.1190   20.6980 C.ar   85  TYR85      -0.0009
     85  CD2        7.7100   20.2820   19.3610 C.ar   85  TYR85      -0.0009
     86  CE1        7.2890   21.3990   21.8450 C.ar   85  TYR85       0.0417
     87  CE2        8.0170   19.5620   20.4990 C.ar   85  TYR85       0.0417
     88  CZ         7.8010   20.1250   21.7360 C.ar   85  TYR85       0.1957
     89  OH         8.0980   19.4020   22.8790 O.3    85  TYR85      -0.2866
     90  N          9.3160   28.3120   14.4160 N.3    88  LEU88      -0.1245
     91  CA        10.5390   29.0730   14.6450 C.3    88  LEU88       0.1561
     92  C         11.5760   28.7050   13.5900 C.2    88  LEU88       0.2260
     93  O         11.8350   27.5300   13.3610 O.2    88  LEU88      -0.2867
     94  CB        11.0820   28.8250   16.0500 C.3    88  LEU88       0.0270
     95  CG        10.1170   29.1900   17.1800 C.3    88  LEU88       0.0019
     96  CD1       10.7790   28.8910   18.5210 C.3    88  LEU88       0.0001
     97  CD2        9.6970   30.6530   17.1020 C.3    88  LEU88       0.0001
     98  N         14.8090   28.6230   13.4890 N.3    90  ALA90      -0.1231
     99  CA        15.8930   27.7460   13.9180 C.3    90  ALA90       0.1694
    100  C         15.4310   26.3000   14.1420 C.2    90  ALA90       0.2591
    101  O         16.1970   25.3490   13.9530 O.2    90  ALA90      -0.2718
    102  CB        16.5580   28.2960   15.1710 C.3    90  ALA90       0.0304
    103  N         14.1720   26.1250   14.5500 N.am   91  VAL91      -0.1980
    104  CA        13.6510   24.7770   14.7370 C.3    91  VAL91       0.1595
    105  C         13.4660   24.1110   13.3730 C.2    91  VAL91       0.2287
    106  O         13.7920   22.9260   13.2000 O.2    91  VAL91      -0.2864
    107  CB        12.3090   24.7870   15.5190 C.3    91  VAL91       0.0276
    108  CG1       11.7070   23.3870   15.5770 C.3    91  VAL91       0.0022
    109  CG2       12.5330   25.3310   16.9350 C.3    91  VAL91       0.0022
    110  N         16.9560   23.0260   12.2500 N.3    94  THR94      -0.1218
    111  CA        17.5400   21.8220   12.8310 C.3    94  THR94       0.1862
    112  C         16.8590   20.5550   12.3260 C.2    94  THR94       0.2287
    113  O         17.5010   19.5150   12.2430 O.2    94  THR94      -0.2866
    114  CB        17.6390   21.8650   14.3800 C.3    94  THR94       0.1770
    115  OG1       18.5590   20.8580   14.8130 O.3    94  THR94      -0.2211
    116  CG2       16.2820   21.6230   15.0380 C.3    94  THR94       0.0375
    117  N         26.5640   16.6140   16.7730 N.3   186  ASN186     -0.1225
    118  CA        25.6820   17.7750   16.7500 C.3   186  ASN186      0.1785
    119  C         25.4870   18.2800   18.1680 C.2   186  ASN186      0.2597
    120  O         25.3020   17.4920   19.0860 O.2   186  ASN186     -0.2718
    121  CB        24.3300   17.3920   16.1360 C.3   186  ASN186      0.1169
    122  CG        23.3410   18.5460   16.1190 C.2   186  ASN186      0.2627
    123  OD1       22.3320   18.5340   16.8370 O.2   186  ASN186     -0.2716
    124  ND2       23.6200   19.5440   15.3140 N.am  186  ASN186     -0.0877
    125  N         25.5310   19.5960   18.3400 N.am  187  GLY187     -0.1957
    126  CA        25.1470   20.2210   19.5970 C.3   187  GLY187      0.1869
    127  C         26.2370   20.4650   20.6230 C.2   187  GLY187      0.2309
    128  O         25.9490   20.6370   21.8180 O.2   187  GLY187     -0.2863
    129  N         28.2890   24.6570   19.0330 N.3   190  ILE190     -0.1231
    130  CA        27.4430   25.8390   19.1170 C.3   190  ILE190      0.1692
    131  C         27.3240   26.3970   20.5440 C.2   190  ILE190      0.2592
    132  O         26.8560   27.5170   20.7250 O.2   190  ILE190     -0.2718
    133  CB        26.0400   25.5780   18.5550 C.3   190  ILE190      0.0266
    134  CG1       25.3390   24.4470   19.3280 C.3   190  ILE190      0.0019
    135  CG2       26.1440   25.2770   17.0580 C.3   190  ILE190      0.0020
    136  CD1       23.9810   24.0480   18.7520 C.3   190  ILE190      0.0001
    137  N         27.7660   25.6240   21.5420 N.am  191  TYR191     -0.1976
    138  CA        27.7780   26.1030   22.9270 C.3   191  TYR191      0.1639
    139  C         29.1250   26.6420   23.3680 C.2   191  TYR191      0.2290
    140  O         29.2430   27.1050   24.4970 O.2   191  TYR191     -0.2864
    141  CB        27.3470   24.9920   23.8950 C.3   191  TYR191      0.0560
    142  CG        25.9040   24.5620   23.7420 C.ar  191  TYR191     -0.0198
    143  CD1       24.8960   25.1530   24.5000 C.ar  191  TYR191     -0.0009
    144  CD2       25.5410   23.5640   22.8480 C.ar  191  TYR191     -0.0009
    145  CE1       23.5640   24.7640   24.3560 C.ar  191  TYR191      0.0417
    146  CE2       24.2060   23.1630   22.7130 C.ar  191  TYR191      0.0417
    147  CZ        23.2290   23.7720   23.4720 C.ar  191  TYR191      0.1957
    148  OH        21.9040   23.3920   23.3350 O.3   191  TYR191     -0.2866
    149  N         25.5910   26.4170   13.7870 N.3   220  LEU220     -0.1245
    150  CA        24.6990   27.5530   13.6000 C.3   220  LEU220      0.1561
    151  C         25.4730   28.7550   13.0790 C.2   220  LEU220      0.2260
    152  O         26.5910   29.0350   13.5350 O.2   220  LEU220     -0.2867
    153  CB        24.0240   27.9210   14.9170 C.3   220  LEU220      0.0270
    154  CG        22.9570   26.9550   15.4190 C.3   220  LEU220      0.0019
    155  CD1       22.6440   27.2440   16.8960 C.3   220  LEU220      0.0001
    156  CD2       21.6880   27.0650   14.5880 C.3   220  LEU220      0.0001
    157  N         11.5810   35.5020   21.7930 N.3   247  VAL247     -0.1231
    158  CA        11.6140   34.3290   22.6540 C.3   247  VAL247      0.1692
    159  C         13.0430   33.9850   23.0820 C.2   247  VAL247      0.2592
    160  O         13.2930   33.7180   24.2630 O.2   247  VAL247     -0.2718
    161  CB        10.9060   33.1230   22.0040 C.3   247  VAL247      0.0266
    162  CG1       11.0870   31.8660   22.8500 C.3   247  VAL247      0.0020
    163  CG2        9.4220   33.4260   21.8260 C.3   247  VAL247      0.0020
    164  N         13.9830   33.9960   22.1400 N.am  248  PHE248     -0.1976
    165  CA        15.3680   33.6550   22.4590 C.3   248  PHE248      0.1639
    166  C         16.0750   34.7740   23.2260 C.2   248  PHE248      0.2290
    167  O         16.6140   34.5500   24.3030 O.2   248  PHE248     -0.2864
    168  CB        16.1830   33.3250   21.1910 C.3   248  PHE248      0.0560
    169  CG        15.8320   32.0150   20.5250 C.ar  248  PHE248     -0.0200
    170  CD1       14.7850   31.2170   20.9660 C.ar  248  PHE248     -0.0042
    171  CD2       16.5770   31.5870   19.4300 C.ar  248  PHE248     -0.0042
    172  CE1       14.4850   30.0100   20.3190 C.ar  248  PHE248     -0.0003
    173  CE2       16.2840   30.3900   18.7840 C.ar  248  PHE248     -0.0003
    174  CZ        15.2400   29.6030   19.2240 C.ar  248  PHE248     -0.0000
    175  N         14.2090   33.0900   26.9630 N.3   252  ILE252     -0.1245
    176  CA        15.0370   31.9290   27.2920 C.3   252  ILE252      0.1561
    177  C         16.5010   32.2880   27.5220 C.2   252  ILE252      0.2260
    178  O         17.1220   31.8370   28.4840 O.2   252  ILE252     -0.2867
    179  CB        14.9730   30.8840   26.1630 C.3   252  ILE252      0.0252
    180  CG1       13.5500   30.3310   26.0370 C.3   252  ILE252      0.0019
    181  CG2       16.0200   29.7920   26.3760 C.3   252  ILE252      0.0019
    182  CD1       13.3260   29.5150   24.7680 C.3   252  ILE252      0.0001
    183  N         23.2810   28.3810   23.1440 N.3   256  TRP256     -0.1241
    184  CA        23.7850   27.8770   21.8600 C.3   256  TRP256      0.1605
    185  C         24.1700   28.9840   20.8910 C.2   256  TRP256      0.2264
    186  O         23.9570   28.8560   19.6800 O.2   256  TRP256     -0.2867
    187  CB        22.7540   26.9470   21.2110 C.3   256  TRP256      0.0550
    188  CG        21.3820   27.5450   20.9580 C.ar  256  TRP256      0.0003
    189  CD1       21.0740   28.5570   20.0930 C.ar  256  TRP256      0.0946
    190  CD2       20.1440   27.1310   21.5490 C.ar  256  TRP256      0.0152
    191  NE1       19.7110   28.8040   20.1110 N.ar  256  TRP256     -0.2442
    192  CE2       19.1190   27.9320   20.9890 C.ar  256  TRP256      0.0810
    193  CE3       19.7950   26.1390   22.4740 C.ar  256  TRP256      0.0012
    194  CZ2       17.7760   27.7960   21.3570 C.ar  256  TRP256      0.0191
    195  CZ3       18.4540   26.0030   22.8380 C.ar  256  TRP256      0.0001
    196  CH2       17.4640   26.8280   22.2730 C.ar  256  TRP256      0.0015
    197  N         21.6000   26.5800    9.7300 N.3   287  PHE287     -0.1241
    198  CA        22.1810   25.4500   10.4510 C.3   287  PHE287      0.1605
    199  C         22.7490   24.4360    9.4620 C.2   287  PHE287      0.2264
    200  O         22.2340   23.3190    9.3460 O.2   287  PHE287     -0.2867
    201  CB        21.1040   24.7920   11.3300 C.3   287  PHE287      0.0534
    202  CG        21.6280   24.0900   12.5750 C.ar  287  PHE287     -0.0203
    203  CD1       22.9770   23.7920   12.7610 C.ar  287  PHE287     -0.0042
    204  CD2       20.7230   23.7440   13.5720 C.ar  287  PHE287     -0.0042
    205  CE1       23.4100   23.1480   13.9470 C.ar  287  PHE287     -0.0003
    206  CE2       21.1340   23.1050   14.7380 C.ar  287  PHE287     -0.0003
    207  CZ        22.4810   22.8160   14.9300 C.ar  287  PHE287     -0.0000
@<TRIPOS>BOND
     1   200   199    2
     2   199   198    1
     3   197   198    1
     4   198   201    1
     5   201   202    1
     6   113   112    2
     7   110   111    1
     8   112   111    1
     9   202   203   ar
    10   202   204   ar
    11   203   205   ar
    12   111   114    1
    13   151   152    2
    14   151   150    1
    15   106   105    2
    16    93    92    2
    17   105   104    1
    18    98    99    1
    19   204   206   ar
    20    92    91    1
    21   150   149    1
    22   150   153    1
    23    99   100    1
    24    99   102    1
    25   205   207   ar
    26   101   100    2
    27   100   103   am
    28   114   115    1
    29   114   116    1
    30    90    91    1
    31   103   104    1
    32   156   154    1
    33    91    94    1
    34   104   107    1
    35   206   207   ar
    36   153   154    1
    37   124   122   am
    38   154   155    1
    39   107   108    1
    40   107   109    1
    41    81    80    2
    42    94    95    1
    43   122   121    1
    44   122   123    2
    45   121   118    1
    46    80    79    1
    47   118   117    1
    48   118   119    1
    49    53    52    2
    50   135   133    1
    51    97    95    1
    52    95    96    1
    53    70    69    2
    54    52    51    1
    55    79    82    1
    56    79    78    1
    57   119   125   am
    58   119   120    2
    59    82    83    1
    60    69    78   am
    61    69    68    1
    62   125   126    1
    63   133   130    1
    64   133   134    1
    65    67    68    1
    66   136   134    1
    67   173   174   ar
    68   173   171   ar
    69    68    71    1
    70    55    56    1
    71    55    57    1
    72    55    54    1
    73   129   130    1
    74   130   131    1
    75    51    54    1
    76    51    50    1
    77   174   172   ar
    78    46    45    2
    79    85    83   ar
    80    85    87   ar
    81   171   169   ar
    82    83    84   ar
    83    49    47    1
    84   126   127    1
    85   186   185    2
    86   189   191   ar
    87   189   188   ar
    88   191   192   ar
    89   172   170   ar
    90    45    44    1
    91    61    60    2
    92    71    72    1
    93    87    88   ar
    94    73    72   ar
    95    73    75   ar
    96   169   170   ar
    97   169   168    1
    98   131   132    2
    99   131   137   am
   100   127   128    2
   101    84    86   ar
   102    60    59    1
   103   185   184    1
   104   188   187    1
   105   188   190   ar
   106   192   194   ar
   107   192   190   ar
   108    47    44    1
   109    47    48    1
   110    44    43    1
   111    72    74   ar
   112    41    40    1
   113    75    77   ar
   114   168   165    1
   115   187   184    1
   116   194   196   ar
   117   137   138    1
   118   190   193   ar
   119    88    86   ar
   120    88    89    1
   121   157   158    1
   122   163   161    1
   123   184   183    1
   124   161   158    1
   125   161   162    1
   126   164   165    1
   127   164   159   am
   128    58    59    1
   129    59    62    1
   130   196   195   ar
   131   165   166    1
   132   193   195   ar
   133    74    76   ar
   134    77    76   ar
   135    40    42    1
   136    40    39    1
   137   158   159    1
   138   146   144   ar
   139   146   147   ar
   140   144   142   ar
   141    22    20    1
   142   138   139    1
   143   138   141    1
   144   159   160    2
   145    62    63    1
   146   166   167    2
   147   148   147    1
   148    39    36    1
   149   139   140    2
   150    63    64    1
   151   147   145   ar
   152   142   141    1
   153   142   143   ar
   154   145   143   ar
   155    20    21    1
   156    20    19    1
   157    64    65   ar
   158    64    66   ar
   159    33    32    1
   160   182   180    1
   161    36    35    1
   162    36    37    1
   163    19    16    1
   164    38    37    2
   165    34    32    1
   166     8     6    1
   167    32    31    1
   168   180   179    1
   169   179   181    1
   170   179   176    1
   171    14    13    1
   172     6     7    1
   173     6     5    1
   174    16    17    1
   175    16    15    1
   176    31    28    1
   177    13    10    1
   178   175   176    1
   179    17    23   am
   180    17    18    2
   181    23    24    1
   182   176   177    1
   183     1     2    1
   184    24    25    1
   185   177   178    2
   186     2     5    1
   187     2     3    1
   188    10    11    1
   189    10     9    1
   190    28    27    1
   191    28    29    1
   192    25    26    2
   193    11    12    2
   194     3     4    2
   195    29    30    2
