@<TRIPOS>MOLECULE
tmp/3oclA00.pdb
 163 158 0 0 0
SMALL
GASTEIGER

@<TRIPOS>ATOM
      1  N          9.8760   10.3010  -14.1220 N.3   240  GLY240     -0.1210
      2  CA         9.3810    9.2820  -15.0140 C.3   240  GLY240      0.1956
      3  C          8.6480    9.9220  -16.1670 C.2   240  GLY240      0.2612
      4  O          9.0660   10.9590  -16.6940 O.2   240  GLY240     -0.2717
      5  N          7.5210    9.3240  -16.5230 N.am  241  SER241     -0.1952
      6  CA         6.8170    9.6840  -17.7410 C.3   241  SER241      0.1924
      7  C          6.1290   11.0580  -17.6860 C.2   241  SER241      0.2314
      8  O          5.6290   11.5490  -18.6970 O.2   241  SER241     -0.2863
      9  CB         5.8400    8.5630  -18.0800 C.3   241  SER241      0.2116
     10  OG         6.5820    7.3350  -18.2040 O.3   241  SER241     -0.2180
     11  N         11.0050   -0.8010  -22.9640 N.3   278  ARG278     -0.1231
     12  CA         9.7260   -1.5120  -23.0150 C.3   278  ARG278      0.1694
     13  C          8.5350   -0.6130  -22.7400 C.2   278  ARG278      0.2592
     14  O          8.5670    0.2070  -21.8220 O.2   278  ARG278     -0.2718
     15  CB         9.6910   -2.6320  -21.9810 C.3   278  ARG278      0.0321
     16  CG        10.7950   -3.6420  -22.0970 C.3   278  ARG278      0.0489
     17  CD        10.6040   -4.7320  -21.0590 C.3   278  ARG278      0.2205
     18  NE        11.8620   -5.0530  -20.3900 N.pl3 278  ARG278     -0.0865
     19  CZ        12.6980   -6.0290  -20.7420 C.cat 278  ARG278      0.5346
     20  NH1       12.4330   -6.8360  -21.7710 N.pl3 278  ARG278      0.1354
     21  NH2       13.8160   -6.2060  -20.0470 N.pl3 278  ARG278      0.1354
     22  N          7.4830   -0.8000  -23.5360 N.am  279  ASP279     -0.1960
     23  CA         6.1780   -0.2060  -23.2770 C.3   279  ASP279      0.1840
     24  C          5.3310   -1.1630  -22.4370 C.2   279  ASP279      0.2621
     25  O          5.5530   -2.3740  -22.4470 O.2   279  ASP279     -0.2715
     26  CB         5.4490    0.0910  -24.5950 C.3   279  ASP279      0.1450
     27  CG         6.0390    1.2790  -25.3530 C.2   279  ASP279      0.3671
     28  OD1        5.5040    1.6010  -26.4380 O.co2 279  ASP279     -0.2456
     29  OD2        7.0210    1.8920  -24.8780 O.co2 279  ASP279     -0.2456
     30  N          4.3620   -0.6120  -21.7140 N.am  280  VAL280     -0.1977
     31  CA         3.3950   -1.4140  -20.9680 C.3   280  VAL280      0.1596
     32  C          2.3950   -2.0560  -21.9260 C.2   280  VAL280      0.2287
     33  O          2.0600   -3.2250  -21.7900 O.2   280  VAL280     -0.2864
     34  CB         2.6080   -0.5660  -19.9410 C.3   280  VAL280      0.0276
     35  CG1        1.4490   -1.3690  -19.3590 C.3   280  VAL280      0.0022
     36  CG2        3.5210   -0.0850  -18.8330 C.3   280  VAL280      0.0022
     37  N         -0.9570    6.9560  -24.8690 N.3   295  LYS295     -0.1231
     38  CA        -0.6220    5.5880  -24.4730 C.3   295  LYS295      0.1693
     39  C          0.6490    5.5230  -23.6220 C.2   295  LYS295      0.2592
     40  O          0.9830    4.4650  -23.0840 O.2   295  LYS295     -0.2718
     41  CB        -0.4910    4.6970  -25.7150 C.3   295  LYS295      0.0285
     42  CG        -1.8130    4.5230  -26.4670 C.3   295  LYS295      0.0035
     43  CD        -1.8700    3.2330  -27.2870 C.3   295  LYS295      0.0206
     44  CE        -3.3180    2.8340  -27.5950 C.3   295  LYS295      0.1093
     45  NZ        -4.0820    3.9120  -28.3130 N.3   295  LYS295     -0.1314
     46  N          1.3400    6.6560  -23.4940 N.am  296  SER296     -0.1952
     47  CA         2.6270    6.7290  -22.8000 C.3   296  SER296      0.1924
     48  C          3.6020    5.6580  -23.2990 C.2   296  SER296      0.2314
     49  O          4.0980    4.8380  -22.5280 O.2   296  SER296     -0.2863
     50  CB         2.4370    6.6370  -21.2780 C.3   296  SER296      0.2116
     51  OG         3.5770    7.1320  -20.5960 O.3   296  SER296     -0.2180
     52  N          7.0340    4.4300  -24.2370 N.3   298  ASN298     -0.1240
     53  CA         8.4530    4.6980  -24.0100 C.3   298  ASN298      0.1653
     54  C          9.2460    4.5360  -25.2920 C.2   298  ASN298      0.2266
     55  O         10.1820    5.2920  -25.5590 O.2   298  ASN298     -0.2867
     56  CB         9.0330    3.7360  -22.9670 C.3   298  ASN298      0.1155
     57  CG         8.5890    4.0480  -21.5510 C.2   298  ASN298      0.2627
     58  OD1        7.7400    4.9050  -21.3100 O.2   298  ASN298     -0.2716
     59  ND2        9.1780    3.3460  -20.6000 N.am  298  ASN298     -0.0877
     60  N         12.1860    9.7210  -21.1760 N.3   354  TYR354     -0.1241
     61  CA        11.0470    9.2730  -20.3540 C.3   354  TYR354      0.1605
     62  C         11.2810    9.2900  -18.8380 C.2   354  TYR354      0.2264
     63  O         10.6720    8.5220  -18.1000 O.2   354  TYR354     -0.2867
     64  CB        10.4780    7.9250  -20.8250 C.3   354  TYR354      0.0534
     65  CG        11.4000    6.7240  -20.8560 C.ar  354  TYR354     -0.0201
     66  CD1       11.9760    6.3020  -22.0530 C.ar  354  TYR354     -0.0009
     67  CD2       11.6250    5.9560  -19.7190 C.ar  354  TYR354     -0.0009
     68  CE1       12.7900    5.1780  -22.1080 C.ar  354  TYR354      0.0417
     69  CE2       12.4440    4.8280  -19.7610 C.ar  354  TYR354      0.0417
     70  CZ        13.0180    4.4400  -20.9600 C.ar  354  TYR354      0.1957
     71  OH        13.8270    3.3220  -21.0160 O.3   354  TYR354     -0.2866
     72  N         14.0080    9.1270  -16.4180 N.3   356  TYR356     -0.1241
     73  CA        14.9590    8.4820  -15.5080 C.3   356  TYR356      0.1605
     74  C         16.3390    9.0920  -15.6890 C.2   356  TYR356      0.2264
     75  O         16.6420    9.6630  -16.7390 O.2   356  TYR356     -0.2867
     76  CB        15.0270    6.9790  -15.7520 C.3   356  TYR356      0.0534
     77  CG        13.7960    6.2340  -15.3110 C.ar  356  TYR356     -0.0201
     78  CD1       12.9880    5.5810  -16.2280 C.ar  356  TYR356     -0.0009
     79  CD2       13.4340    6.1890  -13.9740 C.ar  356  TYR356     -0.0009
     80  CE1       11.8560    4.8970  -15.8250 C.ar  356  TYR356      0.0417
     81  CE2       12.3030    5.5100  -13.5600 C.ar  356  TYR356      0.0417
     82  CZ        11.5180    4.8670  -14.4910 C.ar  356  TYR356      0.1957
     83  OH        10.4010    4.1850  -14.0840 O.3   356  TYR356     -0.2866
     84  N         -0.4960   14.6260  -17.4890 N.3   431  LYS431     -0.1231
     85  CA         0.2360   13.4260  -17.8530 C.3   431  LYS431      0.1693
     86  C          0.4530   12.5450  -16.6260 C.2   431  LYS431      0.2593
     87  O          0.8100   13.0360  -15.5440 O.2   431  LYS431     -0.2718
     88  CB         1.5770   13.8190  -18.4590 C.3   431  LYS431      0.0285
     89  CG         2.4490   12.6640  -18.9140 C.3   431  LYS431      0.0035
     90  CD         1.9380   12.0430  -20.1970 C.3   431  LYS431      0.0206
     91  CE         2.6730   10.7400  -20.5110 C.3   431  LYS431      0.1093
     92  NZ         2.1200    9.6080  -19.7510 N.3   431  LYS431     -0.1314
     93  N          0.2360   11.2450  -16.7940 N.am  432  SER432     -0.1938
     94  CA         0.4480   10.2820  -15.7200 C.3   432  SER432      0.2055
     95  C          1.8750    9.7590  -15.7390 C.2   432  SER432      0.2644
     96  O          2.5980    9.9220  -16.7160 O.2   432  SER432     -0.2714
     97  CB        -0.4930    9.0970  -15.8830 C.3   432  SER432      0.2130
     98  OG        -0.2190    8.4360  -17.1020 O.3   432  SER432     -0.2179
     99  N          2.2580    9.0950  -14.6560 N.am  433  GLY433     -0.1939
    100  CA         3.5780    8.4780  -14.5520 C.3   433  GLY433      0.2014
    101  C          3.6120    7.3880  -13.4960 C.2   433  GLY433      0.2639
    102  O          2.8200    7.3940  -12.5460 O.2   433  GLY433     -0.2714
    103  N          4.5170    6.4360  -13.6870 N.am  434  THR434     -0.1950
    104  CA         4.7950    5.3990  -12.7040 C.3   434  THR434      0.1897
    105  C          6.2880    5.0970  -12.7750 C.2   434  THR434      0.2313
    106  O          6.7710    4.5470  -13.7770 O.2   434  THR434     -0.2863
    107  CB         3.9900    4.1200  -12.9810 C.3   434  THR434      0.1794
    108  OG1        2.6120    4.4480  -13.1790 O.3   434  THR434     -0.2208
    109  CG2        4.1080    3.1490  -11.8200 C.3   434  THR434      0.0378
    110  N          9.9060    3.4590  -11.0440 N.3   436  ARG436     -0.1245
    111  CA        10.4460    2.4650  -10.1170 C.3   436  ARG436      0.1563
    112  C         11.2890    3.1620   -9.0510 C.2   436  ARG436      0.2260
    113  O         11.5560    4.3640   -9.1510 O.2   436  ARG436     -0.2867
    114  CB        11.2730    1.4030  -10.8560 C.3   436  ARG436      0.0307
    115  CG        12.6670    1.8540  -11.3090 C.3   436  ARG436      0.0489
    116  CD        13.4400    0.7060  -11.9670 C.3   436  ARG436      0.2205
    117  NE        13.7680   -0.3690  -11.0230 N.pl3 436  ARG436     -0.0865
    118  CZ        14.8070   -0.3690  -10.1830 C.cat 436  ARG436      0.5346
    119  NH1       15.6550    0.6570  -10.1370 N.pl3 436  ARG436      0.1354
    120  NH2       14.9990   -1.4070   -9.3750 N.pl3 436  ARG436      0.1354
    121  N          7.1390    1.3610   -6.2900 N.3   440  TYR440     -0.1241
    122  CA         6.7540    2.3640   -7.2810 C.3   440  TYR440      0.1605
    123  C          6.4220    3.7220   -6.6720 C.2   440  TYR440      0.2264
    124  O          6.1790    3.8410   -5.4720 O.2   440  TYR440     -0.2867
    125  CB         5.5380    1.8740   -8.0730 C.3   440  TYR440      0.0534
    126  CG         5.7270    0.5280   -8.7350 C.ar  440  TYR440     -0.0201
    127  CD1        6.5040    0.3970   -9.8800 C.ar  440  TYR440     -0.0009
    128  CD2        5.1240   -0.6150   -8.2170 C.ar  440  TYR440     -0.0009
    129  CE1        6.6790   -0.8430  -10.4950 C.ar  440  TYR440      0.0417
    130  CE2        5.2910   -1.8530   -8.8220 C.ar  440  TYR440      0.0417
    131  CZ         6.0690   -1.9610   -9.9590 C.ar  440  TYR440      0.1957
    132  OH         6.2360   -3.1890  -10.5540 O.3   440  TYR440     -0.2866
    133  N         -1.7040    0.3620   -9.1900 N.3   469  TYR469     -0.1227
    134  CA        -0.6610    1.2800   -8.7050 C.3   469  TYR469      0.1736
    135  C         -0.1640    2.2950   -9.7440 C.2   469  TYR469      0.2595
    136  O          0.6910    3.1270   -9.4330 O.2   469  TYR469     -0.2718
    137  CB         0.5310    0.4770   -8.1770 C.3   469  TYR469      0.0548
    138  CG         1.0710   -0.5350   -9.1630 C.ar  469  TYR469     -0.0200
    139  CD1        2.0900   -0.2030  -10.0440 C.ar  469  TYR469     -0.0009
    140  CD2        0.5560   -1.8280   -9.2100 C.ar  469  TYR469     -0.0009
    141  CE1        2.5810   -1.1260  -10.9440 C.ar  469  TYR469      0.0417
    142  CE2        1.0410   -2.7610  -10.1070 C.ar  469  TYR469      0.0417
    143  CZ         2.0560   -2.4040  -10.9730 C.ar  469  TYR469      0.1957
    144  OH         2.5430   -3.3270  -11.8660 O.3   469  TYR469     -0.2866
    145  N         -0.6870    2.2250  -10.9670 N.am  470  PHE470     -0.1962
    146  CA        -0.3490    3.1950  -12.0090 C.3   470  PHE470      0.1771
    147  C         -0.7480    4.6030  -11.5640 C.2   470  PHE470      0.2620
    148  O         -1.7260    4.7770  -10.8290 O.2   470  PHE470     -0.2715
    149  CB        -1.0860    2.8560  -13.3160 C.3   470  PHE470      0.0574
    150  CG        -0.5490    1.6420  -14.0590 C.ar  470  PHE470     -0.0200
    151  CD1        0.4070    0.7930  -13.5030 C.ar  470  PHE470     -0.0042
    152  CD2       -1.0420    1.3380  -15.3240 C.ar  470  PHE470     -0.0042
    153  CE1        0.8760   -0.3140  -14.2060 C.ar  470  PHE470     -0.0003
    154  CE2       -0.5810    0.2300  -16.0270 C.ar  470  PHE470     -0.0003
    155  CZ         0.3760   -0.5980  -15.4640 C.ar  470  PHE470     -0.0000
    156  N          0.0110    5.6000  -12.0090 N.am  471  GLY471     -0.1940
    157  CA        -0.3540    7.0070  -11.8050 C.3   471  GLY471      0.2014
    158  C         -1.7860    7.3440  -12.1990 C.2   471  GLY471      0.2639
    159  O         -2.4560    8.1210  -11.5300 O.2   471  GLY471     -0.2714
    160  N         -2.2550    6.7500  -13.2900 N.am  472  GLY472     -0.1954
    161  CA        -3.5990    7.0030  -13.7930 C.3   472  GLY472      0.1869
    162  C         -4.7100    6.4400  -12.9290 C.2   472  GLY472      0.2309
    163  O         -5.8410    6.9210  -12.9860 O.2   472  GLY472     -0.2863
@<TRIPOS>BOND
     1    45    44    1
     2    44    43    1
     3    43    42    1
     4    42    41    1
     5    28    27   ar
     6    41    38    1
     7    55    54    2
     8    27    29   ar
     9    27    26    1
    10    54    53    1
    11    37    38    1
    12    26    23    1
    13    38    39    1
    14    52    53    1
    15    53    56    1
    16    39    46   am
    17    39    40    2
    18    22    23    1
    19    22    13   am
    20    46    47    1
    21    48    47    1
    22    48    49    2
    23    23    24    1
    24    12    11    1
    25    12    13    1
    26    12    15    1
    27    56    57    1
    28    47    50    1
    29    13    14    2
    30    25    24    2
    31    24    30   am
    32    68    66   ar
    33    68    70   ar
    34    16    15    1
    35    16    17    1
    36    66    65   ar
    37    32    33    2
    38    32    31    1
    39    20    19    1
    40    30    31    1
    41    57    58    2
    42    57    59   am
    43    50    51    1
    44    60    61    1
    45    17    18    1
    46    71    70    1
    47    31    34    1
    48    70    69   ar
    49    65    64    1
    50    65    67   ar
    51    64    61    1
    52    19    18    2
    53    19    21    1
    54    91    90    1
    55    91    92    1
    56    61    62    1
    57    90    89    1
    58    34    35    1
    59    34    36    1
    60    69    67   ar
    61    89    88    1
    62    62    63    2
    63     8     7    2
    64    88    85    1
    65    10     9    1
    66     9     6    1
    67    85    84    1
    68    85    86    1
    69     6     7    1
    70     6     5    1
    71    98    97    1
    72    93    86   am
    73    93    94    1
    74    75    74    2
    75    96    95    2
    76     4     3    2
    77    86    87    2
    78     5     3   am
    79    72    73    1
    80    78    80   ar
    81    78    77   ar
    82     3     2    1
    83   154   155   ar
    84   154   152   ar
    85    97    94    1
    86    80    82   ar
    87    76    73    1
    88    76    77    1
    89    95    94    1
    90    95    99   am
    91    74    73    1
    92   155   153   ar
    93   152   150   ar
    94    77    79   ar
    95     2     1    1
    96    99   100    1
    97   100   101    1
    98    82    83    1
    99    82    81   ar
   100   153   151   ar
   101   150   151   ar
   102   150   149    1
   103    79    81   ar
   104   161   160    1
   105   161   162    1
   106   106   105    2
   107   103   101   am
   108   103   104    1
   109   101   102    2
   110   149   146    1
   111   160   158   am
   112   108   107    1
   113   163   162    2
   114   107   104    1
   115   107   109    1
   116   105   104    1
   117   158   157    1
   118   158   159    2
   119   156   157    1
   120   156   147   am
   121   146   147    1
   122   146   145    1
   123   116   115    1
   124   116   117    1
   125   144   143    1
   126   147   148    2
   127   115   114    1
   128   110   111    1
   129   117   118    2
   130   143   141   ar
   131   143   142   ar
   132   145   135   am
   133   141   139   ar
   134   114   111    1
   135   132   131    1
   136   129   131   ar
   137   129   127   ar
   138   118   119    1
   139   118   120    1
   140   111   112    1
   141   142   140   ar
   142   139   138   ar
   143   131   130   ar
   144   127   126   ar
   145   135   136    2
   146   135   134    1
   147   140   138   ar
   148   133   134    1
   149   138   137    1
   150   113   112    2
   151   130   128   ar
   152   126   128   ar
   153   126   125    1
   154   134   137    1
   155   125   122    1
   156   122   123    1
   157   122   121    1
   158   123   124    2
