@<TRIPOS>MOLECULE
tmp/3ocmA00.pdb
 167 163 0 0 0
SMALL
GASTEIGER

@<TRIPOS>ATOM
      1  N         26.0420   58.4020   14.0410 N.3    24  THR24      -0.1218
      2  CA        24.6090   58.3790   14.2680 C.3    24  THR24       0.1862
      3  C         23.9660   58.2400   12.8930 C.2    24  THR24       0.2287
      4  O         24.1940   59.0760   12.0130 O.2    24  THR24      -0.2866
      5  CB        24.1500   59.6660   14.9830 C.3    24  THR24       0.1770
      6  OG1       24.6760   59.6850   16.3250 O.3    24  THR24      -0.2211
      7  CG2       22.6330   59.7350   15.0480 C.3    24  THR24       0.0375
      8  N         18.1950   58.3410   12.8320 N.3    28  ASP28      -0.1225
      9  CA        18.2340   58.9670   14.1520 C.3    28  ASP28       0.1805
     10  C         18.7170   60.4190   14.1540 C.2    28  ASP28       0.2598
     11  O         18.9330   61.0010   15.2130 O.2    28  ASP28      -0.2718
     12  CB        19.1240   58.1580   15.0850 C.3    28  ASP28       0.1424
     13  CG        18.5320   56.8020   15.4240 C.2    28  ASP28       0.3668
     14  OD1       17.2910   56.6900   15.4770 O.co2  28  ASP28      -0.2456
     15  OD2       19.3170   55.8590   15.6420 O.co2  28  ASP28      -0.2456
     16  N         18.8990   61.0080   12.9810 N.am   29  VAL29      -0.1966
     17  CA        19.3300   62.4000   12.9310 C.3    29  VAL29       0.1727
     18  C         18.1750   63.3140   13.3870 C.2    29  VAL29       0.2616
     19  O         17.0420   63.1620   12.9250 O.2    29  VAL29      -0.2715
     20  CB        19.8090   62.7800   11.5090 C.3    29  VAL29       0.0290
     21  CG1       19.9360   64.2920   11.3700 C.3    29  VAL29       0.0023
     22  CG2       21.1350   62.0510   11.1890 C.3    29  VAL29       0.0023
     23  N         18.4480   64.2350   14.3110 N.am   30  SER30      -0.1950
     24  CA        17.4340   65.2410   14.6960 C.3    30  SER30       0.1924
     25  C         17.7210   66.4580   13.8450 C.2    30  SER30       0.2314
     26  O         18.8150   67.0130   13.9290 O.2    30  SER30      -0.2863
     27  CB        17.5350   65.6190   16.1860 C.3    30  SER30       0.2116
     28  OG        17.2090   64.5180   17.0320 O.3    30  SER30      -0.2180
     29  N         18.1600   65.8720   23.1640 N.3    49  PRO49      -0.2102
     30  CA        19.2820   66.1700   24.0470 C.3    49  PRO49       0.1504
     31  C         20.3730   66.9590   23.3260 C.2    49  PRO49       0.2576
     32  O         21.2950   67.4380   23.9760 O.2    49  PRO49      -0.2718
     33  CB        19.7840   64.7710   24.4410 C.3    49  PRO49       0.0282
     34  CG        19.4030   63.9110   23.3120 C.3    49  PRO49       0.0208
     35  CD        18.0820   64.4370   22.8360 C.3    49  PRO49       0.0893
     36  N         20.2550   67.1220   22.0100 N.am   50  HIS50      -0.1962
     37  CA        21.3520   67.6760   21.2110 C.3    50  HIS50       0.1787
     38  C         21.3900   69.1860   21.1580 C.2    50  HIS50       0.2621
     39  O         20.3740   69.8450   21.3550 O.2    50  HIS50      -0.2715
     40  CB        21.3220   67.0660   19.8030 C.3    50  HIS50       0.0785
     41  CG        21.1280   65.5850   19.8230 C.ar   50  HIS50       0.0821
     42  ND1       22.0590   64.7240   20.3670 N.ar   50  HIS50      -0.2267
     43  CD2       20.1050   64.8130   19.3880 C.ar   50  HIS50       0.1154
     44  CE1       21.6160   63.4840   20.2700 C.ar   50  HIS50       0.1986
     45  NE2       20.4350   63.5120   19.6740 N.ar   50  HIS50      -0.2212
     46  N         22.5840   69.7320   20.9310 N.am   51  SER51      -0.1936
     47  CA        22.7720   71.1750   20.8550 C.3    51  SER51       0.2055
     48  C         22.8420   71.7170   19.4260 C.2    51  SER51       0.2643
     49  O         22.4240   72.8480   19.1910 O.2    51  SER51      -0.2714
     50  CB        24.0300   71.5990   21.6140 C.3    51  SER51       0.2130
     51  OG        23.8660   71.3170   22.9820 O.3    51  SER51      -0.2179
     52  N         23.3860   70.9430   18.4850 N.am   52  PHE52      -0.1959
     53  CA        23.4570   71.4010   17.0960 C.3    52  PHE52       0.1771
     54  C         22.5080   70.5720   16.2340 C.2    52  PHE52       0.2620
     55  O         22.3840   69.3630   16.4350 O.2    52  PHE52      -0.2715
     56  CB        24.8690   71.2700   16.5040 C.3    52  PHE52       0.0574
     57  CG        25.8750   72.2390   17.0660 C.ar   52  PHE52      -0.0200
     58  CD1       26.3440   73.2880   16.2980 C.ar   52  PHE52      -0.0042
     59  CD2       26.3810   72.0680   18.3460 C.ar   52  PHE52      -0.0042
     60  CE1       27.2950   74.1730   16.8020 C.ar   52  PHE52      -0.0003
     61  CE2       27.3140   72.9490   18.8570 C.ar   52  PHE52      -0.0003
     62  CZ        27.7750   73.9970   18.0830 C.ar   52  PHE52      -0.0000
     63  N         21.8890   71.2220   15.2480 N.am   53  PHE53      -0.1960
     64  CA        20.8990   70.5830   14.3710 C.3    53  PHE53       0.1756
     65  C         21.0970   71.0110   12.9180 C.2    53  PHE53       0.2461
     66  O         21.1630   72.2160   12.6300 O.2    53  PHE53      -0.2730
     67  CB        19.4730   71.0110   14.7820 C.3    53  PHE53       0.0574
     68  CG        19.0620   70.5480   16.1600 C.ar   53  PHE53      -0.0200
     69  CD1       18.1780   69.4840   16.3170 C.ar   53  PHE53      -0.0042
     70  CD2       19.5550   71.1750   17.3010 C.ar   53  PHE53      -0.0042
     71  CE1       17.8050   69.0460   17.5930 C.ar   53  PHE53      -0.0003
     72  CE2       19.1830   70.7480   18.5650 C.ar   53  PHE53      -0.0003
     73  CZ        18.3080   69.6850   18.7150 C.ar   53  PHE53      -0.0000
     74  N         21.1370   70.0430   11.9970 N.am   54  PRO54      -0.2727
     75  CA        20.9700   70.4430   10.5980 C.3    54  PRO54       0.1402
     76  C         19.6400   71.1950   10.4600 C.2    54  PRO54       0.2269
     77  O         18.6360   70.7610   11.0340 O.2    54  PRO54      -0.2865
     78  CB        20.8870   69.1030    9.8600 C.3    54  PRO54       0.0296
     79  CG        21.5490   68.1230   10.7690 C.3    54  PRO54       0.0237
     80  CD        21.2050   68.5790   12.1520 C.3    54  PRO54       0.0939
     81  N         33.5620   71.9110   17.5980 N.3   110  GLY110     -0.1225
     82  CA        32.3390   71.5880   18.3210 C.3   110  GLY110      0.1811
     83  C         31.1250   71.2830   17.4660 C.2   110  GLY110      0.2280
     84  O         30.1040   70.7890   17.9700 O.2   110  GLY110     -0.2866
     85  N         28.9090   69.2860   14.6950 N.3   112  LEU112     -0.1245
     86  CA        28.7370   67.9500   14.1470 C.3   112  LEU112      0.1561
     87  C         29.2250   67.9110   12.6810 C.2   112  LEU112      0.2260
     88  O         29.2290   68.9280   11.9890 O.2   112  LEU112     -0.2867
     89  CB        27.2560   67.5340   14.2500 C.3   112  LEU112      0.0270
     90  CG        26.2170   68.4110   13.5340 C.3   112  LEU112      0.0019
     91  CD1       26.0820   68.0040   12.0840 C.3   112  LEU112      0.0001
     92  CD2       24.8420   68.3360   14.2070 C.3   112  LEU112      0.0001
     93  N         25.5610   61.3640   10.8850 N.3   125  LEU125     -0.1245
     94  CA        26.3660   62.4590   11.4040 C.3   125  LEU125      0.1561
     95  C         27.2360   61.9260   12.5290 C.2   125  LEU125      0.2260
     96  O         26.9420   60.8790   13.1280 O.2   125  LEU125     -0.2867
     97  CB        25.4900   63.6320   11.8620 C.3   125  LEU125      0.0270
     98  CG        24.5290   63.5350   13.0400 C.3   125  LEU125      0.0019
     99  CD1       25.2330   63.5910   14.4020 C.3   125  LEU125      0.0001
    100  CD2       23.4750   64.6600   12.9530 C.3   125  LEU125      0.0001
    101  N         30.1850   63.1010   15.8060 N.3   127  THR127     -0.1204
    102  CA        30.8870   64.0590   16.6540 C.3   127  THR127      0.1979
    103  C         32.0210   63.3130   17.3710 C.2   127  THR127      0.2460
    104  O         32.1360   62.0990   17.2470 O.2   127  THR127     -0.2732
    105  CB        29.9440   64.6560   17.7300 C.3   127  THR127      0.1783
    106  OG1       29.6860   63.6700   18.7290 O.3   127  THR127     -0.2211
    107  CG2       28.6130   65.0990   17.1050 C.3   127  THR127      0.0376
    108  N         32.8530   64.0260   18.1520 N.am  128  PRO128     -0.2717
    109  CA        33.9660   63.3040   18.7910 C.3   128  PRO128      0.1535
    110  C         33.4970   62.2000   19.7320 C.2   128  PRO128      0.2598
    111  O         34.1810   61.1800   19.8870 O.2   128  PRO128     -0.2715
    112  CB        34.6950   64.4130   19.5590 C.3   128  PRO128      0.0310
    113  CG        34.4260   65.6590   18.6860 C.3   128  PRO128      0.0237
    114  CD        32.9730   65.4850   18.3200 C.3   128  PRO128      0.0939
    115  N         32.3310   62.3880   20.3420 N.am  129  ILE129     -0.1964
    116  CA        31.7840   61.3540   21.2150 C.3   129  ILE129      0.1727
    117  C         31.6530   60.0090   20.5170 C.2   129  ILE129      0.2616
    118  O         31.9590   58.9580   21.1080 O.2   129  ILE129     -0.2715
    119  CB        30.4260   61.7950   21.8330 C.3   129  ILE129      0.0290
    120  CG1       30.6610   62.8790   22.8790 C.3   129  ILE129      0.0022
    121  CG2       29.7000   60.6060   22.4840 C.3   129  ILE129      0.0023
    122  CD1       31.1840   62.3330   24.2250 C.3   129  ILE129      0.0001
    123  N         31.2160   60.0150   19.2520 N.am  130  ASP130     -0.1971
    124  CA        31.0710   58.7650   18.5070 C.3   130  ASP130      0.1709
    125  C         32.3950   58.0150   18.3410 C.2   130  ASP130      0.2293
    126  O         32.4410   56.7830   18.4370 O.2   130  ASP130     -0.2864
    127  CB        30.4160   59.0360   17.1420 C.3   130  ASP130      0.1436
    128  CG        29.0260   59.6430   17.2990 C.2   130  ASP130      0.3671
    129  OD1       28.1940   59.0390   18.0090 O.co2 130  ASP130     -0.2456
    130  OD2       28.7740   60.7300   16.7660 O.co2 130  ASP130     -0.2456
    131  N         33.5550   56.6800   21.8490 N.3   133  GLU133     -0.1245
    132  CA        32.8200   55.4740   22.2460 C.3   133  GLU133      0.1567
    133  C         33.4300   54.2060   21.6740 C.2   133  GLU133      0.2260
    134  O         33.3670   53.1580   22.3080 O.2   133  GLU133     -0.2867
    135  CB        31.3560   55.5400   21.8150 C.3   133  GLU133      0.0388
    136  CG        30.5090   56.5040   22.6270 C.3   133  GLU133      0.1160
    137  CD        29.0320   56.3990   22.2780 C.2   133  GLU133      0.3649
    138  OE1       28.7150   56.2920   21.0730 O.co2 133  GLU133     -0.2457
    139  OE2       28.1940   56.4450   23.1950 O.co2 133  GLU133     -0.2457
    140  N         28.7480   56.3270   25.9480 N.3   139  PHE139     -0.1241
    141  CA        28.3300   57.4930   26.7180 C.3   139  PHE139      0.1605
    142  C         26.9300   57.8530   26.2320 C.2   139  PHE139      0.2264
    143  O         26.7570   58.7880   25.4440 O.2   139  PHE139     -0.2867
    144  CB        29.2890   58.6770   26.4870 C.3   139  PHE139      0.0534
    145  CG        30.6590   58.4780   27.0990 C.ar  139  PHE139     -0.0203
    146  CD1       31.0050   59.1080   28.2880 C.ar  139  PHE139     -0.0042
    147  CD2       31.5850   57.6430   26.4970 C.ar  139  PHE139     -0.0042
    148  CE1       32.2580   58.9080   28.8640 C.ar  139  PHE139     -0.0003
    149  CE2       32.8410   57.4370   27.0620 C.ar  139  PHE139     -0.0003
    150  CZ        33.1800   58.0710   28.2430 C.ar  139  PHE139     -0.0000
    151  N         23.1980   59.1540   25.4340 N.3   141  ASP141     -0.1239
    152  CA        22.4860   60.4130   25.6050 C.3   141  ASP141      0.1674
    153  C         21.3980   60.2560   26.6470 C.2   141  ASP141      0.2266
    154  O         21.0720   59.1400   27.0650 O.2   141  ASP141     -0.2867
    155  CB        21.8170   60.8160   24.2920 C.3   141  ASP141      0.1410
    156  CG        22.8080   60.9500   23.1460 C.2   141  ASP141      0.3668
    157  OD1       23.9940   61.2570   23.4090 O.co2 141  ASP141     -0.2456
    158  OD2       22.3960   60.7490   21.9840 O.co2 141  ASP141     -0.2456
    159  N         18.7710   57.7780   25.6550 N.3   144  GLU144     -0.1245
    160  CA        19.2450   56.4680   25.2510 C.3   144  GLU144      0.1567
    161  C         19.4440   55.5940   26.4830 C.2   144  GLU144      0.2260
    162  O         19.6390   56.1040   27.5930 O.2   144  GLU144     -0.2867
    163  CB        20.5710   56.5930   24.4980 C.3   144  GLU144      0.0388
    164  CG        20.4340   57.3290   23.1990 C.3   144  GLU144      0.1160
    165  CD        21.6910   57.2750   22.3680 C.2   144  GLU144      0.3649
    166  OE1       22.7860   57.5300   22.9190 O.co2 144  GLU144     -0.2457
    167  OE2       21.5750   56.9900   21.1600 O.co2 144  GLU144     -0.2457
@<TRIPOS>BOND
     1    78    75    1
     2    78    79    1
     3    76    75    1
     4    76    77    2
     5    75    74    1
     6    79    80    1
     7    93    94    1
     8    22    20    1
     9    21    20    1
    10    94    97    1
    11    94    95    1
    12    20    17    1
    13    97    98    1
    14    88    87    2
    15    74    80    1
    16    74    65   am
    17     4     3    2
    18    91    90    1
    19    95    96    2
    20    66    65    2
    21    87    86    1
    22     8     9    1
    23     3     2    1
    24    65    64    1
    25    19    18    2
    26    17    16    1
    27    17    18    1
    28   100    98    1
    29    16    10   am
    30    98    99    1
    31    18    23   am
    32    90    92    1
    33    90    89    1
    34    25    26    2
    35    25    24    1
    36     1     2    1
    37    86    89    1
    38    86    85    1
    39     9    10    1
    40     9    12    1
    41    10    11    2
    42     2     5    1
    43    23    24    1
    44    64    67    1
    45    64    63    1
    46    24    27    1
    47    67    68    1
    48     5     7    1
    49     5     6    1
    50    12    13    1
    51    63    54   am
    52    13    14   ar
    53    13    15   ar
    54   101   102    1
    55    68    69   ar
    56    68    70   ar
    57    27    28    1
    58    54    55    2
    59    54    53    1
    60    58    60   ar
    61    58    57   ar
    62    69    71   ar
    63    56    57    1
    64    56    53    1
    65   102   103    1
    66   102   105    1
    67   130   128   ar
    68    60    62   ar
    69    57    59   ar
    70    53    52    1
    71   107   105    1
    72   127   128    1
    73   127   124    1
    74   104   103    2
    75   128   129   ar
    76    70    72   ar
    77   103   108   am
    78    83    84    2
    79    83    82    1
    80    71    73   ar
    81    81    82    1
    82   105   106    1
    83    62    61   ar
    84   108   114    1
    85   108   109    1
    86   114   113    1
    87   125   126    2
    88   125   124    1
    89    59    61   ar
    90    52    48   am
    91   124   123    1
    92    72    73   ar
    93   113   112    1
    94   109   112    1
    95   109   110    1
    96    49    48    2
    97   123   117   am
    98    43    45   ar
    99    43    41   ar
   100    48    47    1
   101    45    44   ar
   102   110   111    2
   103   110   115   am
   104    40    41    1
   105    40    37    1
   106    41    42   ar
   107    44    42   ar
   108   115   116    1
   109   117   118    2
   110   117   116    1
   111    47    46    1
   112    47    50    1
   113    46    38   am
   114   138   137   ar
   115    38    37    1
   116    38    39    2
   117   167   165   ar
   118    37    36    1
   119   116   119    1
   120    50    51    1
   121   133   132    1
   122   133   134    2
   123   135   132    1
   124   135   136    1
   125   119   121    1
   126   119   120    1
   127   131   132    1
   128   158   156   ar
   129    36    31   am
   130   137   136    1
   131   137   139   ar
   132   165   166   ar
   133   165   164    1
   134    35    29    1
   135    35    34    1
   136   120   122    1
   137   156   157   ar
   138   156   155    1
   139    29    30    1
   140   164   163    1
   141    34    33    1
   142    31    32    2
   143    31    30    1
   144    30    33    1
   145   155   152    1
   146   163   160    1
   147   160   159    1
   148   160   161    1
   149   151   152    1
   150   143   142    2
   151   152   153    1
   152   140   141    1
   153   142   141    1
   154   161   162    2
   155   144   141    1
   156   144   145    1
   157   147   149   ar
   158   147   145   ar
   159   153   154    2
   160   149   150   ar
   161   145   146   ar
   162   150   148   ar
   163   146   148   ar
