@<TRIPOS>MOLECULE
tmp/3ocnA00.pdb
 174 170 0 0 0
SMALL
GASTEIGER

@<TRIPOS>ATOM
      1  N         12.2510    8.7780   -8.9270 N.3   242  GLU242     -0.1231
      2  CA        12.2630    8.7870  -10.3850 C.3   242  GLU242      0.1684
      3  C         10.8400    8.9350  -10.9060 C.2   242  GLU242      0.2434
      4  O          9.9930    8.0720  -10.6480 O.2   242  GLU242     -0.2733
      5  CB        12.8650    7.4910  -10.9090 C.3   242  GLU242      0.0402
      6  CG        14.3270    7.3240  -10.5470 C.3   242  GLU242      0.1161
      7  CD        14.6220    5.9680   -9.9760 C.2   242  GLU242      0.3649
      8  OE1       15.1660    5.9160   -8.8570 O.co2 242  GLU242     -0.2457
      9  OE2       14.2950    4.9540  -10.6340 O.co2 242  GLU242     -0.2457
     10  N         10.5680   10.0320  -11.6380 N.am  243  PRO243     -0.2718
     11  CA         9.2150   10.3160  -12.1150 C.3   243  PRO243      0.1535
     12  C          8.7330    9.3360  -13.1880 C.2   243  PRO243      0.2599
     13  O          7.5320    9.0670  -13.2840 O.2   243  PRO243     -0.2715
     14  CB         9.3270   11.7360  -12.6710 C.3   243  PRO243      0.0310
     15  CG        10.7540   11.9020  -13.0200 C.3   243  PRO243      0.0237
     16  CD        11.5450   11.0320  -12.1060 C.3   243  PRO243      0.0939
     17  N          9.6630    8.8130  -13.9820 N.am  244  GLY244     -0.1941
     18  CA         9.3490    7.7770  -14.9540 C.3   244  GLY244      0.2014
     19  C          8.5440    8.2920  -16.1350 C.2   244  GLY244      0.2639
     20  O          8.9950    9.1680  -16.8670 O.2   244  GLY244     -0.2714
     21  N          7.3440    7.7490  -16.3090 N.am  245  SER245     -0.1949
     22  CA         6.4930    8.0710  -17.4530 C.3   245  SER245      0.1924
     23  C          5.9770    9.5000  -17.4020 C.2   245  SER245      0.2314
     24  O          5.6580   10.0830  -18.4360 O.2   245  SER245     -0.2863
     25  CB         5.2860    7.1300  -17.5080 C.3   245  SER245      0.2116
     26  OG         5.6800    5.7800  -17.7490 O.3   245  SER245     -0.2180
     27  N          7.7240   11.8790  -19.6760 N.3   248  LYS248     -0.1245
     28  CA         7.6060   11.6470  -21.1170 C.3   248  LYS248      0.1561
     29  C          7.0110   12.8430  -21.8800 C.2   248  LYS248      0.2260
     30  O          7.4200   13.1010  -23.0120 O.2   248  LYS248     -0.2867
     31  CB         6.7820   10.3880  -21.4060 C.3   248  LYS248      0.0271
     32  CG         7.4840    9.0810  -21.0500 C.3   248  LYS248      0.0035
     33  CD         6.5280    7.8940  -21.1740 C.3   248  LYS248      0.0206
     34  CE         7.2280    6.5560  -20.9870 C.3   248  LYS248      0.1093
     35  NZ         6.2500    5.4260  -20.9740 N.3   248  LYS248     -0.1314
     36  N          5.4710   -2.5160  -21.1600 N.3   284  VAL284     -0.1245
     37  CA         4.5670   -3.4420  -20.4730 C.3   284  VAL284      0.1561
     38  C          3.5300   -3.9680  -21.4640 C.2   284  VAL284      0.2260
     39  O          3.2710   -5.1700  -21.5260 O.2   284  VAL284     -0.2867
     40  CB         3.8690   -2.7890  -19.2490 C.3   284  VAL284      0.0252
     41  CG1        2.7870   -1.8070  -19.6870 C.3   284  VAL284      0.0019
     42  CG2        3.2800   -3.8580  -18.3440 C.3   284  VAL284      0.0019
     43  N         -0.1460    4.2750  -24.4740 N.3   299  LYS299     -0.1231
     44  CA         0.3820    2.9390  -24.1750 C.3   299  LYS299      0.1693
     45  C          1.5130    3.0260  -23.1460 C.2   299  LYS299      0.2592
     46  O          1.8620    2.0250  -22.5180 O.2   299  LYS299     -0.2718
     47  CB         0.8970    2.2530  -25.4470 C.3   299  LYS299      0.0285
     48  CG        -0.0710    2.2430  -26.6340 C.3   299  LYS299      0.0035
     49  CD        -1.2560    1.3270  -26.3980 C.3   299  LYS299      0.0206
     50  CE        -2.2090    1.2990  -27.5970 C.3   299  LYS299      0.1093
     51  NZ        -3.5890    0.9110  -27.1840 N.3   299  LYS299     -0.1314
     52  N          2.0690    4.2270  -22.9750 N.am  300  SER300     -0.1952
     53  CA         3.2180    4.4580  -22.0980 C.3   300  SER300      0.1924
     54  C          4.4140    3.6110  -22.5310 C.2   300  SER300      0.2314
     55  O          4.9870    2.8520  -21.7430 O.2   300  SER300     -0.2863
     56  CB         2.8560    4.2310  -20.6290 C.3   300  SER300      0.2116
     57  OG         2.8730    5.4640  -19.9300 O.3   300  SER300     -0.2180
     58  N          7.9420    2.8970  -23.2740 N.3   302  ASN302     -0.1240
     59  CA         9.3540    3.2260  -23.0550 C.3   302  ASN302      0.1653
     60  C         10.1780    3.1050  -24.3350 C.2   302  ASN302      0.2266
     61  O         11.0810    3.9090  -24.5780 O.2   302  ASN302     -0.2867
     62  CB         9.9640    2.3230  -21.9720 C.3   302  ASN302      0.1155
     63  CG         9.5010    2.6890  -20.5660 C.2   302  ASN302      0.2627
     64  OD1        9.1000    3.8200  -20.3030 O.2   302  ASN302     -0.2716
     65  ND2        9.5620    1.7270  -19.6570 N.am  302  ASN302     -0.0877
     66  N         12.5960    8.2120  -20.6640 N.3   358  TYR358     -0.1241
     67  CA        11.4470    7.6260  -19.9550 C.3   358  TYR358      0.1605
     68  C         11.5210    7.7600  -18.4210 C.2   358  TYR358      0.2264
     69  O         10.8240    7.0500  -17.6930 O.2   358  TYR358     -0.2867
     70  CB        11.1950    6.1680  -20.3780 C.3   358  TYR358      0.0534
     71  CG        12.3120    5.1790  -20.1140 C.ar  358  TYR358     -0.0201
     72  CD1       13.2350    4.8610  -21.1060 C.ar  358  TYR358     -0.0009
     73  CD2       12.4200    4.5300  -18.8900 C.ar  358  TYR358     -0.0009
     74  CE1       14.2570    3.9450  -20.8730 C.ar  358  TYR358      0.0417
     75  CE2       13.4330    3.6140  -18.6490 C.ar  358  TYR358      0.0417
     76  CZ        14.3440    3.3260  -19.6410 C.ar  358  TYR358      0.1957
     77  OH        15.3510    2.4200  -19.3980 O.3   358  TYR358     -0.2866
     78  N         13.7020    7.3350  -15.8900 N.3   360  TYR360     -0.1241
     79  CA        14.4910    6.5820  -14.9350 C.3   360  TYR360      0.1605
     80  C         15.7650    7.3520  -14.5970 C.2   360  TYR360      0.2264
     81  O         16.2960    7.2080  -13.4980 O.2   360  TYR360     -0.2867
     82  CB        14.8220    5.1970  -15.4940 C.3   360  TYR360      0.0534
     83  CG        15.5800    4.2850  -14.5430 C.ar  360  TYR360     -0.0201
     84  CD1       14.9060    3.4190  -13.6870 C.ar  360  TYR360     -0.0009
     85  CD2       16.9720    4.2710  -14.5190 C.ar  360  TYR360     -0.0009
     86  CE1       15.6010    2.5750  -12.8270 C.ar  360  TYR360      0.0417
     87  CE2       17.6680    3.4380  -13.6690 C.ar  360  TYR360      0.0417
     88  CZ        16.9820    2.5930  -12.8270 C.ar  360  TYR360      0.1957
     89  OH        17.6910    1.7660  -11.9840 O.3   360  TYR360     -0.2866
     90  N         -0.9380   12.4770  -17.0940 N.3   435  LYS435     -0.1231
     91  CA        -0.1480   11.3070  -17.4520 C.3   435  LYS435      0.1693
     92  C          0.0740   10.4360  -16.2220 C.2   435  LYS435      0.2593
     93  O          0.5840   10.9090  -15.2100 O.2   435  LYS435     -0.2718
     94  CB         1.2040   11.7520  -18.0260 C.3   435  LYS435      0.0285
     95  CG         2.1790   10.6170  -18.3890 C.3   435  LYS435      0.0035
     96  CD         1.7270    9.8520  -19.6240 C.3   435  LYS435      0.0206
     97  CE         2.4850    8.5450  -19.7920 C.3   435  LYS435      0.1093
     98  NZ         2.0460    7.5140  -18.8150 N.3   435  LYS435     -0.1314
     99  N         -0.3010    9.1650  -16.3140 N.am  436  SER436     -0.1938
    100  CA        -0.0190    8.2070  -15.2490 C.3   436  SER436      0.2055
    101  C          1.4540    7.8270  -15.2490 C.2   436  SER436      0.2644
    102  O          2.1720    8.0640  -16.2250 O.2   436  SER436     -0.2714
    103  CB        -0.8680    6.9430  -15.4080 C.3   436  SER436      0.2130
    104  OG        -0.4190    6.1590  -16.5010 O.3   436  SER436     -0.2179
    105  N          1.8870    7.2390  -14.1360 N.am  437  GLY437     -0.1939
    106  CA         3.2360    6.6980  -13.9890 C.3   437  GLY437      0.2014
    107  C          3.2360    5.5890  -12.9480 C.2   437  GLY437      0.2640
    108  O          2.3860    5.5620  -12.0610 O.2   437  GLY437     -0.2714
    109  N          4.1820    4.6620  -13.0740 N.am  438  THR438     -0.1936
    110  CA         4.3570    3.5790  -12.1090 C.3   438  THR438      0.2028
    111  C          5.8430    3.2660  -11.9970 C.2   438  THR438      0.2642
    112  O          6.4240    2.6620  -12.8960 O.2   438  THR438     -0.2714
    113  CB         3.5930    2.3080  -12.5310 C.3   438  THR438      0.1808
    114  OG1        2.2200    2.6320  -12.7740 O.3   438  THR438     -0.2208
    115  CG2        3.6830    1.2340  -11.4460 C.3   438  THR438      0.0379
    116  N          6.4540    3.6950  -10.8970 N.am  439  ALA439     -0.1963
    117  CA         7.8890    3.5390  -10.7020 C.3   439  ALA439      0.1728
    118  C          8.1680    2.3970   -9.7320 C.2   439  ALA439      0.2616
    119  O          7.5440    2.3110   -8.6710 O.2   439  ALA439     -0.2715
    120  CB         8.4870    4.8280  -10.1840 C.3   439  ALA439      0.0334
    121  N          9.1040    1.5250  -10.1080 N.am  440  ARG440     -0.1977
    122  CA         9.5370    0.4190   -9.2570 C.3   440  ARG440      0.1597
    123  C         10.6910    0.8790   -8.3780 C.2   440  ARG440      0.2287
    124  O         11.6330    1.5070   -8.8630 O.2   440  ARG440     -0.2864
    125  CB         9.9770   -0.7680  -10.1140 C.3   440  ARG440      0.0334
    126  CG        10.6050   -1.9240   -9.3280 C.3   440  ARG440      0.0492
    127  CD        10.5850   -3.2210  -10.1320 C.3   440  ARG440      0.2205
    128  NE        11.8250   -3.4450  -10.8780 N.pl3 440  ARG440     -0.0865
    129  CZ        11.9060   -3.9620  -12.1080 C.cat 440  ARG440      0.5346
    130  NH1       10.8140   -4.3000  -12.7910 N.pl3 440  ARG440      0.1354
    131  NH2       13.0990   -4.1270  -12.6740 N.pl3 440  ARG440      0.1354
    132  N          6.3050   -0.5330   -5.4170 N.3   446  TYR446     -0.1241
    133  CA         5.9670    0.4130   -6.4830 C.3   446  TYR446      0.1605
    134  C          5.4700    1.7520   -5.9400 C.2   446  TYR446      0.2264
    135  O          4.7630    1.7930   -4.9360 O.2   446  TYR446     -0.2867
    136  CB         4.8760   -0.1760   -7.3880 C.3   446  TYR446      0.0534
    137  CG         5.2300   -1.5000   -8.0290 C.ar  446  TYR446     -0.0201
    138  CD1        6.1010   -1.5580   -9.1130 C.ar  446  TYR446     -0.0009
    139  CD2        4.6850   -2.6940   -7.5600 C.ar  446  TYR446     -0.0009
    140  CE1        6.4320   -2.7740   -9.7120 C.ar  446  TYR446      0.0417
    141  CE2        5.0070   -3.9160   -8.1530 C.ar  446  TYR446      0.0417
    142  CZ         5.8820   -3.9500   -9.2300 C.ar  446  TYR446      0.1957
    143  OH         6.2080   -5.1540   -9.8230 O.3   446  TYR446     -0.2866
    144  N         -1.4260   -1.8440   -8.7610 N.3   475  TYR475     -0.1227
    145  CA        -0.4480   -0.8210   -8.3710 C.3   475  TYR475      0.1736
    146  C         -0.1860    0.2490   -9.4290 C.2   475  TYR475      0.2595
    147  O          0.5140    1.2190   -9.1510 O.2   475  TYR475     -0.2718
    148  CB         0.8760   -1.4760   -7.9490 C.3   475  TYR475      0.0548
    149  CG         1.5030   -2.3770   -8.9890 C.ar  475  TYR475     -0.0200
    150  CD1        2.4520   -1.8890   -9.8800 C.ar  475  TYR475     -0.0009
    151  CD2        1.1570   -3.7220   -9.0730 C.ar  475  TYR475     -0.0009
    152  CE1        3.0400   -2.7180  -10.8340 C.ar  475  TYR475      0.0417
    153  CE2        1.7370   -4.5600  -10.0200 C.ar  475  TYR475      0.0417
    154  CZ         2.6770   -4.0520  -10.8970 C.ar  475  TYR475      0.1957
    155  OH         3.2530   -4.8740  -11.8380 O.3   475  TYR475     -0.2866
    156  N         -0.7480    0.0950  -10.6250 N.am  476  PHE476     -0.1962
    157  CA        -0.5000    1.0540  -11.7020 C.3   476  PHE476      0.1771
    158  C         -1.1350    2.4070  -11.3960 C.2   476  PHE476      0.2620
    159  O         -2.1770    2.4780  -10.7470 O.2   476  PHE476     -0.2715
    160  CB        -1.0080    0.5190  -13.0430 C.3   476  PHE476      0.0574
    161  CG        -0.1890   -0.6170  -13.5880 C.ar  476  PHE476     -0.0200
    162  CD1       -0.6970   -1.9070  -13.6250 C.ar  476  PHE476     -0.0042
    163  CD2        1.0960   -0.3960  -14.0620 C.ar  476  PHE476     -0.0042
    164  CE1        0.0650   -2.9530  -14.1300 C.ar  476  PHE476     -0.0003
    165  CE2        1.8610   -1.4400  -14.5650 C.ar  476  PHE476     -0.0003
    166  CZ         1.3480   -2.7140  -14.5970 C.ar  476  PHE476     -0.0000
    167  N         -0.4850    3.4720  -11.8590 N.am  477  GLY477     -0.1940
    168  CA        -0.9700    4.8380  -11.6710 C.3   477  GLY477      0.2014
    169  C         -2.3770    5.0450  -12.1980 C.2   477  GLY477      0.2639
    170  O         -3.2040    5.6800  -11.5450 O.2   477  GLY477     -0.2714
    171  N         -2.6500    4.4960  -13.3780 N.am  478  GLY478     -0.1954
    172  CA        -3.9720    4.5810  -13.9850 C.3   478  GLY478      0.1869
    173  C         -5.0810    4.0160  -13.1140 C.2   478  GLY478      0.2309
    174  O         -6.2250    4.4570  -13.2060 O.2   478  GLY478     -0.2863
@<TRIPOS>BOND
     1    50    51    1
     2    50    49    1
     3    48    49    1
     4    48    47    1
     5    47    44    1
     6    61    60    2
     7    43    44    1
     8    60    59    1
     9    44    45    1
    10    58    59    1
    11    45    52   am
    12    45    46    2
    13    59    62    1
    14    30    29    2
    15    52    53    1
    16    54    53    1
    17    54    55    2
    18    53    56    1
    19    62    63    1
    20    29    28    1
    21    39    38    2
    22    38    37    1
    23    31    28    1
    24    31    32    1
    25    33    32    1
    26    33    34    1
    27    36    37    1
    28    28    27    1
    29    72    74   ar
    30    72    71   ar
    31    34    35    1
    32    74    76   ar
    33    66    67    1
    34    56    57    1
    35    63    64    2
    36    63    65   am
    37    37    40    1
    38    70    71    1
    39    70    67    1
    40    71    73   ar
    41    67    68    1
    42    97    96    1
    43    97    98    1
    44    41    40    1
    45    76    77    1
    46    76    75   ar
    47    96    95    1
    48    40    42    1
    49    73    75   ar
    50    24    23    2
    51    68    69    2
    52    95    94    1
    53    94    91    1
    54    26    25    1
    55    25    22    1
    56    22    23    1
    57    22    21    1
    58    91    90    1
    59    91    92    1
    60    20    19    2
    61   104   103    1
    62    99    92   am
    63    99   100    1
    64    21    19   am
    65   102   101    2
    66    92    93    2
    67    19    18    1
    68    78    79    1
    69    82    79    1
    70    82    83    1
    71   103   100    1
    72   101   100    1
    73   101   105   am
    74    18    17    1
    75    79    80    1
    76   166   165   ar
    77   166   164   ar
    78    80    81    2
    79   165   163   ar
    80    83    85   ar
    81    83    84   ar
    82    85    87   ar
    83   105   106    1
    84   164   162   ar
    85   163   161   ar
    86   106   107    1
    87   172   171    1
    88   172   173    1
    89    17    12   am
    90    84    86   ar
    91    87    88   ar
    92   162   161   ar
    93   161   160    1
    94   171   169   am
    95    13    12    2
    96   174   173    2
    97    12    11    1
    98   109   107   am
    99   109   110    1
   100   160   157    1
   101    15    14    1
   102    15    16    1
   103   107   108    2
   104   112   111    2
   105    88    86   ar
   106    88    89    1
   107   130   129    1
   108   114   113    1
   109   131   129    1
   110    14    11    1
   111   113   110    1
   112   113   115    1
   113   169   168    1
   114   169   170    2
   115    11    10    1
   116   110   111    1
   117   129   128    2
   118    16    10    1
   119   111   116   am
   120   167   168    1
   121   167   158   am
   122   155   154    1
   123   157   158    1
   124   157   156    1
   125    10     3   am
   126   158   159    2
   127     5     6    1
   128     5     2    1
   129     3     4    2
   130     3     2    1
   131   154   152   ar
   132   154   153   ar
   133   116   117    1
   134   128   127    1
   135   152   150   ar
   136   117   120    1
   137   117   118    1
   138     9     7   ar
   139   156   146   am
   140     6     7    1
   141     2     1    1
   142   127   126    1
   143   125   126    1
   144   125   122    1
   145   121   118   am
   146   121   122    1
   147   153   151   ar
   148     7     8   ar
   149   150   149   ar
   150   143   142    1
   151   118   119    2
   152   140   142   ar
   153   140   138   ar
   154   146   147    2
   155   146   145    1
   156   122   123    1
   157   142   141   ar
   158   138   137   ar
   159   151   149   ar
   160   149   148    1
   161   124   123    2
   162   144   145    1
   163   145   148    1
   164   141   139   ar
   165   137   139   ar
   166   137   136    1
   167   136   133    1
   168   133   134    1
   169   133   132    1
   170   134   135    2
