@<TRIPOS>MOLECULE
tmp/3octA00.pdb
 132 124 0 0 0
SMALL
GASTEIGER

@<TRIPOS>ATOM
      1  N         22.3940    1.7050   27.5300 N.3    13  LYS13      -0.1245
      2  CA        21.8510    0.3510   27.7970 C.3    13  LYS13       0.1561
      3  C         21.0690   -0.2410   26.6140 C.2    13  LYS13       0.2260
      4  O         20.3350    0.4680   25.9210 O.2    13  LYS13      -0.2867
      5  CB        20.9860    0.3250   29.0710 C.3    13  LYS13       0.0271
      6  CG        19.8400    1.3470   29.1000 C.3    13  LYS13       0.0035
      7  CD        18.7380    0.9980   30.1010 C.3    13  LYS13       0.0206
      8  CE        17.4670    1.8350   29.8560 C.3    13  LYS13       0.1093
      9  NZ        16.2050    1.0950   30.2480 N.3    13  LYS13      -0.1314
     10  N         18.1050   -2.1060   24.8400 N.3    15  LEU15      -0.1245
     11  CA        16.6700   -2.1460   25.1420 C.3    15  LEU15       0.1561
     12  C         15.9830   -3.3960   24.6020 C.2    15  LEU15       0.2260
     13  O         16.3600   -4.5020   24.9670 O.2    15  LEU15      -0.2867
     14  CB        15.9680   -0.9010   24.6150 C.3    15  LEU15       0.0270
     15  CG        16.4130    0.4120   25.2520 C.3    15  LEU15       0.0019
     16  CD1       15.8530    1.5490   24.4330 C.3    15  LEU15       0.0001
     17  CD2       15.9810    0.5090   26.7120 C.3    15  LEU15       0.0001
     18  N         11.0880   -4.1720   18.2600 N.3    18  PHE18      -0.1241
     19  CA        11.6540   -2.9020   17.7940 C.3    18  PHE18       0.1605
     20  C         13.0880   -3.0270   17.2640 C.2    18  PHE18       0.2264
     21  O         13.7180   -2.0210   16.9560 O.2    18  PHE18      -0.2867
     22  CB        11.5390   -1.8160   18.8780 C.3    18  PHE18       0.0534
     23  CG        10.1070   -1.5220   19.2720 C.ar   18  PHE18      -0.0203
     24  CD1        9.2860   -0.7520   18.4470 C.ar   18  PHE18      -0.0042
     25  CD2        9.5720   -2.0590   20.4380 C.ar   18  PHE18      -0.0042
     26  CE1        7.9470   -0.5090   18.7900 C.ar   18  PHE18      -0.0003
     27  CE2        8.2330   -1.8110   20.7980 C.ar   18  PHE18      -0.0003
     28  CZ         7.4270   -1.0360   19.9750 C.ar   18  PHE18      -0.0000
     29  N         18.0050   -2.1220   19.5470 N.3    21  VAL21      -0.1245
     30  CA        17.8600   -0.7320   19.9620 C.3    21  VAL21       0.1561
     31  C         18.5080   -0.5160   21.3190 C.2    21  VAL21       0.2260
     32  O         18.3520   -1.3390   22.2290 O.2    21  VAL21      -0.2867
     33  CB        16.3630   -0.2660   19.9240 C.3    21  VAL21       0.0252
     34  CG1       15.4810   -1.0960   20.8490 C.3    21  VAL21       0.0019
     35  CG2       16.2230    1.2320   20.2500 C.3    21  VAL21       0.0019
     36  N         16.9920    6.8840   21.4840 N.3    33  ALA33      -0.1245
     37  CA        17.0440    5.4780   21.1850 C.3    33  ALA33       0.1562
     38  C         17.8870    5.4000   19.9470 C.2    33  ALA33       0.2260
     39  O         17.7450    6.2210   19.0430 O.2    33  ALA33      -0.2867
     40  CB        15.6660    4.9250   20.9050 C.3    33  ALA33       0.0290
     41  N         19.1600    2.8630   16.9000 N.3    35  LYS35      -0.1245
     42  CA        18.9280    1.5870   16.2450 C.3    35  LYS35       0.1561
     43  C         20.0480    1.1460   15.2900 C.2    35  LYS35       0.2260
     44  O         20.5940    1.9550   14.5380 O.2    35  LYS35      -0.2867
     45  CB        17.5970    1.5950   15.4910 C.3    35  LYS35       0.0271
     46  CG        17.1740    0.2150   15.0190 C.3    35  LYS35       0.0035
     47  CD        15.7690    0.2910   14.4630 C.3    35  LYS35       0.0206
     48  CE        15.1180   -1.0640   14.3340 C.3    35  LYS35       0.1093
     49  NZ        13.7690   -0.8170   13.7870 N.3    35  LYS35      -0.1314
     50  N          7.0660    8.3560   16.4280 N.3    60  VAL60      -0.1245
     51  CA         8.3120    8.4670   17.1870 C.3    60  VAL60       0.1561
     52  C          9.2640    9.3340   16.3560 C.2    60  VAL60       0.2260
     53  O          9.4690    9.0730   15.1790 O.2    60  VAL60      -0.2867
     54  CB         8.9460    7.1030   17.5070 C.3    60  VAL60       0.0252
     55  CG1       10.2880    7.2850   18.2650 C.3    60  VAL60       0.0019
     56  CG2        7.9860    6.2380   18.3660 C.3    60  VAL60       0.0019
     57  N         16.3850    8.2620   17.2780 N.3    76  THR76      -0.1203
     58  CA        15.1090    8.8780   17.5900 C.3    76  THR76       0.1994
     59  C         15.0530    9.3510   19.0260 C.2    76  THR76       0.2618
     60  O         15.9390    9.0380   19.8340 O.2    76  THR76      -0.2717
     61  CB        13.9190    7.9120   17.4120 C.3    76  THR76       0.1784
     62  OG1       13.9810    6.8710   18.4000 O.3    76  THR76      -0.2211
     63  CG2       13.8320    7.3460   15.9880 C.3    76  THR76       0.0376
     64  N         13.9840   10.0930   19.3410 N.am   77  GLU77      -0.1965
     65  CA        13.6190   10.3630   20.7210 C.3    77  GLU77       0.1733
     66  C         13.5290    9.0410   21.4660 C.2    77  GLU77       0.2616
     67  O         13.1730    8.0420   20.8750 O.2    77  GLU77      -0.2715
     68  CB        12.2800   11.1120   20.8110 C.3    77  GLU77       0.0429
     69  CG        11.0330   10.3790   20.2770 C.3    77  GLU77       0.1163
     70  CD         9.7790   11.2080   20.4630 C.2    77  GLU77       0.3649
     71  OE1        9.7410   11.9710   21.4510 O.co2  77  GLU77      -0.2457
     72  OE2        8.8400   11.0990   19.6370 O.co2  77  GLU77      -0.2457
     73  N         13.9190    9.0560   22.7380 N.am   78  TYR78      -0.1960
     74  CA        13.7040    7.9260   23.6440 C.3    78  TYR78       0.1771
     75  C         12.2830    7.9880   24.1940 C.2    78  TYR78       0.2619
     76  O         11.8540    9.0260   24.7160 O.2    78  TYR78      -0.2715
     77  CB        14.7120    7.9820   24.7990 C.3    78  TYR78       0.0574
     78  CG        14.6040    6.8410   25.7860 C.ar   78  TYR78      -0.0198
     79  CD1       14.6660    5.5050   25.3570 C.ar   78  TYR78      -0.0009
     80  CD2       14.4430    7.0940   27.1520 C.ar   78  TYR78      -0.0009
     81  CE1       14.5700    4.4650   26.2610 C.ar   78  TYR78       0.0417
     82  CE2       14.3490    6.0450   28.0680 C.ar   78  TYR78       0.0417
     83  CZ        14.4280    4.7390   27.6120 C.ar   78  TYR78       0.1957
     84  OH        14.3340    3.7020   28.5070 O.3    78  TYR78      -0.2866
     85  N         11.5550    6.8800   24.0670 N.am   79  MET79      -0.1963
     86  CA        10.2270    6.7530   24.6560 C.3    79  MET79       0.1736
     87  C         10.4210    6.0050   25.9820 C.2    79  MET79       0.2616
     88  O         10.5290    4.7910   25.9740 O.2    79  MET79      -0.2715
     89  CB         9.2920    5.9840   23.6980 C.3    79  MET79       0.0427
     90  CG         9.1990    6.6170   22.2640 C.3    79  MET79       0.0599
     91  SD         8.3010    8.1840   22.2750 S.3    79  MET79      -0.1393
     92  CE         6.6240    7.4910   22.3320 C.3    79  MET79       0.0692
     93  N         10.4520    6.7270   27.1050 N.am   80  ALA80      -0.1963
     94  CA        10.8250    6.1470   28.4190 C.3    80  ALA80       0.1728
     95  C          9.8980    5.0570   28.9730 C.2    80  ALA80       0.2616
     96  O         10.3280    4.2330   29.7760 O.2    80  ALA80      -0.2715
     97  CB        10.9930    7.2560   29.4720 C.3    80  ALA80       0.0334
     98  N          8.6260    5.0440   28.5660 N.am   81  ASN81      -0.1958
     99  CA         7.7170    4.0620   29.1560 C.3    81  ASN81       0.1819
    100  C          7.6270    2.7790   28.3370 C.2    81  ASN81       0.2622
    101  O          6.8410    1.8910   28.6660 O.2    81  ASN81      -0.2715
    102  CB         6.3340    4.6770   29.4440 C.3    81  ASN81       0.1195
    103  CG         6.2730    5.3940   30.7880 C.2    81  ASN81       0.2630
    104  OD1        6.7690    4.8940   31.7840 O.2    81  ASN81      -0.2716
    105  ND2        5.6490    6.5620   30.8170 N.am   81  ASN81      -0.0877
    106  N          8.4320    2.6790   27.2750 N.am   82  GLY82      -0.1940
    107  CA         8.5410    1.4260   26.5050 C.3    82  GLY82       0.2014
    108  C          7.3110    1.0700   25.6790 C.2    82  GLY82       0.2639
    109  O          6.5220    1.9440   25.3160 O.2    82  GLY82      -0.2714
    110  N          7.1330   -0.2190   25.3930 N.am   83  CYS83      -0.1967
    111  CA         6.0210   -0.6800   24.5510 C.3    83  CYS83       0.1712
    112  C          4.6600   -0.5480   25.2070 C.2    83  CYS83       0.2296
    113  O          4.5480   -0.7600   26.4020 O.2    83  CYS83      -0.2864
    114  CB         6.2350   -2.1070   24.0420 C.3    83  CYS83       0.0983
    115  SG         5.8660   -3.4110   25.1760 S.3    83  CYS83      -0.0798
    116  N          1.4730   -2.7070   33.1890 N.3    90  GLU90      -0.1245
    117  CA         2.1570   -2.1070   34.3420 C.3    90  GLU90       0.1567
    118  C          1.2350   -1.1250   35.1080 C.2    90  GLU90       0.2260
    119  O          1.2400   -1.0660   36.3640 O.2    90  GLU90      -0.2867
    120  CB         3.4150   -1.3680   33.8700 C.3    90  GLU90       0.0388
    121  CG         4.1500   -0.6350   34.9940 C.3    90  GLU90       0.1160
    122  CD         5.2200    0.3170   34.5010 C.2    90  GLU90       0.3649
    123  OE1        5.4190    0.4190   33.2810 O.co2  90  GLU90      -0.2457
    124  OE2        5.8760    0.9680   35.3550 O.co2  90  GLU90      -0.2457
    125  N          4.7530    2.6920   21.1780 N.3   130  LEU130     -0.1245
    126  CA         5.6620    3.1200   22.2800 C.3   130  LEU130      0.1561
    127  C          5.0440    4.2430   23.1280 C.2   130  LEU130      0.2260
    128  O          4.1850    4.9630   22.6490 O.2   130  LEU130     -0.2867
    129  CB         6.9710    3.6050   21.6730 C.3   130  LEU130      0.0270
    130  CG         7.8570    2.4550   21.1600 C.3   130  LEU130      0.0019
    131  CD1        8.9650    2.9870   20.2270 C.3   130  LEU130      0.0001
    132  CD2        8.4820    1.7220   22.3860 C.3   130  LEU130      0.0001
@<TRIPOS>BOND
     1    49    48    1
     2    48    47    1
     3    47    46    1
     4    44    43    2
     5    46    45    1
     6    53    52    2
     7    43    42    1
     8    45    42    1
     9    63    61    1
    10    42    41    1
    11    52    51    1
    12    50    51    1
    13    21    20    2
    14    51    54    1
    15    20    19    1
    16    57    58    1
    17    61    58    1
    18    61    62    1
    19    54    55    1
    20    54    56    1
    21    58    59    1
    22    19    18    1
    23    19    22    1
    24    24    26   ar
    25    24    23   ar
    26    26    28   ar
    27    22    23    1
    28    59    64   am
    29    59    60    2
    30    39    38    2
    31    23    25   ar
    32    64    65    1
    33    29    30    1
    34    72    70   ar
    35    33    30    1
    36    33    35    1
    37    33    34    1
    38    38    37    1
    39    30    31    1
    40    28    27   ar
    41   131   130    1
    42    69    70    1
    43    69    68    1
    44    25    27   ar
    45    70    71   ar
    46    65    68    1
    47    65    66    1
    48    67    66    2
    49    40    37    1
    50   130   129    1
    51   130   132    1
    52   125   126    1
    53    37    36    1
    54    31    32    2
    55    66    73   am
    56   129   126    1
    57    90    91    1
    58    90    89    1
    59    91    92    1
    60   126   127    1
    61   128   127    2
    62    73    74    1
    63    74    75    1
    64    74    77    1
    65    89    86    1
    66   114   111    1
    67   114   115    1
    68    85    75   am
    69    85    86    1
    70    75    76    2
    71    16    15    1
    72   111   112    1
    73   111   110    1
    74    12    13    2
    75    12    11    1
    76    14    11    1
    77    14    15    1
    78    86    87    1
    79    77    78    1
    80    10    11    1
    81   112   113    2
    82    15    17    1
    83   109   108    2
    84    79    78   ar
    85    79    81   ar
    86   110   108   am
    87   108   107    1
    88    78    80   ar
    89     4     3    2
    90    88    87    2
    91    87    93   am
    92    81    83   ar
    93   107   106    1
    94     3     2    1
    95    93    94    1
    96    80    82   ar
    97   106   100   am
    98     1     2    1
    99    83    82   ar
   100    83    84    1
   101     2     5    1
   102   100   101    2
   103   100    99    1
   104    94    95    1
   105    94    97    1
   106    98    95   am
   107    98    99    1
   108    95    96    2
   109     5     6    1
   110     6     7    1
   111    99   102    1
   112   102   103    1
   113     8     7    1
   114     8     9    1
   115   103   105   am
   116   103   104    2
   117   116   117    1
   118   123   122   ar
   119   120   117    1
   120   120   121    1
   121   117   118    1
   122   122   121    1
   123   122   124   ar
   124   118   119    2
