@<TRIPOS>MOLECULE
tmp/3ocuA00.pdb
 195 184 0 0 0
SMALL
GASTEIGER

@<TRIPOS>ATOM
      1  N         34.1810  -13.3800   -7.3850 N.3    56  ASP56      -0.1239
      2  CA        35.5980  -13.6570   -7.4420 C.3    56  ASP56       0.1674
      3  C         36.0390  -14.3820   -6.1670 C.2    56  ASP56       0.2266
      4  O         35.3460  -14.3120   -5.1500 O.2    56  ASP56      -0.2867
      5  CB        36.3400  -12.3300   -7.5320 C.3    56  ASP56       0.1410
      6  CG        37.8280  -12.5180   -7.5610 C.2    56  ASP56       0.3668
      7  OD1       38.2820  -13.3040   -8.4070 O.co2  56  ASP56      -0.2456
      8  OD2       38.5350  -11.8910   -6.7420 O.co2  56  ASP56      -0.2456
      9  N         40.0130  -14.7270   -5.0250 N.3    58  ASN58      -0.1240
     10  CA        41.1810  -14.1700   -4.3380 C.3    58  ASN58       0.1653
     11  C         41.0490  -12.6870   -4.0280 C.2    58  ASN58       0.2266
     12  O         40.8680  -11.8700   -4.9300 O.2    58  ASN58      -0.2867
     13  CB        42.4600  -14.4560   -5.1190 C.3    58  ASN58       0.1155
     14  CG        42.7490  -15.9370   -5.1990 C.2    58  ASN58       0.2627
     15  OD1       42.6080  -16.6630   -4.2040 O.2    58  ASN58      -0.2716
     16  ND2       43.1310  -16.4030   -6.3790 N.am   58  ASN58      -0.0877
     17  N         44.4520  -14.1530    0.9450 N.3    64  ASN64      -0.1240
     18  CA        45.7580  -14.7430    0.6710 C.3    64  ASN64       0.1653
     19  C         46.8950  -13.8660    1.1750 C.2    64  ASN64       0.2266
     20  O         48.0330  -14.0110    0.7210 O.2    64  ASN64      -0.2867
     21  CB        45.9290  -14.9340   -0.8350 C.3    64  ASN64       0.1155
     22  CG        44.8220  -15.7630   -1.4360 C.2    64  ASN64       0.2627
     23  OD1       44.7910  -16.9840   -1.2830 O.2    64  ASN64      -0.2716
     24  ND2       43.8930  -15.1050   -2.1200 N.am   64  ASN64      -0.0877
     25  N         50.5850  -15.0240    1.7460 N.3    67  TYR67      -0.1241
     26  CA        51.4720  -15.1840    0.6000 C.3    67  TYR67       0.1605
     27  C         52.2330  -13.8790    0.3430 C.2    67  TYR67       0.2264
     28  O         53.4520  -13.8960    0.1520 O.2    67  TYR67      -0.2867
     29  CB        50.7280  -15.6700   -0.6550 C.3    67  TYR67       0.0534
     30  CG        51.5860  -15.5320   -1.8860 C.ar   67  TYR67      -0.0201
     31  CD1       52.5770  -16.4640   -2.1820 C.ar   67  TYR67      -0.0009
     32  CD2       51.4370  -14.4420   -2.7340 C.ar   67  TYR67      -0.0009
     33  CE1       53.3900  -16.3100   -3.2970 C.ar   67  TYR67       0.0417
     34  CE2       52.2370  -14.2850   -3.8410 C.ar   67  TYR67       0.0417
     35  CZ        53.2200  -15.2110   -4.1200 C.ar   67  TYR67       0.1957
     36  OH        54.0120  -15.0300   -5.2310 O.3    67  TYR67      -0.2866
     37  N         56.2460  -13.0120    0.4620 N.3    71  GLN71      -0.1245
     38  CA        56.9770  -12.2640   -0.5630 C.3    71  GLN71       0.1566
     39  C         57.8300  -11.1670    0.0540 C.2    71  GLN71       0.2260
     40  O         58.9790  -10.9630   -0.3320 O.2    71  GLN71      -0.2867
     41  CB        56.0320  -11.5940   -1.5470 C.3    71  GLN71       0.0367
     42  CG        55.3240  -12.4900   -2.5200 C.3    71  GLN71       0.0905
     43  CD        54.5050  -11.6400   -3.4660 C.2    71  GLN71       0.2608
     44  OE1       53.3830  -11.2470   -3.1430 O.2    71  GLN71      -0.2717
     45  NE2       55.0890  -11.2910   -4.6120 N.am   71  GLN71      -0.0878
     46  N         56.1800  -11.8360   -7.5960 N.3    78  PHE78      -0.1241
     47  CA        55.1450  -12.8270   -7.8420 C.3    78  PHE78       0.1605
     48  C         55.6070  -13.8930   -8.8320 C.2    78  PHE78       0.2264
     49  O         56.2030  -13.5820   -9.8650 O.2    78  PHE78      -0.2867
     50  CB        53.8440  -12.1960   -8.3470 C.3    78  PHE78       0.0534
     51  CG        52.7850  -13.2170   -8.5800 C.ar   78  PHE78      -0.0203
     52  CD1       52.1110  -13.7680   -7.5040 C.ar   78  PHE78      -0.0042
     53  CD2       52.5370  -13.7100   -9.8490 C.ar   78  PHE78      -0.0042
     54  CE1       51.1670  -14.7720   -7.6850 C.ar   78  PHE78      -0.0003
     55  CE2       51.5930  -14.7170  -10.0440 C.ar   78  PHE78      -0.0003
     56  CZ        50.9090  -15.2460   -8.9580 C.ar   78  PHE78      -0.0000
     57  N         53.8740  -17.6470  -10.3420 N.3    80  GLY80      -0.1225
     58  CA        52.7810  -18.6060  -10.3010 C.3    80  GLY80       0.1811
     59  C         53.1650  -19.9420   -9.6790 C.2    80  GLY80       0.2280
     60  O         52.3100  -20.6400   -9.1350 O.2    80  GLY80      -0.2866
     61  N         52.8340  -19.4450   -6.0580 N.3    83  TRP83      -0.1241
     62  CA        51.4020  -19.3250   -5.7970 C.3    83  TRP83       0.1605
     63  C         50.7200  -20.6970   -5.6850 C.2    83  TRP83       0.2264
     64  O         49.9120  -20.9290   -4.7890 O.2    83  TRP83      -0.2867
     65  CB        50.7410  -18.4880   -6.8860 C.3    83  TRP83       0.0550
     66  CG        49.2810  -18.3130   -6.6590 C.ar   83  TRP83       0.0003
     67  CD1       48.2690  -18.9510   -7.3110 C.ar   83  TRP83       0.0946
     68  CD2       48.6650  -17.4740   -5.6760 C.ar   83  TRP83       0.0152
     69  NE1       47.0560  -18.5450   -6.8040 N.ar   83  TRP83      -0.2442
     70  CE2       47.2720  -17.6370   -5.8000 C.ar   83  TRP83       0.0810
     71  CE3       49.1590  -16.5970   -4.7080 C.ar   83  TRP83       0.0012
     72  CZ2       46.3650  -16.9440   -4.9950 C.ar   83  TRP83       0.0191
     73  CZ3       48.2590  -15.9090   -3.9100 C.ar   83  TRP83       0.0001
     74  CH2       46.8820  -16.0880   -4.0590 C.ar   83  TRP83       0.0015
     75  N         37.0620  -17.4520  -10.8500 N.3   116  THR116     -0.1203
     76  CA        38.3240  -17.1600  -10.1970 C.3   116  THR116      0.1994
     77  C         39.4840  -17.6150  -11.0480 C.2   116  THR116      0.2618
     78  O         39.3760  -18.6100  -11.7770 O.2   116  THR116     -0.2717
     79  CB        38.4080  -17.8960   -8.8310 C.3   116  THR116      0.1784
     80  OG1       39.7480  -17.8620   -8.3270 O.3   116  THR116     -0.2211
     81  CG2       37.9770  -19.3500   -8.9690 C.3   116  THR116      0.0376
     82  N         40.6040  -16.9050  -10.9410 N.am  117  ASN117     -0.1960
     83  CA        41.8090  -17.3220  -11.6480 C.3   117  ASN117      0.1819
     84  C         42.7710  -18.1860  -10.8390 C.2   117  ASN117      0.2621
     85  O         43.9240  -18.3760  -11.2270 O.2   117  ASN117     -0.2715
     86  CB        42.4830  -16.1440  -12.3500 C.3   117  ASN117      0.1195
     87  CG        41.7120  -15.7260  -13.5850 C.2   117  ASN117      0.2630
     88  OD1       40.9480  -16.5300  -14.1400 O.2   117  ASN117     -0.2716
     89  ND2       41.8850  -14.4860  -14.0210 N.am  117  ASN117     -0.0877
     90  N         42.2840  -18.7660   -9.7450 N.am  118  ARG118     -0.1977
     91  CA        42.9240  -19.9940   -9.2850 C.3   118  ARG118      0.1597
     92  C         42.8080  -21.0190  -10.4150 C.2   118  ARG118      0.2287
     93  O         41.8230  -21.0260  -11.1590 O.2   118  ARG118     -0.2864
     94  CB        42.2910  -20.5180   -7.9970 C.3   118  ARG118      0.0334
     95  CG        42.6500  -19.6610   -6.7940 C.3   118  ARG118      0.0492
     96  CD        42.2150  -20.2650   -5.4870 C.3   118  ARG118      0.2205
     97  NE        42.7400  -19.5330   -4.3380 N.pl3 118  ARG118     -0.0865
     98  CZ        43.0090  -20.1000   -3.1660 C.cat 118  ARG118      0.5346
     99  NH1       42.8140  -21.4090   -2.9980 N.pl3 118  ARG118      0.1354
    100  NH2       43.4860  -19.3700   -2.1670 N.pl3 118  ARG118      0.1354
    101  N         45.0830  -26.1260   -8.7400 N.3   123  GLU123     -0.1245
    102  CA        44.7690  -25.3430   -7.5440 C.3   123  GLU123      0.1567
    103  C         43.3530  -25.5990   -7.0140 C.2   123  GLU123      0.2260
    104  O         42.9360  -25.0200   -6.0140 O.2   123  GLU123     -0.2867
    105  CB        45.0090  -23.8480   -7.8200 C.3   123  GLU123      0.0388
    106  CG        46.4980  -23.5540   -7.9800 C.3   123  GLU123      0.1160
    107  CD        46.8280  -22.1920   -8.5680 C.2   123  GLU123      0.3649
    108  OE1       45.9090  -21.3610   -8.7580 O.co2 123  GLU123     -0.2457
    109  OE2       48.0280  -21.9660   -8.8500 O.co2 123  GLU123     -0.2457
    110  N         40.2280  -21.0600  -13.5630 N.3   147  LYS147     -0.1245
    111  CA        40.9030  -20.7690  -14.8140 C.3   147  LYS147      0.1561
    112  C         41.3220  -22.0340  -15.5460 C.2   147  LYS147      0.2260
    113  O         41.9290  -22.9360  -14.9690 O.2   147  LYS147     -0.2867
    114  CB        42.1280  -19.8830  -14.5800 C.3   147  LYS147      0.0271
    115  CG        42.8830  -19.5670  -15.8610 C.3   147  LYS147      0.0035
    116  CD        43.9510  -18.5100  -15.6520 C.3   147  LYS147      0.0206
    117  CE        44.9880  -18.9390  -14.6450 C.3   147  LYS147      0.1093
    118  NZ        46.1340  -17.9760  -14.6380 N.3   147  LYS147     -0.1314
    119  N         37.5200  -13.1930  -17.8380 N.3   153  LYS153     -0.1245
    120  CA        36.4400  -13.9380  -17.1790 C.3   153  LYS153      0.1561
    121  C         35.0950  -13.9260  -17.8950 C.2   153  LYS153      0.2260
    122  O         34.2090  -14.7100  -17.5420 O.2   153  LYS153     -0.2867
    123  CB        36.2520  -13.4410  -15.7400 C.3   153  LYS153      0.0271
    124  CG        37.4050  -13.8210  -14.8250 C.3   153  LYS153      0.0035
    125  CD        37.2430  -13.2700  -13.4140 C.3   153  LYS153      0.0206
    126  CE        38.3470  -13.8070  -12.5190 C.3   153  LYS153      0.1093
    127  NZ        38.1820  -13.4090  -11.0850 N.3   153  LYS153     -0.1314
    128  N         37.5000   -7.7550   -6.4820 N.3   173  ASP173     -0.1225
    129  CA        38.5020   -6.7590   -6.0780 C.3   173  ASP173      0.1805
    130  C         39.2110   -6.1590   -7.2880 C.2   173  ASP173      0.2597
    131  O         40.0160   -5.2430   -7.1380 O.2   173  ASP173     -0.2718
    132  CB        39.5480   -7.3770   -5.1480 C.3   173  ASP173      0.1424
    133  CG        40.4070   -8.4200   -5.8480 C.2   173  ASP173      0.3668
    134  OD1       39.8500   -9.4660   -6.2380 O.co2 173  ASP173     -0.2456
    135  OD2       41.6310   -8.2070   -6.0140 O.co2 173  ASP173     -0.2456
    136  N         38.8950   -6.6640   -8.4820 N.am  174  ASN174     -0.1974
    137  CA        39.5810   -6.3080   -9.7270 C.3   174  ASN174      0.1688
    138  C         38.4870   -5.9560  -10.7370 C.2   174  ASN174      0.2292
    139  O         37.4930   -6.6840  -10.8380 O.2   174  ASN174     -0.2864
    140  CB        40.3930   -7.5480  -10.1670 C.3   174  ASN174      0.1181
    141  CG        41.2320   -7.3470  -11.4300 C.2   174  ASN174      0.2629
    142  OD1       40.9000   -6.5770  -12.3320 O.2   174  ASN174     -0.2716
    143  ND2       42.3180   -8.1230  -11.5190 N.am  174  ASN174     -0.0877
    144  N         36.8670   -8.5010  -12.8950 N.3   177  ASP177     -0.1239
    145  CA        35.8510   -9.3690  -12.3100 C.3   177  ASP177      0.1674
    146  C         34.4370   -8.9580  -12.7370 C.2   177  ASP177      0.2266
    147  O         33.4590   -9.6130  -12.3690 O.2   177  ASP177     -0.2867
    148  CB        35.9500   -9.3630  -10.7820 C.3   177  ASP177      0.1410
    149  CG        37.2990   -9.8440  -10.2730 C.2   177  ASP177      0.3668
    150  OD1       37.9620  -10.6220  -10.9920 O.co2 177  ASP177     -0.2456
    151  OD2       37.6870   -9.4700   -9.1400 O.co2 177  ASP177     -0.2456
    152  N         47.4180   -4.4710   -2.9830 N.3   212  ASN212     -0.1225
    153  CA        48.6180   -5.2870   -3.1040 C.3   212  ASN212      0.1785
    154  C         48.9200   -5.7680   -4.5280 C.2   212  ASN212      0.2597
    155  O         50.0850   -5.8380   -4.9220 O.2   212  ASN212     -0.2718
    156  CB        48.5410   -6.4640   -2.1260 C.3   212  ASN212      0.1169
    157  CG        49.7610   -7.3820   -2.2030 C.2   212  ASN212      0.2627
    158  OD1       49.6520   -8.5320   -2.6250 O.2   212  ASN212     -0.2716
    159  ND2       50.9210   -6.8830   -1.7780 N.am  212  ASN212     -0.0877
    160  N         47.8930   -6.1090   -5.3040 N.am  213  TYR213     -0.1962
    161  CA        48.1260   -6.6160   -6.6640 C.3   213  TYR213      0.1771
    162  C         46.8420   -6.5270   -7.4750 C.2   213  TYR213      0.2620
    163  O         45.7610   -6.2560   -6.9290 O.2   213  TYR213     -0.2715
    164  CB        48.6550   -8.0800   -6.6580 C.3   213  TYR213      0.0574
    165  CG        47.5800   -9.0900   -6.2910 C.ar  213  TYR213     -0.0198
    166  CD1       46.7960   -9.6920   -7.2790 C.ar  213  TYR213     -0.0009
    167  CD2       47.3230   -9.4170   -4.9580 C.ar  213  TYR213     -0.0009
    168  CE1       45.7900  -10.5930   -6.9520 C.ar  213  TYR213      0.0417
    169  CE2       46.3040  -10.3240   -4.6150 C.ar  213  TYR213      0.0417
    170  CZ        45.5380  -10.8880   -5.6250 C.ar  213  TYR213      0.1957
    171  OH        44.5160  -11.7530   -5.3170 O.3   213  TYR213     -0.2866
    172  N         46.9610   -6.7770   -8.7730 N.am  214  GLY214     -0.1954
    173  CA        45.8060   -6.8830   -9.6400 C.3   214  GLY214      0.1869
    174  C         46.0210   -6.2620  -11.0020 C.2   214  GLY214      0.2309
    175  O         47.1470   -5.8930  -11.3710 O.2   214  GLY214     -0.2863
    176  N         47.9090   -3.0380  -11.2500 N.3   217  GLU217     -0.1245
    177  CA        49.3620   -3.0430  -11.2300 C.3   217  GLU217      0.1567
    178  C         49.8820   -3.1220  -12.6600 C.2   217  GLU217      0.2260
    179  O         50.7280   -2.3280  -13.0700 O.2   217  GLU217     -0.2867
    180  CB        49.9040   -4.1980  -10.3880 C.3   217  GLU217      0.0388
    181  CG        51.4230   -4.1150  -10.2450 C.3   217  GLU217      0.1160
    182  CD        52.0580   -5.3240   -9.5790 C.2   217  GLU217      0.3649
    183  OE1       51.3250   -6.2510   -9.1780 O.co2 217  GLU217     -0.2457
    184  OE2       53.3060   -5.3410   -9.4580 O.co2 217  GLU217     -0.2457
    185  N         53.9360   -6.3260  -17.0220 N.3   225  PHE225     -0.1241
    186  CA        54.1770   -7.6710  -16.5070 C.3   225  PHE225      0.1605
    187  C         55.3180   -8.3930  -17.2140 C.2   225  PHE225      0.2264
    188  O         55.7580   -9.4410  -16.7540 O.2   225  PHE225     -0.2867
    189  CB        52.9010   -8.5120  -16.5610 C.3   225  PHE225      0.0534
    190  CG        51.8760   -8.1360  -15.5190 C.ar  225  PHE225     -0.0203
    191  CD1       52.2210   -8.0490  -14.1750 C.ar  225  PHE225     -0.0042
    192  CD2       50.5660   -7.8660  -15.8860 C.ar  225  PHE225     -0.0042
    193  CE1       51.2730   -7.7070  -13.2180 C.ar  225  PHE225     -0.0003
    194  CE2       49.6160   -7.5290  -14.9350 C.ar  225  PHE225     -0.0003
    195  CZ        49.9700   -7.4510  -13.5990 C.ar  225  PHE225     -0.0000
@<TRIPOS>BOND
     1   121   122    2
     2   121   120    1
     3   119   120    1
     4   187   188    2
     5   187   186    1
     6   120   123    1
     7   185   186    1
     8   189   186    1
     9   189   190    1
    10   192   190   ar
    11   192   194   ar
    12   115   116    1
    13   115   114    1
    14   123   124    1
    15   116   117    1
    16   112   113    2
    17   112   111    1
    18   190   191   ar
    19   194   195   ar
    20   124   125    1
    21   111   114    1
    22   111   110    1
    23   117   118    1
    24   191   193   ar
    25    88    87    2
    26    89    87   am
    27   195   193   ar
    28    87    86    1
    29   125   126    1
    30   179   178    2
    31   144   145    1
    32   146   147    2
    33   146   145    1
    34   178   177    1
    35   126   127    1
    36    86    83    1
    37   142   141    2
    38   145   148    1
    39    78    77    2
    40    83    82    1
    41    83    84    1
    42   143   141   am
    43   141   140    1
    44   175   174    2
    45   176   177    1
    46   177   180    1
    47    85    84    2
    48    93    92    2
    49    77    82   am
    50    77    76    1
    51   174   173    1
    52   150   149   ar
    53    75    76    1
    54    84    90   am
    55   139   138    2
    56   148   149    1
    57   138   137    1
    58    92    91    1
    59   180   181    1
    60    57    58    1
    61    58    59    1
    62   149   151   ar
    63   181   182    1
    64    76    79    1
    65   140   137    1
    66    55    53   ar
    67    55    56   ar
    68    49    48    2
    69    53    51   ar
    70    90    91    1
    71   137   136    1
    72    59    60    2
    73   173   172    1
    74   182   184   ar
    75   182   183   ar
    76    91    94    1
    77    81    79    1
    78    56    54   ar
    79   109   107   ar
    80    48    47    1
    81    79    80    1
    82   172   162   am
    83   108   107   ar
    84   101   102    1
    85    51    50    1
    86    51    52   ar
    87   107   106    1
    88   136   130   am
    89     7     6   ar
    90    50    47    1
    91    94    95    1
    92   106   105    1
    93    47    46    1
    94   105   102    1
    95    54    52   ar
    96     6     5    1
    97     6     8   ar
    98   102   103    1
    99     5     2    1
   100   162   163    2
   101   162   161    1
   102     2     1    1
   103     2     3    1
   104    67    69   ar
   105    67    66   ar
   106   130   131    2
   107   130   129    1
   108   166   168   ar
   109   166   165   ar
   110   103   104    2
   111   168   170   ar
   112    65    66    1
   113    65    62    1
   114    69    70   ar
   115    95    96    1
   116   161   164    1
   117   161   160    1
   118    66    68   ar
   119   164   165    1
   120   128   129    1
   121    16    14   am
   122   165   167   ar
   123   134   133   ar
   124     3     4    2
   125   129   132    1
   126    61    62    1
   127   135   133   ar
   128   133   132    1
   129    70    68   ar
   130    70    72   ar
   131    62    63    1
   132    63    64    2
   133    68    71   ar
   134   170   171    1
   135   170   169   ar
   136    96    97    1
   137   160   154   am
   138    36    35    1
   139    14    13    1
   140    14    15    2
   141    13    10    1
   142     9    10    1
   143    72    74   ar
   144   167   169   ar
   145    12    11    2
   146   155   154    2
   147    71    73   ar
   148    45    43   am
   149   154   153    1
   150    10    11    1
   151    97    98    2
   152    35    34   ar
   153    35    33   ar
   154    74    73   ar
   155    34    32   ar
   156    43    44    2
   157    43    42    1
   158    33    31   ar
   159    98    99    1
   160    98   100    1
   161   153   152    1
   162   153   156    1
   163    32    30   ar
   164   158   157    2
   165    42    41    1
   166   157   156    1
   167   157   159   am
   168    31    30   ar
   169    24    22   am
   170    30    29    1
   171    41    38    1
   172    22    23    2
   173    22    21    1
   174    21    18    1
   175    29    26    1
   176    38    39    1
   177    38    37    1
   178    40    39    2
   179    28    27    2
   180    27    26    1
   181    26    25    1
   182    18    17    1
   183    18    19    1
   184    20    19    2
