@<TRIPOS>MOLECULE
tmp/3ocvA00.pdb
 187 177 0 0 0
SMALL
GASTEIGER

@<TRIPOS>ATOM
      1  N         34.3010  -13.4040   -7.3710 N.3    56  ASP56      -0.1239
      2  CA        35.7150  -13.6720   -7.4460 C.3    56  ASP56       0.1674
      3  C         36.1510  -14.3940   -6.1710 C.2    56  ASP56       0.2266
      4  O         35.4710  -14.3130   -5.1500 O.2    56  ASP56      -0.2867
      5  CB        36.4530  -12.3450   -7.5370 C.3    56  ASP56       0.1410
      6  CG        37.9340  -12.5310   -7.5900 C.2    56  ASP56       0.3668
      7  OD1       38.3880  -13.3000   -8.4540 O.co2  56  ASP56      -0.2456
      8  OD2       38.6250  -11.9360   -6.7480 O.co2  56  ASP56      -0.2456
      9  N         40.1170  -14.7250   -5.0400 N.3    58  ASN58      -0.1240
     10  CA        41.2920  -14.1630   -4.3670 C.3    58  ASN58       0.1653
     11  C         41.1660  -12.6810   -4.0430 C.2    58  ASN58       0.2266
     12  O         40.9880  -11.8560   -4.9350 O.2    58  ASN58      -0.2867
     13  CB        42.5680  -14.4500   -5.1550 C.3    58  ASN58       0.1155
     14  CG        42.8770  -15.9300   -5.2200 C.2    58  ASN58       0.2627
     15  OD1       42.7730  -16.6450   -4.2150 O.2    58  ASN58      -0.2716
     16  ND2       43.2690  -16.3990   -6.3960 N.am   58  ASN58      -0.0877
     17  N         50.7270  -15.0310    1.7710 N.3    67  TYR67      -0.1241
     18  CA        51.6180  -15.1780    0.6200 C.3    67  TYR67       0.1605
     19  C         52.3610  -13.8660    0.3600 C.2    67  TYR67       0.2264
     20  O         53.5730  -13.8630    0.1340 O.2    67  TYR67      -0.2867
     21  CB        50.8710  -15.6500   -0.6400 C.3    67  TYR67       0.0534
     22  CG        51.7190  -15.5260   -1.8830 C.ar   67  TYR67      -0.0201
     23  CD1       52.6950  -16.4710   -2.1850 C.ar   67  TYR67      -0.0009
     24  CD2       51.5740  -14.4380   -2.7370 C.ar   67  TYR67      -0.0009
     25  CE1       53.4910  -16.3390   -3.3150 C.ar   67  TYR67       0.0417
     26  CE2       52.3610  -14.2980   -3.8580 C.ar   67  TYR67       0.0417
     27  CZ        53.3190  -15.2440   -4.1420 C.ar   67  TYR67       0.1957
     28  OH        54.0920  -15.0860   -5.2650 O.3    67  TYR67      -0.2866
     29  N         56.3480  -12.9840    0.4600 N.3    71  GLN71      -0.1245
     30  CA        57.0580  -12.2410   -0.5760 C.3    71  GLN71       0.1566
     31  C         57.9260  -11.1530    0.0340 C.2    71  GLN71       0.2260
     32  O         59.0730  -10.9610   -0.3660 O.2    71  GLN71      -0.2867
     33  CB        56.0810  -11.5620   -1.5230 C.3    71  GLN71       0.0367
     34  CG        55.3690  -12.4520   -2.4950 C.3    71  GLN71       0.0905
     35  CD        54.5160  -11.6130   -3.4090 C.2    71  GLN71       0.2608
     36  OE1       53.4130  -11.2050   -3.0390 O.2    71  GLN71      -0.2717
     37  NE2       55.0430  -11.2920   -4.5850 N.am   71  GLN71      -0.0878
     38  N         56.2130  -11.8340   -7.5440 N.3    78  PHE78      -0.1241
     39  CA        55.2020  -12.8510   -7.8130 C.3    78  PHE78       0.1605
     40  C         55.6800  -13.8800   -8.8300 C.2    78  PHE78       0.2264
     41  O         56.2450  -13.5330   -9.8720 O.2    78  PHE78      -0.2867
     42  CB        53.8890  -12.2420   -8.3120 C.3    78  PHE78       0.0534
     43  CG        52.8610  -13.2830   -8.6510 C.ar   78  PHE78      -0.0203
     44  CD1       52.1480  -13.9120   -7.6460 C.ar   78  PHE78      -0.0042
     45  CD2       52.6560  -13.6790   -9.9620 C.ar   78  PHE78      -0.0042
     46  CE1       51.2230  -14.8990   -7.9430 C.ar   78  PHE78      -0.0003
     47  CE2       51.7340  -14.6670  -10.2660 C.ar   78  PHE78      -0.0003
     48  CZ        51.0170  -15.2760   -9.2550 C.ar   78  PHE78      -0.0000
     49  N         54.0030  -17.6320  -10.3970 N.3    80  GLY80      -0.1225
     50  CA        52.9240  -18.6010  -10.3740 C.3    80  GLY80       0.1811
     51  C         53.2870  -19.9350   -9.7420 C.2    80  GLY80       0.2280
     52  O         52.4200  -20.6120   -9.1850 O.2    80  GLY80      -0.2866
     53  N         52.9660  -19.4360   -6.1470 N.3    83  TRP83      -0.1241
     54  CA        51.5410  -19.3040   -5.8730 C.3    83  TRP83       0.1605
     55  C         50.8580  -20.6670   -5.7570 C.2    83  TRP83       0.2264
     56  O         50.0500  -20.8950   -4.8600 O.2    83  TRP83      -0.2867
     57  CB        50.8670  -18.4680   -6.9550 C.3    83  TRP83       0.0550
     58  CG        49.4100  -18.2840   -6.7090 C.ar   83  TRP83       0.0003
     59  CD1       48.3810  -18.9410   -7.3240 C.ar   83  TRP83       0.0946
     60  CD2       48.8090  -17.4090   -5.7480 C.ar   83  TRP83       0.0152
     61  NE1       47.1790  -18.5150   -6.8130 N.ar   83  TRP83      -0.2442
     62  CE2       47.4150  -17.5770   -5.8430 C.ar   83  TRP83       0.0810
     63  CE3       49.3170  -16.5040   -4.8140 C.ar   83  TRP83       0.0012
     64  CZ2       46.5220  -16.8610   -5.0490 C.ar   83  TRP83       0.0191
     65  CZ3       48.4250  -15.7870   -4.0300 C.ar   83  TRP83       0.0001
     66  CH2       47.0470  -15.9730   -4.1520 C.ar   83  TRP83       0.0015
     67  N         37.1670  -17.4440  -10.8770 N.3   116  THR116     -0.1203
     68  CA        38.4190  -17.1380  -10.2060 C.3   116  THR116      0.1994
     69  C         39.5810  -17.5940  -11.0510 C.2   116  THR116      0.2618
     70  O         39.4780  -18.5920  -11.7770 O.2   116  THR116     -0.2717
     71  CB        38.4950  -17.8730   -8.8470 C.3   116  THR116      0.1784
     72  OG1       39.8410  -17.8400   -8.3440 O.3   116  THR116     -0.2211
     73  CG2       38.0720  -19.3250   -9.0090 C.3   116  THR116      0.0376
     74  N         40.6990  -16.8820  -10.9460 N.am  117  ASN117     -0.1960
     75  CA        41.8910  -17.2930  -11.6660 C.3   117  ASN117      0.1819
     76  C         42.8740  -18.1390  -10.8550 C.2   117  ASN117      0.2621
     77  O         44.0430  -18.2490  -11.2040 O.2   117  ASN117     -0.2715
     78  CB        42.5390  -16.1030  -12.3690 C.3   117  ASN117      0.1195
     79  CG        41.7720  -15.7100  -13.6180 C.2   117  ASN117      0.2630
     80  OD1       41.0300  -16.5300  -14.1790 O.2   117  ASN117     -0.2716
     81  ND2       41.9330  -14.4670  -14.0600 N.am  117  ASN117     -0.0877
     82  N         42.3880  -18.7640   -9.7850 N.am  118  ARG118     -0.1977
     83  CA        43.0570  -19.9690   -9.3150 C.3   118  ARG118      0.1597
     84  C         42.9460  -20.9770  -10.4550 C.2   118  ARG118      0.2287
     85  O         41.9760  -20.9560  -11.2210 O.2   118  ARG118     -0.2864
     86  CB        42.4380  -20.4980   -8.0230 C.3   118  ARG118      0.0334
     87  CG        42.8070  -19.6390   -6.8260 C.3   118  ARG118      0.0492
     88  CD        42.3570  -20.2460   -5.5250 C.3   118  ARG118      0.2205
     89  NE        42.8740  -19.5080   -4.3770 N.pl3 118  ARG118     -0.0865
     90  CZ        43.1630  -20.0720   -3.2070 C.cat 118  ARG118      0.5346
     91  NH1       42.9790  -21.3800   -3.0410 N.pl3 118  ARG118      0.1354
     92  NH2       43.6380  -19.3370   -2.2090 N.pl3 118  ARG118      0.1354
     93  N         45.2110  -26.1240   -8.8020 N.3   123  GLU123     -0.1245
     94  CA        44.8990  -25.3520   -7.6050 C.3   123  GLU123      0.1567
     95  C         43.4830  -25.5900   -7.0770 C.2   123  GLU123      0.2260
     96  O         43.0930  -25.0300   -6.0480 O.2   123  GLU123     -0.2867
     97  CB        45.1510  -23.8620   -7.8670 C.3   123  GLU123      0.0388
     98  CG        46.6430  -23.5610   -8.0300 C.3   123  GLU123      0.1160
     99  CD        46.9530  -22.1820   -8.5880 C.2   123  GLU123      0.3649
    100  OE1       46.0320  -21.3500   -8.7530 O.co2 123  GLU123     -0.2457
    101  OE2       48.1490  -21.9290   -8.8540 O.co2 123  GLU123     -0.2457
    102  N         40.3470  -21.0370  -13.6150 N.3   147  LYS147     -0.1245
    103  CA        41.0260  -20.7160  -14.8640 C.3   147  LYS147      0.1561
    104  C         41.4520  -21.9680  -15.6070 C.2   147  LYS147      0.2260
    105  O         42.0620  -22.8730  -15.0410 O.2   147  LYS147     -0.2867
    106  CB        42.2460  -19.8190  -14.6180 C.3   147  LYS147      0.0271
    107  CG        43.0290  -19.4850  -15.8830 C.3   147  LYS147      0.0035
    108  CD        44.1400  -18.4780  -15.6160 C.3   147  LYS147      0.0206
    109  CE        45.1800  -19.0270  -14.6540 C.3   147  LYS147      0.1093
    110  NZ        46.3240  -18.0770  -14.4740 N.3   147  LYS147     -0.1314
    111  N         37.5600  -13.1810  -17.8510 N.3   153  LYS153     -0.1245
    112  CA        36.4850  -13.9360  -17.1930 C.3   153  LYS153      0.1561
    113  C         35.1310  -13.9240  -17.9030 C.2   153  LYS153      0.2260
    114  O         34.2420  -14.7020  -17.5440 O.2   153  LYS153     -0.2867
    115  CB        36.3110  -13.4550  -15.7470 C.3   153  LYS153      0.0271
    116  CG        37.4560  -13.8570  -14.8250 C.3   153  LYS153      0.0035
    117  CD        37.3060  -13.2750  -13.4190 C.3   153  LYS153      0.0206
    118  CE        38.3810  -13.8330  -12.4980 C.3   153  LYS153      0.1093
    119  NZ        38.2020  -13.3820  -11.0900 N.3   153  LYS153     -0.1314
    120  N         37.5940   -7.7660   -6.5210 N.3   173  ASP173     -0.1225
    121  CA        38.5840   -6.7640   -6.1020 C.3   173  ASP173      0.1805
    122  C         39.2980   -6.1610   -7.3080 C.2   173  ASP173      0.2597
    123  O         40.1130   -5.2460   -7.1570 O.2   173  ASP173     -0.2718
    124  CB        39.6230   -7.3870   -5.1680 C.3   173  ASP173      0.1424
    125  CG        40.4770   -8.4290   -5.8690 C.2   173  ASP173      0.3668
    126  OD1       39.9220   -9.4730   -6.2540 O.co2 173  ASP173     -0.2456
    127  OD2       41.6880   -8.2130   -6.0470 O.co2 173  ASP173     -0.2456
    128  N         38.9810   -6.6760   -8.4980 N.am  174  ASN174     -0.1974
    129  CA        39.6550   -6.3230   -9.7500 C.3   174  ASN174      0.1688
    130  C         38.5660   -5.9580  -10.7570 C.2   174  ASN174      0.2292
    131  O         37.5620   -6.6660  -10.8640 O.2   174  ASN174     -0.2864
    132  CB        40.4310   -7.5660  -10.2260 C.3   174  ASN174      0.1181
    133  CG        41.3070   -7.3290  -11.4550 C.2   174  ASN174      0.2629
    134  OD1       40.9850   -6.5400  -12.3420 O.2   174  ASN174     -0.2716
    135  ND2       42.4040   -8.0900  -11.5350 N.am  174  ASN174     -0.0877
    136  N         36.9360   -8.4650  -12.8910 N.3   177  ASP177     -0.1239
    137  CA        35.9230   -9.3440  -12.3190 C.3   177  ASP177      0.1674
    138  C         34.5110   -8.9330  -12.7370 C.2   177  ASP177      0.2266
    139  O         33.5320   -9.5800  -12.3600 O.2   177  ASP177     -0.2867
    140  CB        36.0240   -9.3630  -10.7930 C.3   177  ASP177      0.1410
    141  CG        37.3810   -9.8410  -10.3050 C.2   177  ASP177      0.3668
    142  OD1       38.0330  -10.6040  -11.0470 O.co2 177  ASP177     -0.2456
    143  OD2       37.7910   -9.4710   -9.1810 O.co2 177  ASP177     -0.2456
    144  N         47.5040   -4.4980   -2.9820 N.3   212  ASN212     -0.1225
    145  CA        48.7050   -5.3170   -3.1050 C.3   212  ASN212      0.1785
    146  C         49.0200   -5.8020   -4.5340 C.2   212  ASN212      0.2597
    147  O         50.1850   -5.8890   -4.9230 O.2   212  ASN212     -0.2718
    148  CB        48.6000   -6.5010   -2.1400 C.3   212  ASN212      0.1169
    149  CG        49.8070   -7.4250   -2.2030 C.2   212  ASN212      0.2627
    150  OD1       49.7060   -8.5510   -2.6890 O.2   212  ASN212     -0.2716
    151  ND2       50.9480   -6.9620   -1.6920 N.am  212  ASN212     -0.0877
    152  N         47.9920   -6.1110   -5.3210 N.am  213  TYR213     -0.1962
    153  CA        48.2210   -6.6020   -6.6800 C.3   213  TYR213      0.1771
    154  C         46.9320   -6.5100   -7.4840 C.2   213  TYR213      0.2620
    155  O         45.8520   -6.2390   -6.9300 O.2   213  TYR213     -0.2715
    156  CB        48.7410   -8.0640   -6.6830 C.3   213  TYR213      0.0574
    157  CG        47.6650   -9.0680   -6.3300 C.ar  213  TYR213     -0.0198
    158  CD1       46.9020   -9.6750   -7.3260 C.ar  213  TYR213     -0.0009
    159  CD2       47.3880   -9.3830   -5.0030 C.ar  213  TYR213     -0.0009
    160  CE1       45.8850  -10.5660   -7.0080 C.ar  213  TYR213      0.0417
    161  CE2       46.3710  -10.2760   -4.6720 C.ar  213  TYR213      0.0417
    162  CZ        45.6270  -10.8600   -5.6820 C.ar  213  TYR213      0.1957
    163  OH        44.6040  -11.7260   -5.3690 O.3   213  TYR213     -0.2866
    164  N         47.0500   -6.7210   -8.7890 N.am  214  GLY214     -0.1954
    165  CA        45.8890   -6.8260   -9.6530 C.3   214  GLY214      0.1869
    166  C         46.1060   -6.2290  -11.0290 C.2   214  GLY214      0.2309
    167  O         47.2350   -5.9010  -11.4140 O.2   214  GLY214     -0.2863
    168  N         47.9720   -3.0400  -11.3230 N.3   217  GLU217     -0.1245
    169  CA        49.4290   -3.0490  -11.2840 C.3   217  GLU217      0.1567
    170  C         49.9820   -3.1070  -12.7060 C.2   217  GLU217      0.2260
    171  O         50.8410   -2.3030  -13.0870 O.2   217  GLU217     -0.2867
    172  CB        49.9840   -4.2060  -10.4460 C.3   217  GLU217      0.0388
    173  CG        51.4900   -4.0860  -10.2670 C.3   217  GLU217      0.1160
    174  CD        52.1380   -5.2840   -9.6010 C.2   217  GLU217      0.3649
    175  OE1       51.4210   -6.2370   -9.2110 O.co2 217  GLU217     -0.2457
    176  OE2       53.3870   -5.2710   -9.4710 O.co2 217  GLU217     -0.2457
    177  N         54.0360   -6.3340  -17.0150 N.3   225  PHE225     -0.1241
    178  CA        54.2800   -7.6740  -16.4910 C.3   225  PHE225      0.1605
    179  C         55.4210   -8.3890  -17.2050 C.2   225  PHE225      0.2264
    180  O         55.9090   -9.4090  -16.7260 O.2   225  PHE225     -0.2867
    181  CB        53.0090   -8.5250  -16.5230 C.3   225  PHE225      0.0534
    182  CG        51.9870   -8.1330  -15.4890 C.ar  225  PHE225     -0.0203
    183  CD1       52.3240   -8.0880  -14.1450 C.ar  225  PHE225     -0.0042
    184  CD2       50.6860   -7.8350  -15.8590 C.ar  225  PHE225     -0.0042
    185  CE1       51.3860   -7.7370  -13.1880 C.ar  225  PHE225     -0.0003
    186  CE2       49.7410   -7.4830  -14.9090 C.ar  225  PHE225     -0.0003
    187  CZ        50.0910   -7.4360  -13.5700 C.ar  225  PHE225     -0.0000
@<TRIPOS>BOND
     1   113   114    2
     2   113   112    1
     3   111   112    1
     4   179   180    2
     5   179   178    1
     6   112   115    1
     7   177   178    1
     8   181   178    1
     9   181   182    1
    10   107   108    1
    11   107   106    1
    12   184   182   ar
    13   184   186   ar
    14   115   116    1
    15   108   109    1
    16   104   105    2
    17   104   103    1
    18   182   183   ar
    19   186   187   ar
    20   103   106    1
    21   103   102    1
    22   116   117    1
    23   109   110    1
    24    80    79    2
    25   183   185   ar
    26    81    79   am
    27    79    78    1
    28   187   185   ar
    29   117   118    1
    30   171   170    2
    31   136   137    1
    32   138   139    2
    33   138   137    1
    34   170   169    1
    35   118   119    1
    36    78    75    1
    37   134   133    2
    38   137   140    1
    39    70    69    2
    40    75    74    1
    41    75    76    1
    42   135   133   am
    43   133   132    1
    44   167   166    2
    45   168   169    1
    46   169   172    1
    47    85    84    2
    48    77    76    2
    49    69    74   am
    50    69    68    1
    51   142   141   ar
    52   166   165    1
    53    67    68    1
    54   131   130    2
    55    76    82   am
    56   140   141    1
    57   130   129    1
    58    84    83    1
    59   172   173    1
    60    49    50    1
    61    50    51    1
    62   141   143   ar
    63   173   174    1
    64    47    45   ar
    65    47    48   ar
    66   132   129    1
    67    68    71    1
    68    45    43   ar
    69    41    40    2
    70    82    83    1
    71   129   128    1
    72    51    52    2
    73   165   164    1
    74   174   176   ar
    75   174   175   ar
    76    83    86    1
    77    48    46   ar
    78    73    71    1
    79   101    99   ar
    80    71    72    1
    81    40    39    1
    82    93    94    1
    83   164   154   am
    84   100    99   ar
    85    43    42    1
    86    43    44   ar
    87    99    98    1
    88   128   122   am
    89     7     6   ar
    90    42    39    1
    91    98    97    1
    92    86    87    1
    93    46    44   ar
    94    97    94    1
    95    39    38    1
    96    94    95    1
    97     6     5    1
    98     6     8   ar
    99     5     2    1
   100   154   155    2
   101   154   153    1
   102     2     1    1
   103     2     3    1
   104   158   160   ar
   105   158   157   ar
   106    59    61   ar
   107    59    58   ar
   108   122   123    2
   109   122   121    1
   110    95    96    2
   111   160   162   ar
   112    57    58    1
   113    57    54    1
   114    87    88    1
   115    61    62   ar
   116    58    60   ar
   117   156   153    1
   118   156   157    1
   119   153   152    1
   120   120   121    1
   121    16    14   am
   122   157   159   ar
   123   126   125   ar
   124     3     4    2
   125    53    54    1
   126   121   124    1
   127   127   125   ar
   128    54    55    1
   129   125   124    1
   130    62    60   ar
   131    62    64   ar
   132    55    56    2
   133    60    63   ar
   134   162   163    1
   135   162   161   ar
   136    88    89    1
   137   152   146   am
   138    28    27    1
   139    14    13    1
   140    14    15    2
   141    13    10    1
   142    64    66   ar
   143     9    10    1
   144   159   161   ar
   145    12    11    2
   146   147   146    2
   147    63    65   ar
   148    37    35   am
   149   146   145    1
   150    89    90    2
   151    10    11    1
   152    66    65   ar
   153    27    26   ar
   154    27    25   ar
   155    26    24   ar
   156    35    36    2
   157    35    34    1
   158    25    23   ar
   159    90    91    1
   160    90    92    1
   161   145   144    1
   162   145   148    1
   163    24    22   ar
   164   150   149    2
   165    34    33    1
   166   149   148    1
   167   149   151   am
   168    23    22   ar
   169    22    21    1
   170    33    30    1
   171    21    18    1
   172    30    31    1
   173    30    29    1
   174    32    31    2
   175    20    19    2
   176    19    18    1
   177    18    17    1
