@<TRIPOS>MOLECULE
tmp/3ocwA00.pdb
 197 187 0 0 0
SMALL
GASTEIGER

@<TRIPOS>ATOM
      1  N         34.3210  -13.4390   -7.4320 N.3    56  ASP56      -0.1239
      2  CA        35.7370  -13.7420   -7.5190 C.3    56  ASP56       0.1674
      3  C         36.1680  -14.3820   -6.1970 C.2    56  ASP56       0.2266
      4  O         35.4670  -14.2600   -5.1920 O.2    56  ASP56      -0.2867
      5  CB        36.4890  -12.4330   -7.7440 C.3    56  ASP56       0.1410
      6  CG        37.9730  -12.5990   -7.6700 C.2    56  ASP56       0.3668
      7  OD1       38.5400  -13.3410   -8.4970 O.co2  56  ASP56      -0.2456
      8  OD2       38.5700  -11.9620   -6.7820 O.co2  56  ASP56      -0.2456
      9  N         40.1300  -14.7760   -4.9480 N.3    58  ASN58      -0.1225
     10  CA        41.3010  -14.1630   -4.3120 C.3    58  ASN58       0.1785
     11  C         41.1150  -12.6780   -3.9860 C.2    58  ASN58       0.2597
     12  O         40.9080  -11.8720   -4.8760 O.2    58  ASN58      -0.2718
     13  CB        42.5610  -14.3870   -5.1600 C.3    58  ASN58       0.1169
     14  CG        42.9440  -15.8580   -5.2470 C.2    58  ASN58       0.2627
     15  OD1       42.7330  -16.6100   -4.3030 O.2    58  ASN58      -0.2716
     16  ND2       43.5050  -16.2700   -6.3800 N.am   58  ASN58      -0.0877
     17  N         41.1990  -12.3400   -2.7030 N.am   59  GLU59      -0.1979
     18  CA        41.0210  -10.9670   -2.2030 C.3    59  GLU59       0.1602
     19  C         39.5980  -10.4320   -2.3500 C.2    59  GLU59       0.2287
     20  O         39.3450   -9.2280   -2.1980 O.2    59  GLU59      -0.2864
     21  CB        42.0550  -10.0160   -2.8110 C.3    59  GLU59       0.0415
     22  CG        43.3790  -10.0090   -2.0420 C.3    59  GLU59       0.1163
     23  CD        43.9400  -11.4090   -1.8100 C.2    59  GLU59       0.3649
     24  OE1       44.0540  -11.8000   -0.6280 O.co2  59  GLU59      -0.2457
     25  OE2       44.2650  -12.1140   -2.8000 O.co2  59  GLU59      -0.2457
     26  N         44.4430  -14.1180    0.9740 N.3    64  ASN64      -0.1240
     27  CA        45.7710  -14.7030    0.7480 C.3    64  ASN64       0.1653
     28  C         46.9250  -13.8410    1.2570 C.2    64  ASN64       0.2266
     29  O         48.0600  -13.9770    0.7900 O.2    64  ASN64      -0.2867
     30  CB        46.0020  -14.9420   -0.7490 C.3    64  ASN64       0.1155
     31  CG        44.8880  -15.7270   -1.3900 C.2    64  ASN64       0.2627
     32  OD1       44.8060  -16.9440   -1.2360 O.2    64  ASN64      -0.2716
     33  ND2       44.0190  -15.0340   -2.1150 N.am   64  ASN64      -0.0877
     34  N         50.5920  -15.0500    1.8230 N.3    67  TYR67      -0.1241
     35  CA        51.4780  -15.2080    0.6760 C.3    67  TYR67       0.1605
     36  C         52.2220  -13.8980    0.4010 C.2    67  TYR67       0.2264
     37  O         53.4400  -13.8880    0.1950 O.2    67  TYR67      -0.2867
     38  CB        50.7310  -15.7010   -0.5770 C.3    67  TYR67       0.0534
     39  CG        51.5880  -15.6090   -1.8170 C.ar   67  TYR67      -0.0201
     40  CD1       52.5740  -16.5560   -2.0810 C.ar   67  TYR67      -0.0009
     41  CD2       51.4380  -14.5540   -2.7070 C.ar   67  TYR67      -0.0009
     42  CE1       53.3840  -16.4520   -3.2100 C.ar   67  TYR67       0.0417
     43  CE2       52.2380  -14.4440   -3.8320 C.ar   67  TYR67       0.0417
     44  CZ        53.2080  -15.3900   -4.0820 C.ar   67  TYR67       0.1957
     45  OH        54.0020  -15.2620   -5.2020 O.3    67  TYR67      -0.2866
     46  N         56.2680  -13.0450    0.4850 N.3    71  GLN71      -0.1245
     47  CA        56.9750  -12.3040   -0.5570 C.3    71  GLN71       0.1566
     48  C         57.8250  -11.1930    0.0350 C.2    71  GLN71       0.2260
     49  O         58.9670  -10.9880   -0.3700 O.2    71  GLN71      -0.2867
     50  CB        56.0020  -11.6440   -1.5230 C.3    71  GLN71       0.0367
     51  CG        55.2490  -12.5500   -2.4540 C.3    71  GLN71       0.0905
     52  CD        54.3740  -11.7290   -3.3770 C.2    71  GLN71       0.2608
     53  OE1       53.2480  -11.3730   -3.0290 O.2    71  GLN71      -0.2717
     54  NE2       54.9040  -11.3880   -4.5450 N.am   71  GLN71      -0.0878
     55  N         56.1520  -11.9040   -7.5720 N.3    78  PHE78      -0.1241
     56  CA        55.1420  -12.9350   -7.8080 C.3    78  PHE78       0.1605
     57  C         55.6070  -13.9880   -8.8010 C.2    78  PHE78       0.2264
     58  O         56.1600  -13.6710   -9.8520 O.2    78  PHE78      -0.2867
     59  CB        53.8130  -12.3490   -8.2820 C.3    78  PHE78       0.0534
     60  CG        52.7660  -13.3940   -8.5540 C.ar   78  PHE78      -0.0203
     61  CD1       52.0230  -13.9310   -7.5170 C.ar   78  PHE78      -0.0042
     62  CD2       52.5370  -13.8510   -9.8430 C.ar   78  PHE78      -0.0042
     63  CE1       51.0560  -14.8950   -7.7540 C.ar   78  PHE78      -0.0003
     64  CE2       51.5780  -14.8240  -10.0890 C.ar   78  PHE78      -0.0003
     65  CZ        50.8380  -15.3460   -9.0390 C.ar   78  PHE78      -0.0000
     66  N         52.9260  -19.4730   -6.0220 N.3    83  TRP83      -0.1241
     67  CA        51.4970  -19.3350   -5.7620 C.3    83  TRP83       0.1605
     68  C         50.8300  -20.7030   -5.6470 C.2    83  TRP83       0.2264
     69  O         50.0670  -20.9450   -4.7250 O.2    83  TRP83      -0.2867
     70  CB        50.8200  -18.5140   -6.8650 C.3    83  TRP83       0.0550
     71  CG        49.3470  -18.4330   -6.6690 C.ar   83  TRP83       0.0003
     72  CD1       48.3800  -19.1160   -7.3610 C.ar   83  TRP83       0.0946
     73  CD2       48.6620  -17.6640   -5.6760 C.ar   83  TRP83       0.0152
     74  NE1       47.1360  -18.8010   -6.8630 N.ar   83  TRP83      -0.2442
     75  CE2       47.2840  -17.9140   -5.8290 C.ar   83  TRP83       0.0810
     76  CE3       49.0820  -16.7880   -4.6720 C.ar   83  TRP83       0.0012
     77  CZ2       46.3270  -17.3140   -5.0160 C.ar   83  TRP83       0.0191
     78  CZ3       48.1290  -16.1900   -3.8730 C.ar   83  TRP83       0.0001
     79  CH2       46.7720  -16.4590   -4.0470 C.ar   83  TRP83       0.0015
     80  N         37.0370  -17.5800  -10.9840 N.3   116  THR116     -0.1203
     81  CA        38.2930  -17.3010  -10.3020 C.3   116  THR116      0.1994
     82  C         39.4440  -17.7600  -11.1730 C.2   116  THR116      0.2618
     83  O         39.3060  -18.7310  -11.9240 O.2   116  THR116     -0.2717
     84  CB        38.3490  -18.0690   -8.9580 C.3   116  THR116      0.1784
     85  OG1       39.6890  -18.0910   -8.4580 O.3   116  THR116     -0.2211
     86  CG2       37.8880  -19.5060   -9.1500 C.3   116  THR116      0.0376
     87  N         40.5720  -17.0680  -11.0800 N.am  117  ASN117     -0.1960
     88  CA        41.7440  -17.4740  -11.8460 C.3   117  ASN117      0.1819
     89  C         42.7440  -18.3270  -11.0630 C.2   117  ASN117      0.2621
     90  O         43.8790  -18.5230  -11.4980 O.2   117  ASN117     -0.2715
     91  CB        42.3910  -16.2770  -12.5450 C.3   117  ASN117      0.1195
     92  CG        41.5910  -15.8310  -13.7600 C.2   117  ASN117      0.2630
     93  OD1       40.8440  -16.6190  -14.3270 O.2   117  ASN117     -0.2716
     94  ND2       41.7380  -14.5700  -14.1600 N.am  117  ASN117     -0.0877
     95  N         42.3150  -18.8440   -9.9120 N.am  118  ARG118     -0.1977
     96  CA        42.9740  -20.0290   -9.3680 C.3   118  ARG118      0.1597
     97  C         42.8260  -21.0810  -10.4580 C.2   118  ARG118      0.2287
     98  O         41.8180  -21.0910  -11.1620 O.2   118  ARG118     -0.2864
     99  CB        42.3220  -20.4840   -8.0620 C.3   118  ARG118      0.0334
    100  CG        42.7720  -19.6520   -6.8640 C.3   118  ARG118      0.0492
    101  CD        42.2210  -20.1810   -5.5440 C.3   118  ARG118      0.2205
    102  NE        42.7680  -19.4540   -4.3960 N.pl3 118  ARG118     -0.0865
    103  CZ        43.0500  -20.0150   -3.2220 C.cat 118  ARG118      0.5346
    104  NH1       42.8330  -21.3120   -3.0360 N.pl3 118  ARG118      0.1354
    105  NH2       43.5530  -19.2830   -2.2310 N.pl3 118  ARG118      0.1354
    106  N         40.2250  -21.1960  -13.6300 N.3   147  LYS147     -0.1245
    107  CA        40.9250  -20.8960  -14.8700 C.3   147  LYS147      0.1561
    108  C         41.3730  -22.1570  -15.5840 C.2   147  LYS147      0.2260
    109  O         41.9840  -23.0410  -14.9870 O.2   147  LYS147     -0.2867
    110  CB        42.1390  -19.9980  -14.6370 C.3   147  LYS147      0.0271
    111  CG        42.9780  -19.8060  -15.9070 C.3   147  LYS147      0.0035
    112  CD        44.0100  -18.6880  -15.7730 C.3   147  LYS147      0.0206
    113  CE        45.0230  -18.9830  -14.6770 C.3   147  LYS147      0.1093
    114  NZ        46.1610  -18.0060  -14.6510 N.3   147  LYS147     -0.1314
    115  N         42.4110  -16.0960  -18.9290 N.3   151  SER151     -0.1217
    116  CA        42.2990  -15.3360  -17.6820 C.3   151  SER151      0.1889
    117  C         41.1080  -14.3780  -17.7110 C.2   151  SER151      0.2288
    118  O         40.5370  -14.0650  -16.6650 O.2   151  SER151     -0.2866
    119  CB        43.5770  -14.5400  -17.4050 C.3   151  SER151      0.2089
    120  OG        44.6410  -15.3830  -16.9890 O.3   151  SER151     -0.2183
    121  N         37.4120  -13.1680  -17.9150 N.3   153  LYS153     -0.1245
    122  CA        36.3400  -13.9080  -17.2420 C.3   153  LYS153      0.1561
    123  C         34.9910  -13.9220  -17.9490 C.2   153  LYS153      0.2260
    124  O         34.1180  -14.7200  -17.6010 O.2   153  LYS153     -0.2867
    125  CB        36.1740  -13.3860  -15.8070 C.3   153  LYS153      0.0271
    126  CG        37.3170  -13.8130  -14.8950 C.3   153  LYS153      0.0035
    127  CD        37.1830  -13.2160  -13.4980 C.3   153  LYS153      0.0206
    128  CE        38.1410  -13.9050  -12.5460 C.3   153  LYS153      0.1093
    129  NZ        37.9630  -13.3870  -11.1580 N.3   153  LYS153     -0.1314
    130  N         37.5430   -7.7290   -6.5450 N.3   173  ASP173     -0.1225
    131  CA        38.5000   -6.7040   -6.1240 C.3   173  ASP173      0.1805
    132  C         39.2220   -6.1280   -7.3270 C.2   173  ASP173      0.2597
    133  O         40.0790   -5.2510   -7.1800 O.2   173  ASP173     -0.2718
    134  CB        39.5420   -7.2890   -5.1800 C.3   173  ASP173      0.1424
    135  CG        40.4130   -8.3440   -5.8540 C.2   173  ASP173      0.3668
    136  OD1       39.8620   -9.3920   -6.2190 O.co2 173  ASP173     -0.2456
    137  OD2       41.6290   -8.1380   -6.0200 O.co2 173  ASP173     -0.2456
    138  N         38.8840   -6.6440   -8.5080 N.am  174  ASN174     -0.1974
    139  CA        39.5700   -6.2970   -9.7570 C.3   174  ASN174      0.1688
    140  C         38.4810   -5.9540  -10.7710 C.2   174  ASN174      0.2292
    141  O         37.4870   -6.6610  -10.8660 O.2   174  ASN174     -0.2864
    142  CB        40.3970   -7.5260  -10.2170 C.3   174  ASN174      0.1181
    143  CG        41.2410   -7.2750  -11.4750 C.2   174  ASN174      0.2629
    144  OD1       40.9070   -6.4530  -12.3200 O.2   174  ASN174     -0.2716
    145  ND2       42.3310   -8.0370  -11.6100 N.am  174  ASN174     -0.0877
    146  N         36.8510   -8.4610  -12.9030 N.3   177  ASP177     -0.1239
    147  CA        35.8530   -9.3450  -12.3230 C.3   177  ASP177      0.1674
    148  C         34.4340   -8.9440  -12.7250 C.2   177  ASP177      0.2266
    149  O         33.4670   -9.6060  -12.3490 O.2   177  ASP177     -0.2867
    150  CB        35.9700   -9.3420  -10.7950 C.3   177  ASP177      0.1410
    151  CG        37.3210   -9.8370  -10.3130 C.2   177  ASP177      0.3668
    152  OD1       37.9810  -10.5930  -11.0690 O.co2 177  ASP177     -0.2456
    153  OD2       37.7180   -9.4860   -9.1710 O.co2 177  ASP177     -0.2456
    154  N         47.4400   -4.4900   -2.8070 N.3   212  ASN212     -0.1225
    155  CA        48.6550   -5.2990   -2.9560 C.3   212  ASN212      0.1785
    156  C         48.9930   -5.7460   -4.3880 C.2   212  ASN212      0.2597
    157  O         50.1710   -5.8540   -4.7450 O.2   212  ASN212     -0.2718
    158  CB        48.5990   -6.5090   -2.0160 C.3   212  ASN212      0.1169
    159  CG        49.8230   -7.4100   -2.1380 C.2   212  ASN212      0.2627
    160  OD1       49.7390   -8.5170   -2.6770 O.2   212  ASN212     -0.2716
    161  ND2       50.9650   -6.9430   -1.6310 N.am  212  ASN212     -0.0877
    162  N         47.9780   -6.0040   -5.2070 N.am  213  TYR213     -0.1962
    163  CA        48.2150   -6.4520   -6.5780 C.3   213  TYR213      0.1771
    164  C         46.9340   -6.3440   -7.4000 C.2   213  TYR213      0.2620
    165  O         45.8520   -6.0960   -6.8620 O.2   213  TYR213     -0.2715
    166  CB        48.7060   -7.9150   -6.5950 C.3   213  TYR213      0.0574
    167  CG        47.6180   -8.8990   -6.2180 C.ar  213  TYR213     -0.0198
    168  CD1       46.7790   -9.4390   -7.1870 C.ar  213  TYR213     -0.0009
    169  CD2       47.4240   -9.2790   -4.8940 C.ar  213  TYR213     -0.0009
    170  CE1       45.7650  -10.3270   -6.8510 C.ar  213  TYR213      0.0417
    171  CE2       46.4140  -10.1770   -4.5450 C.ar  213  TYR213      0.0417
    172  CZ        45.5840  -10.6890   -5.5320 C.ar  213  TYR213      0.1957
    173  OH        44.5640  -11.5590   -5.2070 O.3   213  TYR213     -0.2866
    174  N         47.0530   -6.5540   -8.7020 N.am  214  GLY214     -0.1954
    175  CA        45.8710   -6.6330   -9.5450 C.3   214  GLY214      0.1869
    176  C         46.0660   -6.0630  -10.9340 C.2   214  GLY214      0.2309
    177  O         47.1800   -5.7210  -11.3280 O.2   214  GLY214     -0.2863
    178  N         47.9540   -2.9140  -11.3230 N.3   217  GLU217     -0.1245
    179  CA        49.4190   -2.9240  -11.2990 C.3   217  GLU217      0.1567
    180  C         49.9360   -3.0090  -12.7350 C.2   217  GLU217      0.2260
    181  O         50.7730   -2.2060  -13.1540 O.2   217  GLU217     -0.2867
    182  CB        49.9780   -4.0760  -10.4470 C.3   217  GLU217      0.0388
    183  CG        51.4980   -3.9710  -10.2520 C.3   217  GLU217      0.1160
    184  CD        52.1020   -5.1540   -9.5150 C.2   217  GLU217      0.3649
    185  OE1       51.3360   -6.0000   -9.0070 O.co2 217  GLU217     -0.2457
    186  OE2       53.3530   -5.2280   -9.4420 O.co2 217  GLU217     -0.2457
    187  N         54.0840   -6.2620  -17.0980 N.3   225  PHE225     -0.1241
    188  CA        54.3650   -7.5990  -16.5840 C.3   225  PHE225      0.1605
    189  C         55.4850   -8.2770  -17.3630 C.2   225  PHE225      0.2264
    190  O         56.0270   -9.2860  -16.9230 O.2   225  PHE225     -0.2867
    191  CB        53.0990   -8.4520  -16.5760 C.3   225  PHE225      0.0534
    192  CG        52.1110   -8.0590  -15.5040 C.ar  225  PHE225     -0.0203
    193  CD1       52.5240   -7.9060  -14.1880 C.ar  225  PHE225     -0.0042
    194  CD2       50.7750   -7.8350  -15.8170 C.ar  225  PHE225     -0.0042
    195  CE1       51.6210   -7.5460  -13.2010 C.ar  225  PHE225     -0.0003
    196  CE2       49.8600   -7.4750  -14.8320 C.ar  225  PHE225     -0.0003
    197  CZ        50.2860   -7.3290  -13.5250 C.ar  225  PHE225     -0.0000
@<TRIPOS>BOND
     1   115   116    1
     2   123   124    2
     3   123   122    1
     4   121   122    1
     5   117   116    1
     6   117   118    2
     7   116   119    1
     8   119   120    1
     9   189   190    2
    10   189   188    1
    11   122   125    1
    12   187   188    1
    13   188   191    1
    14   191   192    1
    15   111   112    1
    16   111   110    1
    17   194   192   ar
    18   194   196   ar
    19   125   126    1
    20   112   113    1
    21   108   109    2
    22   108   107    1
    23   192   193   ar
    24   126   127    1
    25   107   110    1
    26   107   106    1
    27   196   197   ar
    28   113   114    1
    29    93    92    2
    30   193   195   ar
    31    94    92   am
    32    92    91    1
    33   197   195   ar
    34   127   128    1
    35   181   180    2
    36   146   147    1
    37   180   179    1
    38   148   149    2
    39   148   147    1
    40   128   129    1
    41    91    88    1
    42   147   150    1
    43   144   143    2
    44    83    82    2
    45    88    87    1
    46    88    89    1
    47   145   143   am
    48    90    89    2
    49   143   142    1
    50   177   176    2
    51   178   179    1
    52   179   182    1
    53    82    87   am
    54    82    81    1
    55    98    97    2
    56   152   151   ar
    57    89    95   am
    58    80    81    1
    59   176   175    1
    60   141   140    2
    61   150   151    1
    62   140   139    1
    63    97    96    1
    64   182   183    1
    65   151   153   ar
    66    81    84    1
    67   183   184    1
    68   142   139    1
    69    64    62   ar
    70    64    65   ar
    71    95    96    1
    72    58    57    2
    73    62    60   ar
    74   139   138    1
    75   175   174    1
    76   184   186   ar
    77   184   185   ar
    78    96    99    1
    79    86    84    1
    80    65    63   ar
    81    84    85    1
    82    57    56    1
    83   174   164   am
    84    60    59    1
    85    60    61   ar
    86   138   132   am
    87     7     6   ar
    88    59    56    1
    89    99   100    1
    90    56    55    1
    91    63    61   ar
    92     5     6    1
    93     5     2    1
    94     6     8   ar
    95     2     1    1
    96     2     3    1
    97   164   165    2
    98   164   163    1
    99    72    74   ar
   100    72    71   ar
   101   132   133    2
   102   132   131    1
   103   168   170   ar
   104   168   167   ar
   105    70    71    1
   106    70    67    1
   107   100   101    1
   108    74    75   ar
   109   170   172   ar
   110    71    73   ar
   111   166   163    1
   112   166   167    1
   113   163   162    1
   114   130   131    1
   115    16    14   am
   116   136   135   ar
   117   167   169   ar
   118     3     4    2
   119   131   134    1
   120    66    67    1
   121   137   135   ar
   122   135   134    1
   123    75    73   ar
   124    75    77   ar
   125    67    68    1
   126    73    76   ar
   127    68    69    2
   128   101   102    1
   129   172   173    1
   130   172   171   ar
   131    14    13    1
   132    14    15    2
   133   162   156   am
   134    45    44    1
   135    13    10    1
   136    77    79   ar
   137     9    10    1
   138   169   171   ar
   139    12    11    2
   140   157   156    2
   141    76    78   ar
   142    54    52   am
   143   102   103    2
   144   156   155    1
   145    10    11    1
   146    44    43   ar
   147    44    42   ar
   148    79    78   ar
   149    11    17   am
   150    43    41   ar
   151    52    53    2
   152    52    51    1
   153   103   104    1
   154   103   105    1
   155    42    40   ar
   156   155   154    1
   157   155   158    1
   158    21    18    1
   159    21    22    1
   160    25    23   ar
   161    41    39   ar
   162    17    18    1
   163   160   159    2
   164    51    50    1
   165    19    18    1
   166    19    20    2
   167   159   158    1
   168   159   161   am
   169    33    31   am
   170    40    39   ar
   171    22    23    1
   172    39    38    1
   173    23    24   ar
   174    50    47    1
   175    31    32    2
   176    31    30    1
   177    30    27    1
   178    38    35    1
   179    47    48    1
   180    47    46    1
   181    49    48    2
   182    37    36    2
   183    36    35    1
   184    35    34    1
   185    27    26    1
   186    27    28    1
   187    29    28    2
