@<TRIPOS>MOLECULE
tmp/3ocxA00.pdb
 200 191 0 0 0
SMALL
GASTEIGER

@<TRIPOS>ATOM
      1  N         34.4460  -13.3800   -7.3730 N.3    55  ASP55      -0.1239
      2  CA        35.8400  -13.7580   -7.4750 C.3    55  ASP55       0.1674
      3  C         36.2650  -14.3500   -6.1420 C.2    55  ASP55       0.2266
      4  O         35.5780  -14.1610   -5.1400 O.2    55  ASP55      -0.2867
      5  CB        36.6770  -12.5270   -7.7800 C.3    55  ASP55       0.1410
      6  CG        38.1430  -12.8260   -7.7750 C.2    55  ASP55       0.3668
      7  OD1       38.5920  -13.5990   -8.6420 O.co2  55  ASP55      -0.2456
      8  OD2       38.8360  -12.2940   -6.8950 O.co2  55  ASP55      -0.2456
      9  N         40.1770  -14.7650   -4.9330 N.3    57  ASN57      -0.1225
     10  CA        41.3640  -14.1510   -4.3440 C.3    57  ASN57       0.1785
     11  C         41.2180  -12.6610   -4.0120 C.2    57  ASN57       0.2597
     12  O         41.0830  -11.8360   -4.9050 O.2    57  ASN57      -0.2718
     13  CB        42.5920  -14.3860   -5.2360 C.3    57  ASN57       0.1169
     14  CG        42.9650  -15.8600   -5.3280 C.2    57  ASN57       0.2627
     15  OD1       42.7700  -16.6190   -4.3760 O.2    57  ASN57      -0.2716
     16  ND2       43.5020  -16.2690   -6.4750 N.am   57  ASN57      -0.0877
     17  N         41.2840  -12.3330   -2.7230 N.am   58  GLU58      -0.1979
     18  CA        41.1280  -10.9610   -2.2320 C.3    58  GLU58       0.1602
     19  C         39.7070  -10.4150   -2.3920 C.2    58  GLU58       0.2287
     20  O         39.4620   -9.2130   -2.2480 O.2    58  GLU58      -0.2864
     21  CB        42.1630  -10.0250   -2.8500 C.3    58  GLU58       0.0415
     22  CG        43.4640   -9.9950   -2.0500 C.3    58  GLU58       0.1163
     23  CD        44.0460  -11.3890   -1.8000 C.2    58  GLU58       0.3649
     24  OE1       44.2430  -11.7560   -0.6180 O.co2  58  GLU58      -0.2457
     25  OE2       44.3160  -12.1110   -2.7840 O.co2  58  GLU58      -0.2457
     26  N         44.5420  -14.1520    0.9030 N.3    63  ASN63      -0.1240
     27  CA        45.8470  -14.7550    0.6640 C.3    63  ASN63       0.1653
     28  C         46.9880  -13.8690    1.1550 C.2    63  ASN63       0.2266
     29  O         48.1100  -13.9690    0.6590 O.2    63  ASN63      -0.2867
     30  CB        46.0480  -14.9940   -0.8290 C.3    63  ASN63       0.1155
     31  CG        44.9240  -15.7730   -1.4450 C.2    63  ASN63       0.2627
     32  OD1       44.8870  -17.0110   -1.3620 O.2    63  ASN63      -0.2716
     33  ND2       43.9830  -15.0550   -2.0670 N.am   63  ASN63      -0.0877
     34  N         50.6230  -15.0580    1.7980 N.3    66  TYR66      -0.1241
     35  CA        51.5010  -15.2360    0.6500 C.3    66  TYR66       0.1605
     36  C         52.2630  -13.9400    0.3640 C.2    66  TYR66       0.2264
     37  O         53.4810  -13.9450    0.1660 O.2    66  TYR66      -0.2867
     38  CB        50.7290  -15.7020   -0.5860 C.3    66  TYR66       0.0534
     39  CG        51.5660  -15.6240   -1.8350 C.ar   66  TYR66      -0.0201
     40  CD1       52.6260  -16.5020   -2.0410 C.ar   66  TYR66      -0.0009
     41  CD2       51.3220  -14.6570   -2.7930 C.ar   66  TYR66      -0.0009
     42  CE1       53.4090  -16.4180   -3.1750 C.ar   66  TYR66       0.0417
     43  CE2       52.0960  -14.5630   -3.9280 C.ar   66  TYR66       0.0417
     44  CZ        53.1440  -15.4410   -4.1140 C.ar   66  TYR66       0.1957
     45  OH        53.9100  -15.3330   -5.2520 O.3    66  TYR66      -0.2866
     46  N         56.3350  -13.0530    0.3060 N.3    70  GLN70      -0.1245
     47  CA        57.0520  -12.2880   -0.7100 C.3    70  GLN70       0.1566
     48  C         57.8850  -11.1920   -0.0710 C.2    70  GLN70       0.2260
     49  O         59.0610  -11.0220   -0.3910 O.2    70  GLN70      -0.2867
     50  CB        56.0810  -11.6210   -1.6800 C.3    70  GLN70       0.0367
     51  CG        55.2960  -12.5430   -2.5760 C.3    70  GLN70       0.0905
     52  CD        54.4220  -11.7430   -3.5110 C.2    70  GLN70       0.2608
     53  OE1       53.2880  -11.4010   -3.1690 O.2    70  GLN70      -0.2717
     54  NE2       54.9580  -11.3960   -4.6790 N.am   70  GLN70      -0.0878
     55  N         56.0760  -11.8390   -7.5830 N.3    77  PHE77      -0.1241
     56  CA        55.0880  -12.8900   -7.8260 C.3    77  PHE77       0.1605
     57  C         55.5520  -13.9180   -8.8530 C.2    77  PHE77       0.2264
     58  O         56.0670  -13.5690   -9.9180 O.2    77  PHE77      -0.2867
     59  CB        53.7360  -12.3150   -8.2530 C.3    77  PHE77       0.0534
     60  CG        52.6940  -13.3690   -8.4740 C.ar   77  PHE77      -0.0203
     61  CD1       51.9590  -13.8620   -7.4120 C.ar   77  PHE77      -0.0042
     62  CD2       52.4710  -13.8920   -9.7380 C.ar   77  PHE77      -0.0042
     63  CE1       51.0100  -14.8460   -7.6040 C.ar   77  PHE77      -0.0003
     64  CE2       51.5200  -14.8790   -9.9390 C.ar   77  PHE77      -0.0003
     65  CZ        50.7900  -15.3590   -8.8670 C.ar   77  PHE77      -0.0000
     66  N         52.9840  -19.4130   -6.1510 N.3    82  TRP82      -0.1241
     67  CA        51.5580  -19.2820   -5.8900 C.3    82  TRP82       0.1605
     68  C         50.8880  -20.6540   -5.7510 C.2    82  TRP82       0.2264
     69  O         50.1490  -20.9030   -4.7990 O.2    82  TRP82      -0.2867
     70  CB        50.8780  -18.4730   -6.9950 C.3    82  TRP82       0.0550
     71  CG        49.3860  -18.4560   -6.8250 C.ar   82  TRP82       0.0003
     72  CD1       48.4680  -19.1540   -7.5550 C.ar   82  TRP82       0.0946
     73  CD2       48.6490  -17.7500   -5.8200 C.ar   82  TRP82       0.0152
     74  NE1       47.2040  -18.9110   -7.0770 N.ar   82  TRP82      -0.2442
     75  CE2       47.2880  -18.0510   -6.0140 C.ar   82  TRP82       0.0810
     76  CE3       49.0080  -16.8850   -4.7820 C.ar   82  TRP82       0.0012
     77  CZ2       46.2890  -17.5240   -5.2060 C.ar   82  TRP82       0.0191
     78  CZ3       48.0110  -16.3570   -3.9870 C.ar   82  TRP82       0.0001
     79  CH2       46.6730  -16.6810   -4.2000 C.ar   82  TRP82       0.0015
     80  N         37.0220  -17.5140  -10.9140 N.3   115  THR115     -0.1203
     81  CA        38.2880  -17.2620  -10.2430 C.3   115  THR115      0.1994
     82  C         39.4350  -17.6400  -11.1580 C.2   115  THR115      0.2618
     83  O         39.3070  -18.5530  -11.9760 O.2   115  THR115     -0.2717
     84  CB        38.3840  -18.1000   -8.9380 C.3   115  THR115      0.1784
     85  OG1       39.7170  -18.0490   -8.4070 O.3   115  THR115     -0.2211
     86  CG2       38.0230  -19.5720   -9.2100 C.3   115  THR115      0.0376
     87  N         40.5610  -16.9410  -11.0300 N.am  116  ASN116     -0.1960
     88  CA        41.7290  -17.3080  -11.8200 C.3   116  ASN116      0.1819
     89  C         42.7350  -18.2160  -11.1120 C.2   116  ASN116      0.2621
     90  O         43.8500  -18.4060  -11.5900 O.2   116  ASN116     -0.2715
     91  CB        42.3810  -16.0830  -12.4650 C.3   116  ASN116      0.1195
     92  CG        41.6280  -15.6380  -13.7050 C.2   116  ASN116      0.2630
     93  OD1       40.9060  -16.4350  -14.3040 O.2   116  ASN116     -0.2716
     94  ND2       41.7800  -14.3710  -14.0910 N.am  116  ASN116     -0.0877
     95  N         42.3400  -18.7730   -9.9720 N.am  117  ARG117     -0.1963
     96  CA        43.0220  -19.9560   -9.4590 C.3   117  ARG117      0.1729
     97  C         42.8710  -21.0010  -10.5510 C.2   117  ARG117      0.2616
     98  O         41.8790  -20.9920  -11.2730 O.2   117  ARG117     -0.2715
     99  CB        42.3990  -20.4410   -8.1460 C.3   117  ARG117      0.0348
    100  CG        42.8030  -19.5880   -6.9400 C.3   117  ARG117      0.0492
    101  CD        42.3690  -20.2080   -5.6240 C.3   117  ARG117      0.2205
    102  NE        42.8930  -19.4630   -4.4840 N.pl3 117  ARG117     -0.0865
    103  CZ        43.1110  -19.9860   -3.2790 C.cat 117  ARG117      0.5346
    104  NH1       42.8570  -21.2660   -3.0480 N.pl3 117  ARG117      0.1354
    105  NH2       43.5950  -19.2290   -2.3030 N.pl3 117  ARG117      0.1354
    106  N         43.8500  -21.8970  -10.6730 N.am  118  LYS118     -0.1977
    107  CA        43.9280  -22.8150  -11.8110 C.3   118  LYS118      0.1596
    108  C         43.0950  -24.0760  -11.5930 C.2   118  LYS118      0.2287
    109  O         43.1900  -24.7230  -10.5560 O.2   118  LYS118     -0.2864
    110  CB        45.3960  -23.1870  -12.1070 C.3   118  LYS118      0.0298
    111  CG        46.1230  -22.0620  -12.7800 C.3   118  LYS118      0.0038
    112  CD        47.3840  -22.7660  -13.2020 C.3   118  LYS118      0.0206
    113  CE        48.6110  -21.9260  -13.0740 C.3   118  LYS118      0.1093
    114  NZ        48.5310  -20.6860  -13.8140 N.3   118  LYS118     -0.1314
    115  N         40.2100  -21.1090  -13.7050 N.3   146  LYS146     -0.1245
    116  CA        40.8930  -20.7690  -14.9430 C.3   146  LYS146      0.1561
    117  C         41.3670  -21.9970  -15.6940 C.2   146  LYS146      0.2260
    118  O         41.9720  -22.9000  -15.1200 O.2   146  LYS146     -0.2867
    119  CB        42.0910  -19.8450  -14.6880 C.3   146  LYS146      0.0271
    120  CG        43.0120  -19.7090  -15.8940 C.3   146  LYS146      0.0035
    121  CD        43.7620  -18.3810  -15.8980 C.3   146  LYS146      0.0206
    122  CE        45.2350  -18.5340  -15.5550 C.3   146  LYS146      0.1093
    123  NZ        45.4670  -18.7180  -14.0960 N.3   146  LYS146     -0.1314
    124  N         37.3640  -13.1450  -17.9990 N.3   152  LYS152     -0.1245
    125  CA        36.3010  -13.8990  -17.3360 C.3   152  LYS152      0.1561
    126  C         34.9520  -13.8870  -18.0420 C.2   152  LYS152      0.2260
    127  O         34.0520  -14.6360  -17.6590 O.2   152  LYS152     -0.2867
    128  CB        36.1270  -13.3900  -15.9010 C.3   152  LYS152      0.0271
    129  CG        37.2510  -13.7900  -14.9690 C.3   152  LYS152      0.0035
    130  CD        37.0790  -13.1350  -13.6040 C.3   152  LYS152      0.0206
    131  CE        37.9200  -13.8640  -12.5710 C.3   152  LYS152      0.1093
    132  NZ        37.7690  -13.2230  -11.2420 N.3   152  LYS152     -0.1314
    133  N         37.5710   -7.7740   -6.5620 N.3   172  ASP172     -0.1225
    134  CA        38.5160   -6.7580   -6.1050 C.3   172  ASP172      0.1805
    135  C         39.2610   -6.1800   -7.3010 C.2   172  ASP172      0.2597
    136  O         40.1140   -5.2940   -7.1390 O.2   172  ASP172     -0.2718
    137  CB        39.5400   -7.3610   -5.1410 C.3   172  ASP172      0.1424
    138  CG        40.4600   -8.3560   -5.8280 C.2   172  ASP172      0.3668
    139  OD1       39.9550   -9.4170   -6.2180 O.co2 172  ASP172     -0.2456
    140  OD2       41.6640   -8.0800   -6.0030 O.co2 172  ASP172     -0.2456
    141  N         38.9410   -6.6950   -8.4910 N.am  173  ASN173     -0.1974
    142  CA        39.6240   -6.3340   -9.7410 C.3   173  ASN173      0.1688
    143  C         38.5620   -5.9440  -10.7670 C.2   173  ASN173      0.2292
    144  O         37.5770   -6.6470  -10.9160 O.2   173  ASN173     -0.2864
    145  CB        40.4280   -7.5660  -10.2230 C.3   173  ASN173      0.1181
    146  CG        41.3010   -7.2950  -11.4490 C.2   173  ASN173      0.2629
    147  OD1       40.9700   -6.4850  -12.3110 O.2   173  ASN173     -0.2716
    148  ND2       42.4080   -8.0280  -11.5460 N.am  173  ASN173     -0.0877
    149  N         36.9150   -8.3820  -12.9390 N.3   176  ASP176     -0.1239
    150  CA        35.9240   -9.2560  -12.3360 C.3   176  ASP176      0.1674
    151  C         34.5000   -8.8530  -12.7350 C.2   176  ASP176      0.2266
    152  O         33.5350   -9.5030  -12.3330 O.2   176  ASP176     -0.2867
    153  CB        36.0620   -9.2340  -10.8060 C.3   176  ASP176      0.1410
    154  CG        37.4080   -9.7480  -10.3300 C.2   176  ASP176      0.3668
    155  OD1       38.0660  -10.4940  -11.0950 O.co2 176  ASP176     -0.2456
    156  OD2       37.7980   -9.4240   -9.1830 O.co2 176  ASP176     -0.2456
    157  N         47.4390   -4.5050   -2.7500 N.3   211  ASN211     -0.1225
    158  CA        48.6210   -5.3600   -2.8440 C.3   211  ASN211      0.1785
    159  C         48.9900   -5.8260   -4.2640 C.2   211  ASN211      0.2597
    160  O         50.1680   -5.9560   -4.5810 O.2   211  ASN211     -0.2718
    161  CB        48.4780   -6.5590   -1.8970 C.3   211  ASN211      0.1169
    162  CG        49.7650   -7.3370   -1.7210 C.2   211  ASN211      0.2627
    163  OD1       49.8890   -8.4740   -2.2020 O.2   211  ASN211     -0.2716
    164  ND2       50.7090   -6.7650   -0.9830 N.am  211  ASN211     -0.0877
    165  N         48.0000   -6.0750   -5.1160 N.am  212  TYR212     -0.1962
    166  CA        48.2610   -6.5060   -6.4970 C.3   212  TYR212      0.1771
    167  C         46.9940   -6.3710   -7.3500 C.2   212  TYR212      0.2620
    168  O         45.9070   -6.1290   -6.8260 O.2   212  TYR212     -0.2715
    169  CB        48.7490   -7.9640   -6.5310 C.3   212  TYR212      0.0574
    170  CG        47.6510   -8.9550   -6.1850 C.ar  212  TYR212     -0.0198
    171  CD1       46.8120   -9.4570   -7.1700 C.ar  212  TYR212     -0.0009
    172  CD2       47.4520   -9.3800   -4.8760 C.ar  212  TYR212     -0.0009
    173  CE1       45.7930  -10.3670   -6.8650 C.ar  212  TYR212      0.0417
    174  CE2       46.4340  -10.2950   -4.5600 C.ar  212  TYR212      0.0417
    175  CZ        45.6050  -10.7690   -5.5630 C.ar  212  TYR212      0.1957
    176  OH        44.5800  -11.6490   -5.2680 O.3   212  TYR212     -0.2866
    177  N         47.1230   -6.5500   -8.6610 N.am  213  GLY213     -0.1954
    178  CA        45.9420   -6.5830   -9.5080 C.3   213  GLY213      0.1869
    179  C         46.1520   -6.0490  -10.9110 C.2   213  GLY213      0.2309
    180  O         47.2700   -5.7190  -11.2980 O.2   213  GLY213     -0.2863
    181  N         48.0660   -2.9260  -11.3890 N.3   216  GLU216     -0.1245
    182  CA        49.5260   -2.9260  -11.3660 C.3   216  GLU216      0.1567
    183  C         50.0660   -2.9750  -12.7940 C.2   216  GLU216      0.2260
    184  O         50.8880   -2.1460  -13.1860 O.2   216  GLU216     -0.2867
    185  CB        50.0930   -4.0830  -10.5360 C.3   216  GLU216      0.0388
    186  CG        51.5960   -3.9440  -10.3130 C.3   216  GLU216      0.1160
    187  CD        52.2220   -5.1540   -9.6440 C.2   216  GLU216      0.3649
    188  OE1       51.4660   -6.0270   -9.1570 O.co2 216  GLU216     -0.2457
    189  OE2       53.4780   -5.2240   -9.6180 O.co2 216  GLU216     -0.2457
    190  N         54.3430   -6.1960  -17.0920 N.3   224  PHE224     -0.1241
    191  CA        54.7030   -7.5160  -16.5860 C.3   224  PHE224      0.1605
    192  C         55.8140   -8.1500  -17.4140 C.2   224  PHE224      0.2264
    193  O         56.4930   -9.0670  -16.9530 O.2   224  PHE224     -0.2867
    194  CB        53.4870   -8.4290  -16.5170 C.3   224  PHE224      0.0534
    195  CG        52.4800   -8.0230  -15.4730 C.ar  224  PHE224     -0.0203
    196  CD1       52.8260   -7.9830  -14.1320 C.ar  224  PHE224     -0.0042
    197  CD2       51.1800   -7.7020  -15.8340 C.ar  224  PHE224     -0.0042
    198  CE1       51.8930   -7.6200  -13.1720 C.ar  224  PHE224     -0.0003
    199  CE2       50.2420   -7.3400  -14.8790 C.ar  224  PHE224     -0.0003
    200  CZ        50.6000   -7.2970  -13.5480 C.ar  224  PHE224     -0.0000
@<TRIPOS>BOND
     1   126   127    2
     2   126   125    1
     3   124   125    1
     4   192   193    2
     5   192   191    1
     6   125   128    1
     7   190   191    1
     8   191   194    1
     9   194   195    1
    10   128   129    1
    11   121   120    1
    12   121   122    1
    13   120   119    1
    14   197   195   ar
    15   197   199   ar
    16   117   118    2
    17   117   116    1
    18   122   123    1
    19   195   196   ar
    20   129   130    1
    21   116   119    1
    22   116   115    1
    23   199   200   ar
    24    93    92    2
    25   196   198   ar
    26    94    92   am
    27   114   113    1
    28    92    91    1
    29   130   131    1
    30   200   198   ar
    31   112   113    1
    32   112   111    1
    33   184   183    2
    34   149   150    1
    35   183   182    1
    36   111   110    1
    37   151   150    1
    38   151   152    2
    39   131   132    1
    40    91    88    1
    41   150   153    1
    42   147   146    2
    43   110   107    1
    44    83    82    2
    45    88    89    1
    46    88    87    1
    47   107   108    1
    48   107   106    1
    49   108   109    2
    50    90    89    2
    51   148   146   am
    52   146   145    1
    53   181   182    1
    54   182   185    1
    55   180   179    2
    56    98    97    2
    57    82    87   am
    58    82    81    1
    59    89    95   am
    60   155   154   ar
    61   144   143    2
    62    80    81    1
    63   179   178    1
    64   153   154    1
    65   143   142    1
    66   106    97   am
    67    97    96    1
    68   185   186    1
    69   154   156   ar
    70   186   187    1
    71    81    84    1
    72   145   142    1
    73    95    96    1
    74    64    62   ar
    75    64    65   ar
    76    58    57    2
    77   142   141    1
    78    62    60   ar
    79   187   189   ar
    80   187   188   ar
    81   178   177    1
    82    96    99    1
    83    86    84    1
    84    84    85    1
    85    65    63   ar
    86    57    56    1
    87   177   167   am
    88     7     6   ar
    89   141   135   am
    90    60    59    1
    91    60    61   ar
    92    59    56    1
    93    99   100    1
    94    56    55    1
    95     5     6    1
    96     5     2    1
    97     6     8   ar
    98    63    61   ar
    99    72    74   ar
   100    72    71   ar
   101     2     1    1
   102     2     3    1
   103   167   168    2
   104   167   166    1
   105   135   136    2
   106   135   134    1
   107   171   173   ar
   108   171   170   ar
   109    74    75   ar
   110    70    71    1
   111    70    67    1
   112   100   101    1
   113   173   175   ar
   114    71    73   ar
   115   133   134    1
   116   169   166    1
   117   169   170    1
   118   166   165    1
   119    16    14   am
   120   139   138   ar
   121   170   172   ar
   122    66    67    1
   123     3     4    2
   124   134   137    1
   125    75    73   ar
   126    75    77   ar
   127   140   138   ar
   128    67    68    1
   129   138   137    1
   130    73    76   ar
   131    68    69    2
   132   101   102    1
   133   175   176    1
   134   175   174   ar
   135    14    13    1
   136    14    15    2
   137    45    44    1
   138    13    10    1
   139    77    79   ar
   140   165   159   am
   141     9    10    1
   142    12    11    2
   143   172   174   ar
   144    76    78   ar
   145    54    52   am
   146   160   159    2
   147   102   103    2
   148    10    11    1
   149   159   158    1
   150    79    78   ar
   151    44    43   ar
   152    44    42   ar
   153    11    17   am
   154    43    41   ar
   155    52    53    2
   156    52    51    1
   157   103   104    1
   158   103   105    1
   159    42    40   ar
   160    21    18    1
   161    21    22    1
   162   158   157    1
   163   158   161    1
   164    41    39   ar
   165    25    23   ar
   166    17    18    1
   167    51    50    1
   168    19    20    2
   169    19    18    1
   170   163   162    2
   171    33    31   am
   172    22    23    1
   173    40    39   ar
   174   161   162    1
   175    39    38    1
   176    23    24   ar
   177   162   164   am
   178    50    47    1
   179    31    32    2
   180    31    30    1
   181    30    27    1
   182    47    48    1
   183    47    46    1
   184    38    35    1
   185    49    48    2
   186    37    36    2
   187    36    35    1
   188    35    34    1
   189    29    28    2
   190    27    26    1
   191    27    28    1
