@<TRIPOS>MOLECULE
tmp/3od1A00.pdb
 95 91 0 0 0
SMALL
GASTEIGER

@<TRIPOS>ATOM
      1  N         73.5790   10.0790   24.6400 N.3   104  ARG104     -0.1245
      2  CA        74.0090    8.7330   25.0120 C.3   104  ARG104      0.1563
      3  C         73.0970    7.6930   24.3680 C.2   104  ARG104      0.2260
      4  O         71.9430    7.9780   24.0580 O.2   104  ARG104     -0.2867
      5  CB        73.9420    8.5460   26.5210 C.3   104  ARG104      0.0307
      6  CG        74.7860    9.5290   27.3160 C.3   104  ARG104      0.0489
      7  CD        76.2600    9.1660   27.2300 C.3   104  ARG104      0.2205
      8  NE        77.0850   10.0610   28.0440 N.pl3 104  ARG104     -0.0865
      9  CZ        77.6490   11.1650   27.5870 C.cat 104  ARG104      0.5346
     10  NH1       77.4560   11.5290   26.3200 N.pl3 104  ARG104      0.1354
     11  NH2       78.3880   11.9120   28.3900 N.pl3 104  ARG104      0.1354
     12  N         71.1590   15.4280   27.0600 N.3   113  PHE113     -0.1241
     13  CA        71.2350   16.4000   28.1460 C.3   113  PHE113      0.1605
     14  C         72.1960   17.4860   27.7900 C.2   113  PHE113      0.2264
     15  O         73.0990   17.2780   26.9800 O.2   113  PHE113     -0.2867
     16  CB        71.6270   15.7510   29.4910 C.3   113  PHE113      0.0534
     17  CG        72.8290   14.8650   29.4190 C.ar  113  PHE113     -0.0203
     18  CD1       74.1080   15.4060   29.3850 C.ar  113  PHE113     -0.0042
     19  CD2       72.6880   13.4880   29.4150 C.ar  113  PHE113     -0.0042
     20  CE1       75.2190   14.5860   29.3310 C.ar  113  PHE113     -0.0003
     21  CE2       73.8020   12.6620   29.3680 C.ar  113  PHE113     -0.0003
     22  CZ        75.0650   13.2110   29.3190 C.ar  113  PHE113     -0.0000
     23  N         75.1270   20.2230   28.1640 N.3   115  GLN115     -0.1245
     24  CA        76.4500   20.2630   28.7910 C.3   115  GLN115      0.1566
     25  C         77.0760   21.6150   28.4660 C.2   115  GLN115      0.2260
     26  O         76.9040   22.1350   27.3660 O.2   115  GLN115     -0.2867
     27  CB        77.3450   19.1160   28.2890 C.3   115  GLN115      0.0367
     28  CG        78.7120   19.0400   28.9850 C.3   115  GLN115      0.0905
     29  CD        79.5390   17.8320   28.5520 C.2   115  GLN115      0.2608
     30  OE1       79.0860   16.6970   28.6510 O.2   115  GLN115     -0.2717
     31  NE2       80.7670   18.0780   28.0830 N.am  115  GLN115     -0.0878
     32  N         76.7420   11.5410   42.7830 N.3   274  VAL274     -0.1231
     33  CA        77.1820   11.5720   41.3930 C.3   274  VAL274      0.1678
     34  C         77.8900   12.8830   41.0720 C.2   274  VAL274      0.2434
     35  O         77.4570   13.9630   41.4860 O.2   274  VAL274     -0.2733
     36  CB        76.0240   11.3400   40.3950 C.3   274  VAL274      0.0265
     37  CG1       75.2170   10.1120   40.7970 C.3   274  VAL274      0.0020
     38  CG2       75.1340   12.5730   40.3030 C.3   274  VAL274      0.0020
     39  N         79.0040   12.7860   40.3390 N.am  275  PRO275     -0.2718
     40  CA        79.7030   13.9820   39.8780 C.3   275  PRO275      0.1535
     41  C         78.8070   14.7600   38.9260 C.2   275  PRO275      0.2598
     42  O         78.2150   14.1630   38.0330 O.2   275  PRO275     -0.2715
     43  CB        80.8750   13.4020   39.0920 C.3   275  PRO275      0.0310
     44  CG        80.3740   12.0670   38.6240 C.3   275  PRO275      0.0237
     45  CD        79.6090   11.5570   39.8020 C.3   275  PRO275      0.0939
     46  N         78.7200   16.0730   39.1020 N.am  276  LEU276     -0.1964
     47  CA        77.9840   16.8850   38.1590 C.3   276  LEU276      0.1728
     48  C         78.8950   17.5940   37.1580 C.2   276  LEU276      0.2616
     49  O         78.4160   18.2110   36.2120 O.2   276  LEU276     -0.2715
     50  CB        77.0680   17.8660   38.8870 C.3   276  LEU276      0.0311
     51  CG        77.6190   18.8270   39.9340 C.3   276  LEU276      0.0022
     52  CD1       78.2710   20.0100   39.2520 C.3   276  LEU276      0.0001
     53  CD2       76.4620   19.2940   40.8090 C.3   276  LEU276      0.0001
     54  N         80.2030   17.5050   37.3630 N.am  277  CYS277     -0.1954
     55  CA        81.1470   18.1220   36.4380 C.3   277  CYS277      0.1843
     56  C         82.4460   17.3550   36.4460 C.2   277  CYS277      0.2626
     57  O         82.7300   16.6140   37.3930 O.2   277  CYS277     -0.2714
     58  CB        81.3950   19.5980   36.7860 C.3   277  CYS277      0.0997
     59  SG        82.0620   19.8930   38.4490 S.3   277  CYS277     -0.0797
     60  N         83.2370   17.5060   35.3920 N.am  278  SER278     -0.1950
     61  CA        84.5620   16.8770   35.3670 C.3   278  SER278      0.1924
     62  C         85.4210   17.4970   34.2970 C.2   278  SER278      0.2314
     63  O         84.9300   18.2520   33.4540 O.2   278  SER278     -0.2863
     64  CB        84.4560   15.3770   35.1010 C.3   278  SER278      0.2116
     65  OG        83.9300   15.1410   33.7950 O.3   278  SER278     -0.2180
     66  N         83.7300   20.1360   31.6640 N.3   299  GLY299     -0.1210
     67  CA        82.3470   20.1060   31.2240 C.3   299  GLY299      0.1956
     68  C         81.4380   19.9990   32.4520 C.2   299  GLY299      0.2612
     69  O         81.7820   19.3200   33.4170 O.2   299  GLY299     -0.2717
     70  N         80.2950   20.6770   32.4210 N.am  300  VAL300     -0.1965
     71  CA        79.3230   20.6280   33.5240 C.3   300  VAL300      0.1727
     72  C         78.0060   20.0780   33.0020 C.2   300  VAL300      0.2616
     73  O         77.4840   20.5670   32.0020 O.2   300  VAL300     -0.2715
     74  CB        79.0290   22.0240   34.1180 C.3   300  VAL300      0.0290
     75  CG1       77.9080   21.9500   35.2020 C.3   300  VAL300      0.0023
     76  CG2       80.2930   22.6720   34.6670 C.3   300  VAL300      0.0023
     77  N         77.4600   19.0750   33.6800 N.am  301  ARG301     -0.1977
     78  CA        76.1440   18.5610   33.3170 C.3   301  ARG301      0.1597
     79  C         75.0190   19.4300   33.8680 C.2   301  ARG301      0.2287
     80  O         74.7590   19.4350   35.0670 O.2   301  ARG301     -0.2864
     81  CB        75.9770   17.1090   33.7610 C.3   301  ARG301      0.0334
     82  CG        76.5030   16.1540   32.7160 C.3   301  ARG301      0.0492
     83  CD        76.0080   14.7440   32.9080 C.3   301  ARG301      0.2205
     84  NE        74.5560   14.6090   32.8370 N.pl3 301  ARG301     -0.0865
     85  CZ        73.9490   13.4280   32.8870 C.cat 301  ARG301      0.5346
     86  NH1       72.6230   13.3340   32.8310 N.pl3 301  ARG301      0.1354
     87  NH2       74.6910   12.3310   32.9890 N.pl3 301  ARG301      0.1354
     88  N         72.0540   17.7270   35.8210 N.3   304  LEU304     -0.1245
     89  CA        72.4900   17.3900   37.1760 C.3   304  LEU304      0.1561
     90  C         72.6960   18.6390   38.0330 C.2   304  LEU304      0.2260
     91  O         72.4200   18.6270   39.2280 O.2   304  LEU304     -0.2867
     92  CB        73.7600   16.5510   37.1480 C.3   304  LEU304      0.0270
     93  CG        73.6440   15.2060   36.4410 C.3   304  LEU304      0.0019
     94  CD1       74.9560   14.4270   36.5900 C.3   304  LEU304      0.0001
     95  CD2       72.4720   14.4190   37.0150 C.3   304  LEU304      0.0001
@<TRIPOS>BOND
     1     4     3    2
     2     3     2    1
     3     1     2    1
     4     2     5    1
     5    10     9    1
     6     5     6    1
     7    15    14    2
     8    12    13    1
     9     7     6    1
    10     7     8    1
    11    26    25    2
    12     9     8    2
    13     9    11    1
    14    14    13    1
    15    31    29   am
    16    13    16    1
    17    23    24    1
    18    27    24    1
    19    27    28    1
    20    25    24    1
    21    29    30    2
    22    29    28    1
    23    22    20   ar
    24    22    21   ar
    25    20    18   ar
    26    21    19   ar
    27    18    17   ar
    28    19    17   ar
    29    17    16    1
    30    67    66    1
    31    67    68    1
    32    73    72    2
    33    70    68   am
    34    70    71    1
    35    68    69    2
    36    82    83    1
    37    82    81    1
    38    86    85    1
    39    84    85    2
    40    84    83    1
    41    85    87    1
    42    72    71    1
    43    72    77   am
    44    78    77    1
    45    78    81    1
    46    78    79    1
    47    63    62    2
    48    71    74    1
    49    65    64    1
    50    79    80    2
    51    74    76    1
    52    74    75    1
    53    62    61    1
    54    64    61    1
    55    61    60    1
    56    60    56   am
    57    88    89    1
    58    49    48    2
    59    55    56    1
    60    55    58    1
    61    55    54    1
    62    93    94    1
    63    93    95    1
    64    93    92    1
    65    56    57    2
    66    58    59    1
    67    92    89    1
    68    48    54   am
    69    48    47    1
    70    89    90    1
    71    90    91    2
    72    42    41    2
    73    47    50    1
    74    47    46    1
    75    44    43    1
    76    44    45    1
    77    50    51    1
    78    41    46   am
    79    41    40    1
    80    43    40    1
    81    52    51    1
    82    45    39    1
    83    40    39    1
    84    51    53    1
    85    38    36    1
    86    39    34   am
    87    36    37    1
    88    36    33    1
    89    34    33    1
    90    34    35    2
    91    33    32    1
