@<TRIPOS>MOLECULE
tmp/3od2A00.pdb
 92 85 0 0 0
SMALL
GASTEIGER

@<TRIPOS>ATOM
      1  N         -9.8260   40.0480   25.2020 N.3    16  LEU16      -0.1245
      2  CA        -8.6070   39.9930   25.9950 C.3    16  LEU16       0.1561
      3  C         -8.6520   38.8710   27.0230 C.2    16  LEU16       0.2260
      4  O         -7.6160   38.3260   27.3960 O.2    16  LEU16      -0.2867
      5  CB        -8.3800   41.3350   26.7110 C.3    16  LEU16       0.0270
      6  CG        -7.3580   41.3330   27.8550 C.3    16  LEU16       0.0019
      7  CD1       -5.9450   41.2970   27.3040 C.3    16  LEU16       0.0001
      8  CD2       -7.5610   42.5530   28.7060 C.3    16  LEU16       0.0001
      9  N         -8.5570   35.0720   25.1950 N.3    19  LEU19      -0.1231
     10  CA        -7.2330   34.8680   24.6260 C.3    19  LEU19       0.1693
     11  C         -6.1820   34.8040   25.7200 C.2    19  LEU19       0.2592
     12  O         -5.1860   34.1000   25.5800 O.2    19  LEU19      -0.2718
     13  CB        -6.8820   35.9940   23.6500 C.3    19  LEU19       0.0284
     14  CG        -7.8420   36.2280   22.4780 C.3    19  LEU19       0.0019
     15  CD1       -7.2400   37.2680   21.5510 C.3    19  LEU19       0.0001
     16  CD2       -8.0960   34.9310   21.7240 C.3    19  LEU19       0.0001
     17  N         -6.3940   35.5530   26.7990 N.am   20  SER20      -0.1952
     18  CA        -5.4550   35.5430   27.9150 C.3    20  SER20       0.1924
     19  C         -5.6200   34.2140   28.6140 C.2    20  SER20       0.2314
     20  O         -4.6620   33.6430   29.1460 O.2    20  SER20      -0.2863
     21  CB        -5.7530   36.6670   28.9060 C.3    20  SER20       0.2116
     22  OG        -5.3820   37.9210   28.3800 O.3    20  SER20      -0.2180
     23  N         -6.6140   31.3320   27.1770 N.3    22  ARG22      -0.1231
     24  CA        -5.9570   30.3500   26.3310 C.3    22  ARG22       0.1694
     25  C         -4.4350   30.3830   26.4870 C.2    22  ARG22       0.2591
     26  O         -3.7800   29.3480   26.4170 O.2    22  ARG22      -0.2718
     27  CB        -6.3420   30.5780   24.8760 C.3    22  ARG22       0.0321
     28  CG        -5.7090   29.5920   23.8850 C.3    22  ARG22       0.0489
     29  CD        -6.2950   29.7590   22.5020 C.3    22  ARG22       0.2205
     30  NE        -6.1110   31.0930   21.9580 N.pl3  22  ARG22      -0.0865
     31  CZ        -5.0710   31.5290   21.3250 C.cat  22  ARG22       0.5346
     32  NH1       -3.9480   30.7860   21.1630 N.pl3  22  ARG22       0.1354
     33  NH2       -4.9900   32.7480   20.8780 N.pl3  22  ARG22       0.1354
     34  N         -3.8790   31.5660   26.7210 N.am   23  ARG23      -0.1980
     35  CA        -2.4360   31.7130   26.8610 C.3    23  ARG23       0.1597
     36  C         -1.9090   31.6100   28.2970 C.2    23  ARG23       0.2287
     37  O         -0.7610   31.9740   28.5710 O.2    23  ARG23      -0.2864
     38  CB        -1.9930   33.0420   26.2420 C.3    23  ARG23       0.0334
     39  CG        -2.0680   33.1000   24.7180 C.3    23  ARG23       0.0492
     40  CD        -0.7530   32.6460   24.0850 C.3    23  ARG23       0.2205
     41  NE         0.4020   33.3860   24.6100 N.pl3  23  ARG23      -0.0865
     42  CZ         0.9750   34.4360   24.0180 C.cat  23  ARG23       0.5346
     43  NH1        2.0200   35.0360   24.5920 N.pl3  23  ARG23       0.1354
     44  NH2        0.5220   34.8720   22.8440 N.pl3  23  ARG23       0.1354
     45  N         -2.7210   33.3390   31.0420 N.3    25  TYR25      -0.1241
     46  CA        -2.7430   34.5350   31.8800 C.3    25  TYR25       0.1605
     47  C         -3.9710   34.4990   32.7800 C.2    25  TYR25       0.2264
     48  O         -5.0420   34.0830   32.3480 O.2    25  TYR25      -0.2867
     49  CB        -2.7930   35.8050   31.0280 C.3    25  TYR25       0.0534
     50  CG        -1.4640   36.2470   30.4680 C.ar   25  TYR25      -0.0201
     51  CD1       -0.8880   35.5950   29.3840 C.ar   25  TYR25      -0.0009
     52  CD2       -0.7860   37.3260   31.0220 C.ar   25  TYR25      -0.0009
     53  CE1        0.3350   36.0080   28.8610 C.ar   25  TYR25       0.0417
     54  CE2        0.4370   37.7490   30.5080 C.ar   25  TYR25       0.0417
     55  CZ         0.9920   37.0860   29.4280 C.ar   25  TYR25       0.1957
     56  OH         2.2010   37.5030   28.9240 O.3    25  TYR25      -0.2866
     57  N         -1.4280   40.6490   31.4740 N.3    31  ALA31      -0.1245
     58  CA        -1.7230   40.4490   30.0540 C.3    31  ALA31       0.1562
     59  C         -1.4790   41.7470   29.2910 C.2    31  ALA31       0.2260
     60  O         -0.7840   41.7620   28.2630 O.2    31  ALA31      -0.2867
     61  CB        -3.1680   39.9980   29.8540 C.3    31  ALA31       0.0290
     62  N          2.3670   43.2020   29.2530 N.3    34  ASP34      -0.1225
     63  CA         3.2570   42.5310   28.3260 C.3    34  ASP34       0.1805
     64  C          2.9570   42.9360   26.8890 C.2    34  ASP34       0.2597
     65  O          3.8780   43.2350   26.1200 O.2    34  ASP34      -0.2718
     66  CB         3.1610   41.0110   28.5060 C.3    34  ASP34       0.1424
     67  CG         3.8030   40.5430   29.8020 C.2    34  ASP34       0.3668
     68  OD1        4.5190   41.3630   30.4250 O.co2  34  ASP34      -0.2456
     69  OD2        3.6040   39.3690   30.1900 O.co2  34  ASP34      -0.2456
     70  N          1.6740   42.9520   26.5310 N.am   35  ILE35      -0.1980
     71  CA         1.2610   43.3450   25.1930 C.3    35  ILE35       0.1595
     72  C          1.8750   44.7040   24.9070 C.2    35  ILE35       0.2287
     73  O          2.4450   44.9490   23.8430 O.2    35  ILE35      -0.2864
     74  CB        -0.2610   43.4820   25.0950 C.3    35  ILE35       0.0276
     75  CG1       -0.9180   42.1510   25.4110 C.3    35  ILE35       0.0022
     76  CG2       -0.6570   43.9230   23.7050 C.3    35  ILE35       0.0022
     77  CD1       -2.4070   42.1520   25.2190 C.3    35  ILE35       0.0001
     78  N          5.8440   44.6330   24.6960 N.3    38  SER38      -0.1217
     79  CA         6.1290   43.9350   23.4590 C.3    38  SER38       0.1889
     80  C          5.9520   44.8920   22.2780 C.2    38  SER38       0.2288
     81  O          6.7360   44.8830   21.3280 O.2    38  SER38      -0.2866
     82  CB         5.1830   42.7450   23.3320 C.3    38  SER38       0.2089
     83  OG         5.1530   42.2710   22.0070 O.3    38  SER38      -0.2183
     84  N         10.6980   41.8430   10.9580 N.3   127  GLN127     -0.1245
     85  CA        11.5140   41.6190   12.1490 C.3   127  GLN127      0.1566
     86  C         12.8220   42.3760   11.9400 C.2   127  GLN127      0.2260
     87  O         13.7050   41.9300   11.2130 O.2   127  GLN127     -0.2867
     88  CB        11.7730   40.1160   12.3440 C.3   127  GLN127      0.0367
     89  CG        12.8420   39.7610   13.3920 C.3   127  GLN127      0.0905
     90  CD        13.0130   38.2530   13.5860 C.2   127  GLN127      0.2608
     91  OE1       12.8710   37.4690   12.6400 O.2   127  GLN127     -0.2717
     92  NE2       13.3340   37.8460   14.8110 N.am  127  GLN127     -0.0878
@<TRIPOS>BOND
     1    84    85    1
     2    87    86    2
     3    86    85    1
     4    85    88    1
     5    88    89    1
     6    91    90    2
     7    89    90    1
     8    90    92   am
     9    33    31    1
    10    32    31    1
    11    31    30    2
    12    81    80    2
    13    15    14    1
    14    16    14    1
    15    30    29    1
    16    83    82    1
    17    80    79    1
    18    14    13    1
    19    29    28    1
    20    44    42    1
    21    82    79    1
    22    79    78    1
    23    13    10    1
    24    76    74    1
    25    73    72    2
    26    28    27    1
    27    42    43    1
    28    42    41    2
    29    40    41    1
    30    40    39    1
    31    10     9    1
    32    10    11    1
    33    39    38    1
    34    27    24    1
    35    72    71    1
    36    74    71    1
    37    74    75    1
    38    71    70    1
    39     1     2    1
    40    77    75    1
    41    12    11    2
    42    11    17   am
    43     2     5    1
    44     2     3    1
    45    65    64    2
    46    38    35    1
    47    24    25    1
    48    24    23    1
    49    26    25    2
    50    25    34   am
    51    70    64   am
    52     5     6    1
    53    34    35    1
    54    17    18    1
    55    35    36    1
    56    64    63    1
    57     3     4    2
    58     7     6    1
    59     6     8    1
    60    18    19    1
    61    18    21    1
    62    60    59    2
    63    36    37    2
    64    63    66    1
    65    63    62    1
    66    22    21    1
    67    66    67    1
    68    19    20    2
    69    53    51   ar
    70    53    55   ar
    71    56    55    1
    72    59    58    1
    73    51    50   ar
    74    55    54   ar
    75    67    69   ar
    76    67    68   ar
    77    61    58    1
    78    58    57    1
    79    50    52   ar
    80    50    49    1
    81    54    52   ar
    82    49    46    1
    83    45    46    1
    84    46    47    1
    85    48    47    2
