@<TRIPOS>MOLECULE
tmp/3odgA00.pdb
 88 82 0 0 0
SMALL
GASTEIGER

@<TRIPOS>ATOM
      1  N        -26.2930  -27.0440   -3.4420 N.3   113  ALA113     -0.1231
      2  CA       -26.0900  -28.1030   -4.4160 C.3   113  ALA113      0.1694
      3  C        -27.4730  -28.5800   -4.8550 C.2   113  ALA113      0.2592
      4  O        -28.4250  -28.5490   -4.0450 O.2   113  ALA113     -0.2718
      5  CB       -25.3390  -29.2490   -3.7670 C.3   113  ALA113      0.0304
      6  N        -27.6330  -28.9730   -6.1130 N.am  114  ALA114     -0.1966
      7  CA       -28.9850  -29.3100   -6.5910 C.3   114  ALA114      0.1728
      8  C        -28.9530  -30.0520   -7.8920 C.2   114  ALA114      0.2616
      9  O        -27.9040  -30.2230   -8.4950 O.2   114  ALA114     -0.2715
     10  CB       -29.8280  -28.0590   -6.7460 C.3   114  ALA114      0.0334
     11  N        -30.1250  -30.4170   -8.3690 N.am  115  GLY115     -0.1955
     12  CA       -30.1950  -31.2510   -9.5720 C.3   115  GLY115      0.1869
     13  C        -30.5670  -30.3620  -10.7320 C.2   115  GLY115      0.2309
     14  O        -31.2910  -29.3800  -10.5550 O.2   115  GLY115     -0.2863
     15  N        -35.3710  -37.6680   -2.3810 N.3   192  PHE192     -0.1227
     16  CA       -35.2280  -37.0040   -3.6650 C.3   192  PHE192      0.1736
     17  C        -36.5740  -37.1280   -4.4130 C.2   192  PHE192      0.2595
     18  O        -37.4860  -37.7910   -3.9470 O.2   192  PHE192     -0.2718
     19  CB       -34.0840  -37.6450   -4.4870 C.3   192  PHE192      0.0547
     20  CG       -32.7040  -37.4190   -3.8820 C.ar  192  PHE192     -0.0202
     21  CD1      -32.0140  -36.2310   -4.1150 C.ar  192  PHE192     -0.0042
     22  CD2      -32.0960  -38.4230   -3.1220 C.ar  192  PHE192     -0.0042
     23  CE1      -30.7230  -36.0310   -3.5570 C.ar  192  PHE192     -0.0003
     24  CE2      -30.8240  -38.2390   -2.5870 C.ar  192  PHE192     -0.0003
     25  CZ       -30.1490  -37.0550   -2.7870 C.ar  192  PHE192     -0.0000
     26  N        -36.7060  -36.4200   -5.5270 N.am  193  GLU193     -0.1979
     27  CA       -37.9590  -36.3960   -6.3030 C.3   193  GLU193      0.1602
     28  C        -38.1970  -37.6780   -7.0920 C.2   193  GLU193      0.2287
     29  O        -37.2540  -38.3900   -7.4510 O.2   193  GLU193     -0.2864
     30  CB       -37.8590  -35.2380   -7.2970 C.3   193  GLU193      0.0415
     31  CG       -37.6430  -33.8500   -6.6130 C.3   193  GLU193      0.1163
     32  CD       -36.2220  -33.5670   -6.1360 C.2   193  GLU193      0.3649
     33  OE1      -35.2700  -34.1630   -6.6870 O.co2 193  GLU193     -0.2457
     34  OE2      -36.1150  -32.7140   -5.1970 O.co2 193  GLU193     -0.2457
     35  N        -33.5820  -28.0830   -9.3970 N.3   209  VAL209     -0.1231
     36  CA       -34.4580  -28.5100   -8.2800 C.3   209  VAL209      0.1692
     37  C        -33.6510  -28.8370   -7.0250 C.2   209  VAL209      0.2593
     38  O        -32.5840  -29.4460   -7.1330 O.2   209  VAL209     -0.2718
     39  CB       -35.2550  -29.7640   -8.6760 C.3   209  VAL209      0.0266
     40  CG1      -34.3420  -30.9040   -9.1990 C.3   209  VAL209      0.0020
     41  CG2      -36.0440  -30.2560   -7.4570 C.3   209  VAL209      0.0020
     42  N        -34.1140  -28.3860   -5.8540 N.am  210  GLY210     -0.1942
     43  CA       -33.3840  -28.6690   -4.6200 C.3   210  GLY210      0.2014
     44  C        -34.2320  -28.4940   -3.3740 C.2   210  GLY210      0.2638
     45  O        -35.4250  -28.1460   -3.4730 O.2   210  GLY210     -0.2714
     46  N        -33.6250  -28.7430   -2.2070 N.am  211  MET211     -0.1976
     47  CA       -34.3710  -28.7790   -0.9470 C.3   211  MET211      0.1605
     48  C        -34.1280  -27.5630   -0.0610 C.2   211  MET211      0.2287
     49  O        -34.5860  -27.5360    1.0760 O.2   211  MET211     -0.2864
     50  CB       -34.0250  -30.0560   -0.1630 C.3   211  MET211      0.0413
     51  CG       -34.3510  -31.3150   -0.9890 C.3   211  MET211      0.0598
     52  SD       -33.8940  -32.7460    0.0610 S.3   211  MET211     -0.1393
     53  CE       -33.7410  -34.0180   -1.2270 C.3   211  MET211      0.0692
     54  N        -25.2170  -31.1700   -9.0890 N.3   234  THR234     -0.1203
     55  CA       -24.5280  -32.4290   -8.7060 C.3   234  THR234      0.1994
     56  C        -25.0110  -33.6740   -9.4380 C.2   234  THR234      0.2617
     57  O        -24.4770  -34.7810   -9.2440 O.2   234  THR234     -0.2717
     58  CB       -24.6130  -32.6250   -7.2110 C.3   234  THR234      0.1784
     59  OG1      -25.9810  -32.7160   -6.8440 O.3   234  THR234     -0.2211
     60  CG2      -24.0570  -31.3460   -6.4850 C.3   234  THR234      0.0376
     61  N        -26.0350  -33.5150  -10.2630 N.am  235  ASN235     -0.1974
     62  CA       -26.6490  -34.6160  -10.9910 C.3   235  ASN235      0.1688
     63  C        -27.6710  -34.0430  -11.9240 C.2   235  ASN235      0.2292
     64  O        -28.2180  -32.9470  -11.6710 O.2   235  ASN235     -0.2864
     65  CB       -27.3620  -35.6250  -10.0400 C.3   235  ASN235      0.1181
     66  CG       -28.2770  -34.9380   -9.0170 C.2   235  ASN235      0.2629
     67  OD1      -27.8190  -34.4900   -7.9720 O.2   235  ASN235     -0.2716
     68  ND2      -29.5750  -34.8680   -9.3110 N.am  235  ASN235     -0.0877
     69  N        -31.5090  -34.3230  -12.7580 N.3   237  ALA237     -0.1245
     70  CA       -32.6200  -34.6770  -11.8530 C.3   237  ALA237      0.1562
     71  C        -33.1250  -36.0890  -12.1200 C.2   237  ALA237      0.2260
     72  O        -32.8810  -36.6910  -13.1840 O.2   237  ALA237     -0.2867
     73  CB       -33.7900  -33.6110  -12.0170 C.3   237  ALA237      0.0290
     74  N        -29.2420  -41.3890   -7.2040 N.3   245  LEU245     -0.1245
     75  CA       -29.1430  -40.2450   -6.3250 C.3   245  LEU245      0.1561
     76  C        -28.9540  -40.6460   -4.8720 C.2   245  LEU245      0.2260
     77  O        -29.6580  -41.5230   -4.3660 O.2   245  LEU245     -0.2867
     78  CB       -30.3720  -39.3010   -6.4670 C.3   245  LEU245      0.0270
     79  CG       -30.6410  -38.8430   -7.8960 C.3   245  LEU245      0.0019
     80  CD1      -31.7540  -37.7510   -7.8620 C.3   245  LEU245      0.0001
     81  CD2      -29.3850  -38.2860   -8.5640 C.3   245  LEU245      0.0001
     82  N        -24.1600  -36.7010   -4.4750 N.3   250  THR250     -0.1218
     83  CA       -24.2210  -35.2390   -4.4090 C.3   250  THR250      0.1862
     84  C        -22.8270  -34.7240   -4.1160 C.2   250  THR250      0.2287
     85  O        -22.3170  -33.8360   -4.8120 O.2   250  THR250     -0.2866
     86  CB       -25.1890  -34.7490   -3.2790 C.3   250  THR250      0.1770
     87  OG1      -26.5140  -35.1280   -3.6310 O.3   250  THR250     -0.2211
     88  CG2      -25.1200  -33.1730   -3.0530 C.3   250  THR250      0.0375
@<TRIPOS>BOND
     1    72    71    2
     2    69    70    1
     3    71    70    1
     4    73    70    1
     5    63    64    2
     6    63    62    1
     7    62    61    1
     8    62    65    1
     9    13    14    2
    10    13    12    1
    11    61    56   am
    12    65    66    1
    13    12    11    1
    14    56    57    2
    15    56    55    1
    16    35    36    1
    17    68    66   am
    18    40    39    1
    19    54    55    1
    20    66    67    2
    21    55    58    1
    22    39    36    1
    23    39    41    1
    24    81    79    1
    25     9     8    2
    26    11     8   am
    27    36    37    1
    28    79    80    1
    29    79    78    1
    30     8     7    1
    31    29    28    2
    32    30    31    1
    33    30    27    1
    34    58    59    1
    35    58    60    1
    36    74    75    1
    37    38    37    2
    38    28    27    1
    39    37    42   am
    40    10     7    1
    41    33    32   ar
    42    31    32    1
    43     7     6    1
    44    78    75    1
    45    75    76    1
    46    27    26    1
    47    32    34   ar
    48     6     3   am
    49    42    43    1
    50    26    17   am
    51    76    77    2
    52     3     2    1
    53     3     4    2
    54    85    84    2
    55    43    44    1
    56    19    20    1
    57    19    16    1
    58    82    83    1
    59     2     5    1
    60     2     1    1
    61    17    18    2
    62    17    16    1
    63    83    84    1
    64    83    86    1
    65    21    20   ar
    66    21    23   ar
    67    20    22   ar
    68    16    15    1
    69    87    86    1
    70    23    25   ar
    71    45    44    2
    72    44    46   am
    73    86    88    1
    74    22    24   ar
    75    25    24   ar
    76    46    47    1
    77    53    52    1
    78    51    50    1
    79    51    52    1
    80    47    50    1
    81    47    48    1
    82    48    49    2
