@<TRIPOS>MOLECULE
tmp/3odiG00.pdb
 176 170 0 0 0
SMALL
GASTEIGER

@<TRIPOS>ATOM
      1  N         20.5030   31.0890   41.2460 N.3    54  HIS54      -0.1226
      2  CA        21.4540   30.9180   40.1470 C.3    54  HIS54       0.1752
      3  C         20.7930   30.5250   38.8250 C.2    54  HIS54       0.2595
      4  O         21.3970   30.6760   37.7580 O.2    54  HIS54      -0.2718
      5  CB        22.5320   29.8920   40.5240 C.3    54  HIS54       0.0759
      6  CG        22.0030   28.5030   40.7170 C.ar   54  HIS54       0.0818
      7  ND1       21.4790   28.0640   41.9150 N.ar   54  HIS54      -0.2268
      8  CD2       21.9110   27.4580   39.8610 C.ar   54  HIS54       0.1154
      9  CE1       21.0880   26.8090   41.7880 C.ar   54  HIS54       0.1986
     10  NE2       21.3380   26.4160   40.5520 N.ar   54  HIS54      -0.2212
     11  N         19.5660   30.0080   38.9080 N.am   55  ARG55      -0.1980
     12  CA        18.8530   29.4650   37.7540 C.3    55  ARG55       0.1597
     13  C         17.3760   29.8730   37.7850 C.2    55  ARG55       0.2287
     14  O         16.6170   29.4410   38.6600 O.2    55  ARG55      -0.2864
     15  CB        18.9860   27.9380   37.7450 C.3    55  ARG55       0.0334
     16  CG        18.6440   27.2620   36.4300 C.3    55  ARG55       0.0492
     17  CD        19.1960   25.8350   36.3110 C.3    55  ARG55       0.2205
     18  NE        18.5480   25.0660   35.2470 N.pl3  55  ARG55      -0.0865
     19  CZ        17.4720   24.3020   35.4160 C.cat  55  ARG55       0.5346
     20  NH1       16.8980   24.1980   36.6060 N.pl3  55  ARG55       0.1354
     21  NH2       16.9600   23.6450   34.3880 N.pl3  55  ARG55       0.1354
     22  N         14.0200   30.2580   35.1430 N.3    57  ILE57      -0.1245
     23  CA        13.4390   29.9990   33.8280 C.3    57  ILE57       0.1561
     24  C         11.9940   30.4940   33.8280 C.2    57  ILE57       0.2260
     25  O         11.1380   29.9180   34.5110 O.2    57  ILE57      -0.2867
     26  CB        13.5310   28.4870   33.4560 C.3    57  ILE57       0.0252
     27  CG1       15.0010   28.0380   33.3760 C.3    57  ILE57       0.0019
     28  CG2       12.7800   28.1970   32.1480 C.3    57  ILE57       0.0019
     29  CD1       15.2040   26.5370   33.1840 C.3    57  ILE57       0.0001
     30  N          8.4980   28.6920   34.4140 N.3    60  PHE60      -0.1227
     31  CA         8.8260   27.3890   35.0070 C.3    60  PHE60       0.1736
     32  C          9.0350   27.4990   36.5180 C.2    60  PHE60       0.2595
     33  O          8.1460   27.1310   37.2980 O.2    60  PHE60      -0.2718
     34  CB        10.0400   26.7590   34.2910 C.3    60  PHE60       0.0547
     35  CG        10.5250   25.4520   34.8880 C.ar   60  PHE60      -0.0202
     36  CD1        9.6620   24.5920   35.5590 C.ar   60  PHE60      -0.0042
     37  CD2       11.8590   25.0770   34.7460 C.ar   60  PHE60      -0.0042
     38  CE1       10.1260   23.3920   36.0970 C.ar   60  PHE60      -0.0003
     39  CE2       12.3320   23.8800   35.2800 C.ar   60  PHE60      -0.0003
     40  CZ        11.4640   23.0370   35.9530 C.ar   60  PHE60      -0.0000
     41  N         10.2010   27.9980   36.9240 N.am   61  MET61      -0.1979
     42  CA        10.5430   28.1360   38.3390 C.3    61  MET61       0.1605
     43  C         11.7410   29.0580   38.5550 C.2    61  MET61       0.2287
     44  O         12.4520   29.3940   37.6070 O.2    61  MET61      -0.2864
     45  CB        10.8270   26.7630   38.9740 C.3    61  MET61       0.0413
     46  CG        11.9510   25.9540   38.3020 C.3    61  MET61       0.0598
     47  SD        13.6180   26.4460   38.8210 S.3    61  MET61      -0.1393
     48  CE        14.4090   26.7260   37.2290 C.3    61  MET61       0.0692
     49  N         15.1930   28.8240   40.8880 N.3    63  GLN63      -0.1245
     50  CA        16.0110   27.9050   41.6970 C.3    63  GLN63       0.1566
     51  C         17.0520   28.6560   42.5220 C.2    63  GLN63       0.2260
     52  O         17.7630   29.5160   41.9980 O.2    63  GLN63      -0.2867
     53  CB        16.6920   26.8580   40.8110 C.3    63  GLN63       0.0367
     54  CG        17.5290   25.7930   41.5440 C.3    63  GLN63       0.0905
     55  CD        18.1600   24.7990   40.5780 C.2    63  GLN63       0.2608
     56  OE1       17.8640   24.8250   39.3840 O.2    63  GLN63      -0.2717
     57  NE2       19.0160   23.9150   41.0920 N.am   63  GLN63      -0.0878
     58  N         26.0590   28.1960   42.2260 N.3    71  ASN71      -0.1225
     59  CA        25.8770   27.8490   40.8140 C.3    71  ASN71       0.1785
     60  C         25.2080   26.5010   40.5360 C.2    71  ASN71       0.2598
     61  O         25.1340   26.0760   39.3800 O.2    71  ASN71      -0.2718
     62  CB        27.2240   27.9200   40.0840 C.3    71  ASN71       0.1169
     63  CG        28.2730   27.0100   40.7040 C.2    71  ASN71       0.2627
     64  OD1       27.9490   25.9840   41.3230 O.2    71  ASN71      -0.2716
     65  ND2       29.5420   27.3840   40.5430 N.am   71  ASN71      -0.0877
     66  N         24.7430   25.8290   41.5890 N.am   72  GLY72      -0.1942
     67  CA        24.0840   24.5390   41.4580 C.3    72  GLY72       0.2014
     68  C         24.8810   23.3430   41.9590 C.2    72  GLY72       0.2639
     69  O         24.3180   22.2740   42.1750 O.2    72  GLY72      -0.2714
     70  N         26.1810   23.5300   42.1690 N.am   73  THR73      -0.1950
     71  CA        27.0790   22.4400   42.5670 C.3    73  THR73       0.1897
     72  C         27.2880   22.3130   44.0840 C.2    73  THR73       0.2313
     73  O         27.9740   21.3950   44.5510 O.2    73  THR73      -0.2863
     74  CB        28.4490   22.6020   41.8780 C.3    73  THR73       0.1794
     75  OG1       29.0580   23.8280   42.3020 O.3    73  THR73      -0.2208
     76  CG2       28.2840   22.7810   40.3750 C.3    73  THR73       0.0378
     77  N         15.1380   20.8980   44.9550 N.3   101  ALA101     -0.1231
     78  CA        16.0230   20.5200   43.8670 C.3   101  ALA101      0.1694
     79  C         16.8510   19.3310   44.3590 C.2   101  ALA101      0.2592
     80  O         17.0580   19.1730   45.5660 O.2   101  ALA101     -0.2718
     81  CB        16.9300   21.6870   43.4940 C.3   101  ALA101      0.0304
     82  N         17.3130   18.4980   43.4360 N.am  102  ASN102     -0.1960
     83  CA        18.1850   17.3730   43.7800 C.3   102  ASN102      0.1819
     84  C         19.0340   16.9320   42.5820 C.2   102  ASN102      0.2621
     85  O         18.9770   17.5480   41.5160 O.2   102  ASN102     -0.2715
     86  CB        17.3650   16.1890   44.3240 C.3   102  ASN102      0.1195
     87  CG        16.3780   15.6410   43.3120 C.2   102  ASN102      0.2630
     88  OD1       16.7350   15.3670   42.1630 O.2   102  ASN102     -0.2716
     89  ND2       15.1240   15.4710   43.7360 N.am  102  ASN102     -0.0877
     90  N         19.8130   15.8670   42.7690 N.am  103  ALA103     -0.1963
     91  CA        20.5990   15.2630   41.6950 C.3   103  ALA103      0.1728
     92  C         20.2950   13.7640   41.6220 C.2   103  ALA103      0.2616
     93  O         21.2030   12.9250   41.6070 O.2   103  ALA103     -0.2715
     94  CB        22.0870   15.5110   41.9230 C.3   103  ALA103      0.0334
     95  N         19.0030   13.4360   41.5860 N.am  104  GLY104     -0.1955
     96  CA        18.5570   12.0550   41.6550 C.3   104  GLY104      0.1869
     97  C         17.9980   11.6890   43.0190 C.2   104  GLY104      0.2309
     98  O         17.9650   12.5340   43.9210 O.2   104  GLY104     -0.2863
     99  N         19.2250   12.7820   47.2800 N.3   107  THR107     -0.1218
    100  CA        20.3760   13.6850   47.2030 C.3   107  THR107      0.1862
    101  C         20.0120   15.1100   47.6320 C.2   107  THR107      0.2287
    102  O         20.6160   16.0770   47.1500 O.2   107  THR107     -0.2866
    103  CB        20.9830   13.7260   45.7700 C.3   107  THR107      0.1770
    104  OG1       19.9610   14.0440   44.8130 O.3   107  THR107     -0.2211
    105  CG2       21.5070   12.3560   45.3270 C.3   107  THR107      0.0375
    106  N         19.2780   23.1110   48.1470 N.3   111  GLN111     -0.1245
    107  CA        18.7190   23.7320   46.9500 C.3   111  GLN111      0.1566
    108  C         17.2280   23.4340   46.8000 C.2   111  GLN111      0.2260
    109  O         16.7700   22.3120   47.0470 O.2   111  GLN111     -0.2867
    110  CB        19.4880   23.3050   45.6990 C.3   111  GLN111      0.0367
    111  CG        20.8470   23.9820   45.5420 C.3   111  GLN111      0.0905
    112  CD        21.4970   23.6360   44.2180 C.2   111  GLN111      0.2608
    113  OE1       20.9460   23.9330   43.1500 O.2   111  GLN111     -0.2717
    114  NE2       22.6550   22.9910   44.2760 N.am  111  GLN111     -0.0878
    115  N         13.3430   25.0530   44.6710 N.3   113  PHE113     -0.1241
    116  CA        12.7800   25.8990   43.6230 C.3   113  PHE113      0.1605
    117  C         11.3700   26.3900   43.9510 C.2   113  PHE113      0.2264
    118  O         10.6080   25.7020   44.6340 O.2   113  PHE113     -0.2867
    119  CB        12.8520   25.2310   42.2350 C.3   113  PHE113      0.0534
    120  CG        12.1220   23.9100   42.1290 C.ar  113  PHE113     -0.0203
    121  CD1       12.6910   22.7330   42.6270 C.ar  113  PHE113     -0.0042
    122  CD2       10.8880   23.8370   41.4930 C.ar  113  PHE113     -0.0042
    123  CE1       12.0330   21.5060   42.5130 C.ar  113  PHE113     -0.0003
    124  CE2       10.2140   22.6140   41.3670 C.ar  113  PHE113     -0.0003
    125  CZ        10.7900   21.4440   41.8790 C.ar  113  PHE113     -0.0000
    126  N          5.0920   16.9920   35.8840 N.3   121  TRP121     -0.1227
    127  CA         6.1120   16.0340   35.4460 C.3   121  TRP121      0.1737
    128  C          7.1890   15.7880   36.5090 C.2   121  TRP121      0.2595
    129  O          7.9610   14.8440   36.3990 O.2   121  TRP121     -0.2718
    130  CB         6.7460   16.4780   34.1170 C.3   121  TRP121      0.0564
    131  CG         7.4670   17.7940   34.1920 C.ar  121  TRP121      0.0003
    132  CD1        8.7910   17.9830   34.4450 C.ar  121  TRP121      0.0946
    133  CD2        6.9020   19.1020   34.0190 C.ar  121  TRP121      0.0152
    134  NE1        9.0890   19.3240   34.4460 N.ar  121  TRP121     -0.2442
    135  CE2        7.9480   20.0350   34.1850 C.ar  121  TRP121      0.0810
    136  CE3        5.6130   19.5830   33.7430 C.ar  121  TRP121      0.0012
    137  CZ2        7.7520   21.4180   34.0770 C.ar  121  TRP121      0.0191
    138  CZ3        5.4180   20.9590   33.6400 C.ar  121  TRP121      0.0001
    139  CH2        6.4860   21.8600   33.8080 C.ar  121  TRP121      0.0015
    140  N          7.2230   16.6380   37.5350 N.am  122  LEU122     -0.1980
    141  CA         8.1870   16.5150   38.6280 C.3   122  LEU122      0.1596
    142  C          7.6760   15.7440   39.8500 C.2   122  LEU122      0.2287
    143  O          8.4580   15.4380   40.7610 O.2   122  LEU122     -0.2864
    144  CB         8.6880   17.8980   39.0550 C.3   122  LEU122      0.0297
    145  CG         9.4500   18.7080   37.9980 C.3   122  LEU122      0.0022
    146  CD1        9.8680   20.0590   38.5550 C.3   122  LEU122      0.0001
    147  CD2       10.6600   17.9400   37.4400 C.3   122  LEU122      0.0001
    148  N         10.6770   15.0230   43.1580 N.3   126  HIS126     -0.1241
    149  CA        11.0660   16.1820   43.9530 C.3   126  HIS126      0.1621
    150  C         10.0950   16.3810   45.1070 C.2   126  HIS126      0.2264
    151  O          8.8660   16.4180   44.9100 O.2   126  HIS126     -0.2867
    152  CB        11.1370   17.4310   43.0690 C.3   126  HIS126      0.0745
    153  CG        12.1810   17.3330   42.0050 C.ar  126  HIS126      0.0817
    154  ND1       13.4800   17.7470   42.2010 N.ar  126  HIS126     -0.2268
    155  CD2       12.1330   16.8150   40.7550 C.ar  126  HIS126      0.1154
    156  CE1       14.1840   17.5090   41.1080 C.ar  126  HIS126      0.1986
    157  NE2       13.3900   16.9420   40.2170 N.ar  126  HIS126     -0.2212
    158  N         15.5630   31.4590   28.9980 N.3   148  ARG148     -0.1231
    159  CA        15.1810   30.0990   28.6160 C.3   148  ARG148      0.1694
    160  C         16.2020   29.0400   29.0510 C.2   148  ARG148      0.2592
    161  O         15.8280   27.9310   29.4460 O.2   148  ARG148     -0.2718
    162  CB        14.9020   30.0040   27.1090 C.3   148  ARG148      0.0321
    163  CG        13.4380   30.2900   26.7160 C.3   148  ARG148      0.0489
    164  CD        12.4880   29.0700   26.7660 C.3   148  ARG148      0.2205
    165  NE        12.8060   28.1590   27.8730 N.pl3 148  ARG148     -0.0865
    166  CZ        12.7830   26.8270   27.8070 C.cat 148  ARG148      0.5346
    167  NH1       12.4310   26.1990   26.6840 N.pl3 148  ARG148      0.1354
    168  NH2       13.1120   26.1170   28.8780 N.pl3 148  ARG148      0.1354
    169  N         17.4820   29.3950   28.9950 N.am  149  ASN149     -0.1974
    170  CA        18.5550   28.4920   29.4000 C.3   149  ASN149      0.1688
    171  C         18.7270   28.3920   30.9180 C.2   149  ASN149      0.2292
    172  O         19.2650   27.4040   31.4130 O.2   149  ASN149     -0.2864
    173  CB        19.8770   28.8970   28.7310 C.3   149  ASN149      0.1181
    174  CG        20.7770   29.7020   29.6520 C.2   149  ASN149      0.2629
    175  OD1       20.4950   30.8650   29.9590 O.2   149  ASN149     -0.2716
    176  ND2       21.8600   29.0790   30.1130 N.am  149  ASN149     -0.0877
@<TRIPOS>BOND
     1   167   166    1
     2   163   164    1
     3   163   162    1
     4   164   165    1
     5   162   159    1
     6   166   165    2
     7   166   168    1
     8   159   158    1
     9   159   160    1
    10   173   170    1
    11   173   174    1
    12   169   160   am
    13   169   170    1
    14   160   161    2
    15   170   171    1
    16   174   175    2
    17   174   176   am
    18   171   172    2
    19    28    26    1
    20    29    27    1
    21    27    26    1
    22    26    23    1
    23   138   136   ar
    24   138   139   ar
    25   136   133   ar
    26   139   137   ar
    27    23    24    1
    28    23    22    1
    29    24    25    2
    30   133   135   ar
    31   133   131   ar
    32   137   135   ar
    33   130   131    1
    34   130   127    1
    35   135   134   ar
    36   131   132   ar
    37    34    35    1
    38    34    31    1
    39    21    19    1
    40    30    31    1
    41   132   134   ar
    42    37    35   ar
    43    37    39   ar
    44    35    36   ar
    45    31    32    1
    46    18    19    2
    47    18    17    1
    48    39    40   ar
    49    19    20    1
    50   127   126    1
    51   127   128    1
    52    36    38   ar
    53    40    38   ar
    54    17    16    1
    55   129   128    2
    56    16    15    1
    57   128   140   am
    58    32    41   am
    59    32    33    2
    60    41    42    1
    61    48    47    1
    62   147   145    1
    63   140   141    1
    64    44    43    2
    65    15    12    1
    66    12    13    1
    67    12    11    1
    68     4     3    2
    69    13    14    2
    70   145   146    1
    71   145   144    1
    72    46    47    1
    73    46    45    1
    74    42    43    1
    75    42    45    1
    76   141   144    1
    77   141   142    1
    78     3    11   am
    79     3     2    1
    80    61    60    2
    81    56    55    2
    82   142   143    2
    83     8    10   ar
    84     8     6   ar
    85    62    63    1
    86    62    59    1
    87     2     5    1
    88     2     1    1
    89   157   155   ar
    90   157   156   ar
    91    76    74    1
    92     5     6    1
    93    60    59    1
    94    60    66   am
    95    65    63   am
    96    10     9   ar
    97    55    57   am
    98    55    54    1
    99    63    64    2
   100     6     7   ar
   101   155   153   ar
   102    53    54    1
   103    53    50    1
   104    59    58    1
   105    49    50    1
   106   156   154   ar
   107   124   122   ar
   108   124   125   ar
   109    67    66    1
   110    67    68    1
   111   122   120   ar
   112    85    84    2
   113    95    92   am
   114    95    96    1
   115    93    92    2
   116    92    91    1
   117    96    97    1
   118    91    94    1
   119    91    90    1
   120    50    51    1
   121     9     7   ar
   122    74    75    1
   123    74    71    1
   124   125   123   ar
   125    68    70   am
   126    68    69    2
   127    52    51    2
   128   153   154   ar
   129   153   152    1
   130   120   119    1
   131   120   121   ar
   132    88    87    2
   133    70    71    1
   134   119   116    1
   135   123   121   ar
   136    71    72    1
   137    84    90   am
   138    84    83    1
   139    97    98    2
   140   152   149    1
   141   113   112    2
   142   148   149    1
   143    87    89   am
   144    87    86    1
   145    82    83    1
   146    82    79   am
   147    81    78    1
   148   116   117    1
   149   116   115    1
   150    83    86    1
   151    78    79    1
   152    78    77    1
   153   117   118    2
   154   149   150    1
   155    72    73    2
   156   112   114   am
   157   112   111    1
   158    79    80    2
   159   104   103    1
   160   151   150    2
   161   105   103    1
   162   111   110    1
   163   110   107    1
   164   103   100    1
   165   108   107    1
   166   108   109    2
   167   107   106    1
   168   102   101    2
   169   100    99    1
   170   100   101    1
