@<TRIPOS>MOLECULE
tmp/3odkA01.pdb
 110 103 0 0 0
SMALL
GASTEIGER

@<TRIPOS>ATOM
      1  N         32.3400  -21.7440    7.7810 N.3    41  HIS41      -0.1241
      2  CA        31.8920  -21.1880    9.0600 C.3    41  HIS41       0.1621
      3  C         31.2270  -19.8630    8.9050 C.2    41  HIS41       0.2264
      4  O         31.3860  -19.1930    7.8920 O.2    41  HIS41      -0.2867
      5  CB        33.0260  -21.1100   10.1220 C.3    41  HIS41       0.0745
      6  CG        33.9550  -19.9460    9.9640 C.ar   41  HIS41       0.0817
      7  ND1       34.5100  -19.2940   11.0410 N.ar   41  HIS41      -0.2268
      8  CD2       34.4640  -19.3390    8.8630 C.ar   41  HIS41       0.1154
      9  CE1       35.2900  -18.3100   10.6140 C.ar   41  HIS41       0.1986
     10  NE2       35.2690  -18.3070    9.2960 N.ar   41  HIS41      -0.2212
     11  N         30.9970  -16.5110   11.1760 N.3    43  LEU43      -0.1245
     12  CA        31.6180  -15.8700   12.3290 C.3    43  LEU43       0.1561
     13  C         30.8370  -14.5710   12.6790 C.2    43  LEU43       0.2260
     14  O         30.4750  -13.7890   11.7850 O.2    43  LEU43      -0.2867
     15  CB        33.0610  -15.5420   11.9730 C.3    43  LEU43       0.0270
     16  CG        33.8150  -14.8010   13.0490 C.3    43  LEU43       0.0019
     17  CD1       34.0150  -15.6890   14.2490 C.3    43  LEU43       0.0001
     18  CD2       35.1750  -14.2940   12.5530 C.3    43  LEU43       0.0001
     19  N         31.6030  -11.4770   15.0990 N.3    45  LYS45      -0.1245
     20  CA        32.5720  -10.8590   16.0060 C.3    45  LYS45       0.1561
     21  C         31.9040  -10.0010   17.0810 C.2    45  LYS45       0.2260
     22  O         30.7020   -9.6690   16.9670 O.2    45  LYS45      -0.2867
     23  CB        33.5690   -9.9820   15.2490 C.3    45  LYS45       0.0271
     24  CG        34.3350  -10.6600   14.1520 C.3    45  LYS45       0.0035
     25  CD        35.5810   -9.8520   13.8180 C.3    45  LYS45       0.0206
     26  CE        36.4900  -10.5900   12.8570 C.3    45  LYS45       0.1093
     27  NZ        37.6440   -9.7790   12.4710 N.3    45  LYS45      -0.1314
     28  N         40.2460   -8.6700   16.3000 N.3    51  ARG51      -0.1245
     29  CA        40.2270   -7.5010   15.4520 C.3    51  ARG51       0.1563
     30  C         38.7490   -7.2070   15.2840 C.2    51  ARG51       0.2260
     31  O         38.1350   -7.7800   14.3880 O.2    51  ARG51      -0.2867
     32  CB        40.8840   -7.8100   14.0950 C.3    51  ARG51       0.0307
     33  CG        42.1090   -8.7070   14.2290 C.3    51  ARG51       0.0489
     34  CD        42.6860   -9.2120   12.8940 C.3    51  ARG51       0.2205
     35  NE        43.6340  -10.3230   13.1110 N.pl3  51  ARG51      -0.0865
     36  CZ        44.9720  -10.2440   13.0540 C.cat  51  ARG51       0.5346
     37  NH1       45.5710   -9.1030   12.7680 N.pl3  51  ARG51       0.1354
     38  NH2       45.7180  -11.3230   13.2790 N.pl3  51  ARG51       0.1354
     39  N         31.1990  -12.3350    9.6080 N.3    94  ASP94      -0.1225
     40  CA        32.2150  -11.2880    9.7510 C.3    94  ASP94       0.1805
     41  C         33.6100  -11.7450    9.2940 C.2    94  ASP94       0.2598
     42  O         34.5670  -10.9880    9.3390 O.2    94  ASP94      -0.2718
     43  CB        32.2070  -10.7350   11.1880 C.3    94  ASP94       0.1424
     44  CG        30.9580   -9.8850   11.4820 C.2    94  ASP94       0.3668
     45  OD1       30.6900   -8.9350   10.6910 O.co2  94  ASP94      -0.2456
     46  OD2       30.2600  -10.1330   12.5020 O.co2  94  ASP94      -0.2456
     47  N         33.7310  -12.9680    8.8030 N.am   95  CYS95      -0.1956
     48  CA        34.9660  -13.3490    8.1360 C.3    95  CYS95       0.1843
     49  C         34.8630  -13.0610    6.6570 C.2    95  CYS95       0.2626
     50  O         33.7680  -13.0790    6.1040 O.2    95  CYS95      -0.2714
     51  CB        35.2360  -14.8230    8.3050 C.3    95  CYS95       0.0997
     52  SG        36.7360  -15.2790    7.4520 S.3    95  CYS95      -0.0797
     53  N         35.9970  -12.8040    6.0040 N.am   96  SER96      -0.1950
     54  CA        35.9860  -12.5520    4.5570 C.3    96  SER96       0.1924
     55  C         35.6890  -13.8150    3.7260 C.2    96  SER96       0.2314
     56  O         35.2380  -13.6870    2.5840 O.2    96  SER96      -0.2863
     57  CB        37.2940  -11.9270    4.0990 C.3    96  SER96       0.2116
     58  OG        38.3450  -12.8720    4.2350 O.3    96  SER96      -0.2180
     59  N         36.3690  -22.4420    4.3560 N.3   104  LEU104     -0.1245
     60  CA        37.7490  -22.1760    4.7950 C.3   104  LEU104      0.1561
     61  C         38.7350  -23.1510    4.2000 C.2   104  LEU104      0.2260
     62  O         39.9070  -23.1350    4.5720 O.2   104  LEU104     -0.2867
     63  CB        37.9110  -22.2090    6.3240 C.3   104  LEU104      0.0270
     64  CG        37.2260  -21.1320    7.1690 C.3   104  LEU104      0.0019
     65  CD1       37.4460  -21.4230    8.6230 C.3   104  LEU104      0.0001
     66  CD2       37.6840  -19.7390    6.8400 C.3   104  LEU104      0.0001
     67  N         44.5180  -24.2690   12.7470 N.3   112  MET112     -0.1230
     68  CA        43.5850  -23.2500   13.2540 C.3   112  MET112      0.1702
     69  C         43.6890  -23.1420   14.7550 C.2   112  MET112      0.2592
     70  O         44.3070  -23.9990   15.3830 O.2   112  MET112     -0.2718
     71  CB        42.1310  -23.6230   12.9320 C.3   112  MET112      0.0401
     72  CG        41.8030  -23.7440   11.4420 C.3   112  MET112      0.0596
     73  SD        41.8080  -22.1450   10.6200 S.3   112  MET112     -0.1393
     74  CE        41.5940  -22.6340    8.9070 C.3   112  MET112      0.0692
     75  N         43.0490  -22.1260   15.3310 N.am  113  GLN113     -0.1979
     76  CA        42.9560  -22.0250   16.7800 C.3   113  GLN113      0.1601
     77  C         42.2470  -23.2340   17.3810 C.2   113  GLN113      0.2287
     78  O         41.2940  -23.7430   16.8030 O.2   113  GLN113     -0.2864
     79  CB        42.1810  -20.8020   17.1780 C.3   113  GLN113      0.0394
     80  CG        42.8510  -19.4950   16.8930 C.3   113  GLN113      0.0908
     81  CD        41.8670  -18.3440   17.0720 C.2   113  GLN113      0.2608
     82  OE1       42.2010  -17.1790   16.8950 O.2   113  GLN113     -0.2717
     83  NE2       40.6440  -18.6780   17.4170 N.am  113  GLN113     -0.0878
     84  N         38.3910  -24.1450   17.6490 N.3   116  PHE116     -0.1241
     85  CA        37.8110  -24.2660   16.3220 C.3   116  PHE116      0.1605
     86  C         38.2320  -25.6200   15.7580 C.2   116  PHE116      0.2264
     87  O         37.4460  -26.3310   15.1510 O.2   116  PHE116     -0.2867
     88  CB        38.3020  -23.1190   15.4470 C.3   116  PHE116      0.0534
     89  CG        37.6070  -22.9980   14.1180 C.ar  116  PHE116     -0.0203
     90  CD1       36.5060  -22.1650   13.9650 C.ar  116  PHE116     -0.0042
     91  CD2       38.0800  -23.6760   12.9980 C.ar  116  PHE116     -0.0042
     92  CE1       35.8650  -22.0440   12.7130 C.ar  116  PHE116     -0.0003
     93  CE2       37.4440  -23.5590   11.7530 C.ar  116  PHE116     -0.0003
     94  CZ        36.3570  -22.7410   11.6150 C.ar  116  PHE116     -0.0000
     95  N         38.3840  -14.8000   18.3380 N.3   136  SER136     -0.1217
     96  CA        38.0230  -14.0300   17.1620 C.3   136  SER136      0.1889
     97  C         36.6130  -13.6240   17.2780 C.2   136  SER136      0.2288
     98  O         36.2590  -12.4880   16.9950 O.2   136  SER136     -0.2866
     99  CB        38.1980  -14.8590   15.9110 C.3   136  SER136      0.2089
    100  OG        39.4660  -15.4880   15.9630 O.3   136  SER136     -0.2183
    101  N         31.6470  -18.7130   16.3310 N.3   139  HIS139     -0.1241
    102  CA        31.4790  -19.4520   15.0790 C.3   139  HIS139      0.1621
    103  C         30.3230  -20.4620   15.0860 C.2   139  HIS139      0.2264
    104  O         29.9370  -21.0210   16.1380 O.2   139  HIS139     -0.2867
    105  CB        32.7030  -20.2850   14.7810 C.3   139  HIS139      0.0745
    106  CG        34.0000  -19.5640   14.9450 C.ar  139  HIS139      0.0817
    107  ND1       34.8330  -19.3030   13.8820 N.ar  139  HIS139     -0.2268
    108  CD2       34.6340  -19.0940   16.0470 C.ar  139  HIS139      0.1154
    109  CE1       35.9280  -18.7000   14.3190 C.ar  139  HIS139      0.1986
    110  NE2       35.8340  -18.5700   15.6320 N.ar  139  HIS139     -0.2212
@<TRIPOS>BOND
     1    56    55    2
     2    55    54    1
     3    57    58    1
     4    57    54    1
     5    61    62    2
     6    61    60    1
     7    59    60    1
     8    54    53    1
     9    60    63    1
    10    53    49   am
    11    50    49    2
    12    63    64    1
    13    49    48    1
    14    66    64    1
    15    64    65    1
    16    52    51    1
    17     1     2    1
    18     4     3    2
    19    48    51    1
    20    48    47    1
    21    47    41   am
    22     8    10   ar
    23     8     6   ar
    24     3     2    1
    25    74    73    1
    26     2     5    1
    27    41    42    2
    28    41    40    1
    29    10     9   ar
    30    39    40    1
    31    40    43    1
    32     6     5    1
    33     6     7   ar
    34     9     7   ar
    35    73    72    1
    36    45    44   ar
    37    11    12    1
    38    43    44    1
    39    72    71    1
    40    44    46   ar
    41    94    93   ar
    42    94    92   ar
    43    93    91   ar
    44    14    13    2
    45    15    12    1
    46    15    16    1
    47    12    13    1
    48    27    26    1
    49    18    16    1
    50    92    90   ar
    51    67    68    1
    52    37    36    1
    53    26    25    1
    54    34    35    1
    55    34    33    1
    56    71    68    1
    57    91    89   ar
    58    16    17    1
    59    36    35    2
    60    36    38    1
    61    68    69    1
    62    25    24    1
    63   107   109   ar
    64   107   106   ar
    65    90    89   ar
    66    32    33    1
    67    32    29    1
    68    89    88    1
    69    24    23    1
    70   109   110   ar
    71    31    30    2
    72    69    75   am
    73    69    70    2
    74   105   106    1
    75   105   102    1
    76   106   108   ar
    77   102   103    1
    78   102   101    1
    79   103   104    2
    80    19    20    1
    81    87    86    2
    82    23    20    1
    83    30    29    1
    84    75    76    1
    85    88    85    1
    86    29    28    1
    87   110   108   ar
    88    86    85    1
    89    99   100    1
    90    99    96    1
    91    20    21    1
    92    85    84    1
    93    76    79    1
    94    76    77    1
    95    78    77    2
    96    80    81    1
    97    80    79    1
    98    82    81    2
    99    22    21    2
   100    98    97    2
   101    81    83   am
   102    96    97    1
   103    96    95    1
