@<TRIPOS>MOLECULE
tmp/3odpA01.pdb
 96 93 0 0 0
SMALL
GASTEIGER

@<TRIPOS>ATOM
      1  N         16.7150   34.1690   52.8780 N.3    59  LYS59      -0.1245
      2  CA        17.1050   35.4640   53.4350 C.3    59  LYS59       0.1561
      3  C         16.9300   36.5890   52.4250 C.2    59  LYS59       0.2260
      4  O         16.9530   36.3680   51.2070 O.2    59  LYS59      -0.2867
      5  CB        18.5630   35.4590   53.8940 C.3    59  LYS59       0.0271
      6  CG        19.5600   35.5470   52.7560 C.3    59  LYS59       0.0035
      7  CD        20.9740   35.5970   53.2630 C.3    59  LYS59       0.0206
      8  CE        21.9610   35.7200   52.1050 C.3    59  LYS59       0.1093
      9  NZ        23.3100   35.2730   52.4620 N.3    59  LYS59      -0.1314
     10  N         15.3970   36.5020   57.7550 N.3    86  LYS86      -0.1245
     11  CA        16.5870   37.3280   57.8840 C.3    86  LYS86       0.1561
     12  C         16.5460   38.4740   56.8710 C.2    86  LYS86       0.2260
     13  O         16.4820   38.2300   55.6630 O.2    86  LYS86      -0.2867
     14  CB        17.8610   36.4760   57.6410 C.3    86  LYS86       0.0271
     15  CG        19.1070   37.0440   58.3470 C.3    86  LYS86       0.0035
     16  CD        20.4190   36.8220   57.6050 C.3    86  LYS86       0.0206
     17  CE        20.7660   35.3430   57.4270 C.3    86  LYS86       0.1093
     18  NZ        22.2390   35.1230   57.3850 N.3    86  LYS86      -0.1314
     19  N         18.9260   41.7090   55.9360 N.3    88  GLU88      -0.1245
     20  CA        20.2460   42.2790   56.1740 C.3    88  GLU88       0.1567
     21  C         20.5780   43.4110   55.2000 C.2    88  GLU88       0.2260
     22  O         20.1610   43.3650   54.0500 O.2    88  GLU88      -0.2867
     23  CB        21.2970   41.2180   55.9450 C.3    88  GLU88       0.0388
     24  CG        21.6380   40.3100   57.1060 C.3    88  GLU88       0.1160
     25  CD        22.6160   39.2560   56.6390 C.2    88  GLU88       0.3649
     26  OE1       22.2210   38.5260   55.7280 O.co2  88  GLU88      -0.2457
     27  OE2       23.7870   39.2080   57.1040 O.co2  88  GLU88      -0.2457
     28  N         23.6180   44.6300   53.1420 N.3    90  ILE90      -0.1245
     29  CA        24.9600   44.3600   52.6510 C.3    90  ILE90       0.1561
     30  C         25.1660   45.1860   51.3930 C.2    90  ILE90       0.2260
     31  O         24.5100   44.9620   50.3780 O.2    90  ILE90      -0.2867
     32  CB        25.2130   42.8450   52.3080 C.3    90  ILE90       0.0252
     33  CG1       24.6180   41.8980   53.3540 C.3    90  ILE90       0.0019
     34  CG2       26.7100   42.5940   52.1650 C.3    90  ILE90       0.0019
     35  CD1       24.7500   40.4320   52.9760 C.3    90  ILE90       0.0001
     36  N         31.6730   35.4750   48.0630 N.3   100  PHE100     -0.1227
     37  CA        31.5740   34.1930   48.7610 C.3   100  PHE100      0.1736
     38  C         31.4580   34.2930   50.3010 C.2   100  PHE100      0.2595
     39  O         31.2730   33.2700   50.9660 O.2   100  PHE100     -0.2718
     40  CB        32.6910   33.2470   48.3180 C.3   100  PHE100      0.0547
     41  CG        32.7320   33.0290   46.8140 C.ar  100  PHE100     -0.0202
     42  CD1       31.7860   32.2190   46.1850 C.ar  100  PHE100     -0.0042
     43  CD2       33.7070   33.6450   46.0270 C.ar  100  PHE100     -0.0042
     44  CE1       31.8150   32.0220   44.7960 C.ar  100  PHE100     -0.0003
     45  CE2       33.7390   33.4560   44.6380 C.ar  100  PHE100     -0.0003
     46  CZ        32.7910   32.6470   44.0230 C.ar  100  PHE100     -0.0000
     47  N         31.5180   35.5040   50.8610 N.am  101  TYR101     -0.1962
     48  CA        31.0940   35.7190   52.2580 C.3   101  TYR101      0.1771
     49  C         29.5820   35.9610   52.4120 C.2   101  TYR101      0.2620
     50  O         29.0460   35.9080   53.5360 O.2   101  TYR101     -0.2715
     51  CB        31.8200   36.9130   52.8720 C.3   101  TYR101      0.0574
     52  CG        33.2720   36.6930   53.2710 C.ar  101  TYR101     -0.0198
     53  CD1       33.7650   35.4250   53.5960 C.ar  101  TYR101     -0.0009
     54  CD2       34.1370   37.7730   53.3790 C.ar  101  TYR101     -0.0009
     55  CE1       35.0680   35.2490   53.9850 C.ar  101  TYR101      0.0417
     56  CE2       35.4540   37.6010   53.7630 C.ar  101  TYR101      0.0417
     57  CZ        35.9060   36.3400   54.0700 C.ar  101  TYR101      0.1957
     58  OH        37.2080   36.1620   54.4410 O.3   101  TYR101     -0.2866
     59  N         28.9020   36.2620   51.3090 N.am  102  TYR102     -0.1960
     60  CA        27.5090   36.6920   51.3850 C.3   102  TYR102      0.1771
     61  C         26.5020   35.9400   50.5060 C.2   102  TYR102      0.2619
     62  O         25.3220   36.2360   50.5410 O.2   102  TYR102     -0.2715
     63  CB        27.4180   38.1940   51.0890 C.3   102  TYR102      0.0574
     64  CG        28.5340   38.9900   51.7240 C.ar  102  TYR102     -0.0198
     65  CD1       28.6490   39.0770   53.1020 C.ar  102  TYR102     -0.0009
     66  CD2       29.4790   39.6440   50.9420 C.ar  102  TYR102     -0.0009
     67  CE1       29.6730   39.7920   53.6830 C.ar  102  TYR102      0.0417
     68  CE2       30.5060   40.3660   51.5150 C.ar  102  TYR102      0.0417
     69  CZ        30.5960   40.4370   52.8860 C.ar  102  TYR102      0.1957
     70  OH        31.6210   41.1450   53.4540 O.3   102  TYR102     -0.2866
     71  N         26.9560   34.9930   49.7070 N.am  103  LEU103     -0.1963
     72  CA        26.0690   34.2650   48.8050 C.3   103  LEU103      0.1728
     73  C         26.4700   32.7950   48.7880 C.2   103  LEU103      0.2616
     74  O         27.6260   32.4820   48.6080 O.2   103  LEU103     -0.2715
     75  CB        26.1790   34.8450   47.3940 C.3   103  LEU103      0.0311
     76  CG        25.8920   36.3370   47.2290 C.3   103  LEU103      0.0022
     77  CD1       26.5060   36.8320   45.9420 C.3   103  LEU103      0.0001
     78  CD2       24.3710   36.6180   47.3110 C.3   103  LEU103      0.0001
     79  N         25.4870   31.9210   48.9580 N.am  104  LYS104     -0.1977
     80  CA        25.6730   30.4880   49.0630 C.3   104  LYS104      0.1596
     81  C         24.6860   29.7990   48.1340 C.2   104  LYS104      0.2287
     82  O         23.5430   30.2690   47.9580 O.2   104  LYS104     -0.2864
     83  CB        25.4320   30.0410   50.5010 C.3   104  LYS104      0.0298
     84  CG        25.7750   28.5950   50.8150 C.3   104  LYS104      0.0038
     85  CD        25.1620   28.2010   52.1570 C.3   104  LYS104      0.0206
     86  CE        25.6540   26.8490   52.6980 C.3   104  LYS104      0.1093
     87  NZ        25.2170   26.7130   54.1310 N.3   104  LYS104     -0.1314
     88  N         21.1560   28.4670   49.6010 N.3   107  GLU107     -0.1245
     89  CA        20.4620   29.4630   50.4210 C.3   107  GLU107      0.1567
     90  C         19.5950   30.3730   49.5540 C.2   107  GLU107      0.2260
     91  O         20.0980   31.2910   48.9310 O.2   107  GLU107     -0.2867
     92  CB        21.4870   30.2940   51.1970 C.3   107  GLU107      0.0388
     93  CG        20.8690   31.2160   52.2430 C.3   107  GLU107      0.1160
     94  CD        21.9000   32.0640   52.9790 C.2   107  GLU107      0.3649
     95  OE1       22.8400   32.5620   52.3360 O.co2 107  GLU107     -0.2457
     96  OE2       21.7480   32.2560   54.2040 O.co2 107  GLU107     -0.2457
@<TRIPOS>BOND
     1    46    45   ar
     2    46    44   ar
     3    45    43   ar
     4    44    42   ar
     5    77    76    1
     6    43    41   ar
     7    42    41   ar
     8    41    40    1
     9    76    78    1
    10    76    75    1
    11    75    72    1
    12    82    81    2
    13    36    37    1
    14    81    80    1
    15    40    37    1
    16    74    73    2
    17    37    38    1
    18    73    72    1
    19    73    79   am
    20    72    71    1
    21    91    90    2
    22    79    80    1
    23    80    83    1
    24    90    89    1
    25    88    89    1
    26    71    61   am
    27    38    47   am
    28    38    39    2
    29    31    30    2
    30    89    92    1
    31    83    84    1
    32    61    62    2
    33    61    60    1
    34    84    85    1
    35    47    48    1
    36    66    68   ar
    37    66    64   ar
    38    63    60    1
    39    63    64    1
    40    92    93    1
    41     4     3    2
    42    59    60    1
    43    59    49   am
    44    30    29    1
    45    68    69   ar
    46    64    65   ar
    47     8     9    1
    48     8     7    1
    49    85    86    1
    50    34    32    1
    51    93    94    1
    52    48    49    1
    53    48    51    1
    54    32    29    1
    55    32    33    1
    56    95    94   ar
    57    49    50    2
    58     3     2    1
    59    29    28    1
    60    86    87    1
    61     6     7    1
    62     6     5    1
    63    51    52    1
    64     1     2    1
    65    69    70    1
    66    69    67   ar
    67    35    33    1
    68    94    96   ar
    69    65    67   ar
    70    52    54   ar
    71    52    53   ar
    72    54    56   ar
    73     2     5    1
    74    53    55   ar
    75    56    57   ar
    76    55    57   ar
    77    22    21    2
    78    57    58    1
    79    21    20    1
    80    13    12    2
    81    26    25   ar
    82    19    20    1
    83    23    20    1
    84    23    24    1
    85    25    27   ar
    86    25    24    1
    87    12    11    1
    88    18    17    1
    89    17    16    1
    90    16    15    1
    91    14    11    1
    92    14    15    1
    93    10    11    1
