@<TRIPOS>MOLECULE
tmp/3oduB06.pdb
 73 66 0 0 0
SMALL
GASTEIGER

@<TRIPOS>ATOM
      1  N         -2.6820   24.4730   44.2010 N.3   380  ILE380     -0.1245
      2  CA        -3.3970   25.3600   45.1340 C.3   380  ILE380      0.1561
      3  C         -4.1840   24.5380   46.1840 C.2   380  ILE380      0.2260
      4  O         -4.1380   24.8110   47.4020 O.2   380  ILE380     -0.2867
      5  CB        -4.3740   26.3260   44.3740 C.3   380  ILE380      0.0252
      6  CG1       -3.5940   27.4830   43.7390 C.3   380  ILE380      0.0019
      7  CG2       -5.4380   26.9070   45.3130 C.3   380  ILE380      0.0019
      8  CD1       -4.4590   28.6830   43.3410 C.3   380  ILE380      0.0001
      9  N         -2.9550   24.3270   50.1450 N.3   384  ALA384     -0.1245
     10  CA        -3.9390   24.8580   51.0800 C.3   384  ALA384      0.1562
     11  C         -4.4480   23.7680   52.0210 C.2   384  ALA384      0.2260
     12  O         -4.7810   24.0330   53.1890 O.2   384  ALA384     -0.2867
     13  CB        -5.0920   25.5150   50.3410 C.3   384  ALA384      0.0290
     14  N         -1.7010   23.4700   54.4510 N.3   387  ALA387     -0.1231
     15  CA        -1.7380   24.7380   55.1980 C.3   387  ALA387      0.1694
     16  C         -2.8330   24.7980   56.3160 C.2   387  ALA387      0.2592
     17  O         -2.5600   25.2180   57.4610 O.2   387  ALA387     -0.2718
     18  CB        -1.8900   25.8830   54.2350 C.3   387  ALA387      0.0304
     19  N         -4.0480   24.3520   55.9970 N.am  388  CYS388     -0.1970
     20  CA        -5.0990   24.1670   57.0170 C.3   388  CYS388      0.1712
     21  C         -4.6430   23.2380   58.1410 C.2   388  CYS388      0.2296
     22  O         -4.8450   23.5110   59.3370 O.2   388  CYS388     -0.2864
     23  CB        -6.3790   23.5970   56.4100 C.3   388  CYS388      0.0983
     24  SG        -7.2100   24.6880   55.2340 S.3   388  CYS388     -0.0798
     25  N         -1.0300   23.8800   61.5670 N.3   391  PRO391     -0.2116
     26  CA        -1.0620   24.1880   63.0130 C.3   391  PRO391      0.1372
     27  C         -1.5390   23.0320   63.9010 C.2   391  PRO391      0.2244
     28  O         -1.2100   22.9890   65.0780 O.2   391  PRO391     -0.2868
     29  CB        -2.0320   25.3890   63.1250 C.3   391  PRO391      0.0268
     30  CG        -2.1280   25.9680   61.7710 C.3   391  PRO391      0.0207
     31  CD        -1.7910   24.8720   60.7730 C.3   391  PRO391      0.0892
     32  N         -6.8310   24.1190   66.9200 N.3   424  THR424     -0.1218
     33  CA        -6.2050   24.0260   65.6070 C.3   424  THR424      0.1862
     34  C         -6.8160   22.9360   64.7500 C.2   424  THR424      0.2287
     35  O         -6.8610   23.0470   63.5220 O.2   424  THR424     -0.2866
     36  CB        -4.7170   23.7490   65.7020 C.3   424  THR424      0.1770
     37  OG1       -4.5240   22.5370   66.4450 O.3   424  THR424     -0.2211
     38  CG2       -3.9910   24.9260   66.3820 C.3   424  THR424      0.0375
     39  N         -9.9980   24.4550   63.3970 N.3   427  LEU427     -0.1245
     40  CA        -9.6310   25.3780   62.3510 C.3   427  LEU427      0.1561
     41  C         -9.1970   24.5970   61.1090 C.2   427  LEU427      0.2260
     42  O         -9.3700   25.0520   59.9820 O.2   427  LEU427     -0.2867
     43  CB        -8.5310   26.3030   62.8690 C.3   427  LEU427      0.0270
     44  CG        -8.9950   27.4400   63.8150 C.3   427  LEU427      0.0019
     45  CD1       -7.8050   28.2770   64.2840 C.3   427  LEU427      0.0001
     46  CD2      -10.0250   28.3590   63.1580 C.3   427  LEU427      0.0001
     47  N        -11.7170   23.5000   58.0900 N.3   430  PHE430     -0.1241
     48  CA       -11.8560   24.3780   56.9290 C.3   430  PHE430      0.1605
     49  C        -11.3460   23.7320   55.6150 C.2   430  PHE430      0.2264
     50  O        -11.7090   24.1590   54.5250 O.2   430  PHE430     -0.2867
     51  CB       -11.1100   25.6880   57.2150 C.3   430  PHE430      0.0534
     52  CG       -11.4050   26.8060   56.2470 C.ar  430  PHE430     -0.0203
     53  CD1      -10.3610   27.5270   55.6700 C.ar  430  PHE430     -0.0042
     54  CD2      -12.7190   27.1630   55.9310 C.ar  430  PHE430     -0.0042
     55  CE1      -10.6150   28.5740   54.7900 C.ar  430  PHE430     -0.0003
     56  CE2      -12.9860   28.2060   55.0410 C.ar  430  PHE430     -0.0003
     57  CZ       -11.9340   28.9170   54.4790 C.ar  430  PHE430     -0.0000
     58  N        -12.4210   24.2100   51.0650 N.3   434  LEU434     -0.1245
     59  CA       -11.5070   24.6980   50.0330 C.3   434  LEU434      0.1561
     60  C        -11.9440   24.2770   48.6420 C.2   434  LEU434      0.2260
     61  O        -11.9590   25.1010   47.7230 O.2   434  LEU434     -0.2867
     62  CB       -10.0760   24.2150   50.2560 C.3   434  LEU434      0.0270
     63  CG        -9.4690   24.4500   51.6240 C.3   434  LEU434      0.0019
     64  CD1       -8.2470   23.5610   51.7510 C.3   434  LEU434      0.0001
     65  CD2       -9.1180   25.8980   51.8010 C.3   434  LEU434      0.0001
     66  N        -12.5860   27.0110   45.7980 N.3   438  LEU438     -0.1245
     67  CA       -11.8440   27.0210   44.5370 C.3   438  LEU438      0.1561
     68  C        -12.7500   26.9000   43.3040 C.2   438  LEU438      0.2260
     69  O        -12.3300   27.2150   42.1890 O.2   438  LEU438     -0.2867
     70  CB       -10.7850   25.9070   44.5150 C.3   438  LEU438      0.0270
     71  CG        -9.6230   25.9990   45.5180 C.3   438  LEU438      0.0019
     72  CD1       -8.6120   24.8790   45.2490 C.3   438  LEU438      0.0001
     73  CD2       -8.9550   27.3750   45.4380 C.3   438  LEU438      0.0001
@<TRIPOS>BOND
     1    69    68    2
     2    68    67    1
     3     8     6    1
     4     6     5    1
     5     1     2    1
     6     5     2    1
     7     5     7    1
     8    70    67    1
     9    70    71    1
    10    67    66    1
    11     2     3    1
    12    72    71    1
    13    73    71    1
    14     3     4    2
    15    61    60    2
    16    60    59    1
    17    59    62    1
    18    59    58    1
    19     9    10    1
    20    62    63    1
    21    13    10    1
    22    10    11    1
    23    63    64    1
    24    63    65    1
    25    11    12    2
    26    18    15    1
    27    14    15    1
    28    57    55   ar
    29    57    56   ar
    30    50    49    2
    31    55    53   ar
    32    56    54   ar
    33    15    16    1
    34    24    23    1
    35    49    48    1
    36    53    52   ar
    37    54    52   ar
    38    19    16   am
    39    19    20    1
    40    52    51    1
    41    16    17    2
    42    23    20    1
    43    48    51    1
    44    48    47    1
    45    20    21    1
    46    21    22    2
    47    42    41    2
    48    31    25    1
    49    31    30    1
    50    41    40    1
    51    25    26    1
    52    30    29    1
    53    40    43    1
    54    40    39    1
    55    43    44    1
    56    26    29    1
    57    26    27    1
    58    46    44    1
    59    35    34    2
    60    44    45    1
    61    27    28    2
    62    34    33    1
    63    33    36    1
    64    33    32    1
    65    36    38    1
    66    36    37    1
