@<TRIPOS>MOLECULE
tmp/3oduB07.pdb
 143 141 0 0 0
SMALL
GASTEIGER

@<TRIPOS>ATOM
      1  N        -10.5120   11.7890   57.2520 N.3    93  LEU93      -0.1231
      2  CA        -9.0730   12.1110   57.2890 C.3    93  LEU93       0.1693
      3  C         -8.2740   11.3100   56.2430 C.2    93  LEU93       0.2592
      4  O         -7.3760   11.8410   55.5730 O.2    93  LEU93      -0.2718
      5  CB        -8.4710   11.8500   58.6790 C.3    93  LEU93       0.0284
      6  CG        -8.7860   12.8210   59.8380 C.3    93  LEU93       0.0019
      7  CD1       -7.9830   12.4300   61.0910 C.3    93  LEU93       0.0001
      8  CD2       -8.5330   14.3080   59.5210 C.3    93  LEU93       0.0001
      9  N         -8.6040   10.0300   56.1180 N.am   94  TYR94      -0.1976
     10  CA        -7.8740    9.1480   55.2360 C.3    94  TYR94       0.1639
     11  C         -8.2800    9.3250   53.7700 C.2    94  TYR94       0.2290
     12  O         -7.4150    9.3940   52.9070 O.2    94  TYR94      -0.2864
     13  CB        -8.0440    7.6980   55.6930 C.3    94  TYR94       0.0560
     14  CG        -7.4510    7.3910   57.0520 C.ar   94  TYR94      -0.0198
     15  CD1       -7.7310    6.1940   57.6860 C.ar   94  TYR94      -0.0009
     16  CD2       -6.5970    8.2910   57.7070 C.ar   94  TYR94      -0.0009
     17  CE1       -7.1930    5.8910   58.9150 C.ar   94  TYR94       0.0417
     18  CE2       -6.0540    7.9940   58.9510 C.ar   94  TYR94       0.0417
     19  CZ        -6.3540    6.7930   59.5480 C.ar   94  TYR94       0.1957
     20  OH        -5.8180    6.4840   60.7930 O.3    94  TYR94      -0.2866
     21  N         -9.8550   11.9430   52.2360 N.3    96  SER96      -0.1202
     22  CA        -9.5570   13.2570   51.7170 C.3    96  SER96       0.2020
     23  C         -8.1300   13.3320   51.2350 C.2    96  SER96       0.2618
     24  O         -7.9040   13.5740   50.0570 O.2    96  SER96      -0.2717
     25  CB        -9.8360   14.3380   52.7560 C.3    96  SER96       0.2103
     26  OG        -9.1250   14.0700   53.9510 O.3    96  SER96      -0.2182
     27  N         -7.1610   13.1300   52.1170 N.am   97  VAL97      -0.1979
     28  CA        -5.7550   13.2340   51.7390 C.3    97  VAL97       0.1595
     29  C         -5.3420   12.2340   50.6480 C.2    97  VAL97       0.2287
     30  O         -4.6130   12.5900   49.7040 O.2    97  VAL97      -0.2864
     31  CB        -4.8270   13.1200   52.9580 C.3    97  VAL97       0.0276
     32  CG1       -4.8370   11.6760   53.5330 C.3    97  VAL97       0.0022
     33  CG2       -3.3990   13.6380   52.6090 C.3    97  VAL97       0.0022
     34  N         -1.9980    6.7620   67.4000 N.3   173  GLN173     -0.1245
     35  CA        -1.4490    8.0170   66.9880 C.3   173  GLN173      0.1566
     36  C         -0.4400    7.7480   65.8900 C.2   173  GLN173      0.2260
     37  O         -0.4990    8.4110   64.8490 O.2   173  GLN173     -0.2867
     38  CB        -0.7860    8.7820   68.1310 C.3   173  GLN173      0.0367
     39  CG        -0.2520   10.1520   67.6660 C.3   173  GLN173      0.0905
     40  CD        -1.3680   11.0600   67.1560 C.2   173  GLN173      0.2608
     41  OE1       -2.2810   11.4430   67.9040 O.2   173  GLN173     -0.2717
     42  NE2       -1.3090   11.3890   65.8780 N.am  173  GLN173     -0.0878
     43  N         -2.2950    6.9800   62.6440 N.3   176  HIS176     -0.1226
     44  CA        -2.9410    8.1680   62.1140 C.3   176  HIS176      0.1752
     45  C         -1.9070    9.0910   61.4090 C.2   176  HIS176      0.2595
     46  O         -2.1320    9.5520   60.2800 O.2   176  HIS176     -0.2718
     47  CB        -3.6940    8.9310   63.2180 C.3   176  HIS176      0.0759
     48  CG        -5.0830    8.4220   63.4720 C.ar  176  HIS176      0.0818
     49  ND1       -5.3580    7.0980   63.7480 N.ar  176  HIS176     -0.2268
     50  CD2       -6.2740    9.0660   63.5060 C.ar  176  HIS176      0.1154
     51  CE1       -6.6580    6.9460   63.9280 C.ar  176  HIS176      0.1986
     52  NE2       -7.2350    8.1260   63.7920 N.ar  176  HIS176     -0.2212
     53  N         -0.7700    9.3330   62.0610 N.am  177  ILE177     -0.1980
     54  CA         0.2980   10.1400   61.4590 C.3   177  ILE177      0.1595
     55  C          0.8540    9.5000   60.1770 C.2   177  ILE177      0.2287
     56  O          1.3080   10.1950   59.2770 O.2   177  ILE177     -0.2864
     57  CB         1.4660   10.3410   62.4350 C.3   177  ILE177      0.0276
     58  CG1        1.0110   11.1220   63.6670 C.3   177  ILE177      0.0022
     59  CG2        2.6180   11.0480   61.7650 C.3   177  ILE177      0.0022
     60  CD1        2.0160   11.0680   64.8000 C.3   177  ILE177      0.0001
     61  N         -2.3200    9.1760   57.4630 N.3   180  GLY180     -0.1210
     62  CA        -2.9310   10.4670   57.2800 C.3   180  GLY180      0.1956
     63  C         -1.9790   11.3460   56.5060 C.2   180  GLY180      0.2612
     64  O         -2.3660   11.8600   55.4510 O.2   180  GLY180     -0.2717
     65  N         -0.7560   11.5300   57.0070 N.am  181  LEU181     -0.1965
     66  CA         0.1650   12.5120   56.4390 C.3   181  LEU181      0.1728
     67  C          1.5060   12.1260   55.8210 C.2   181  LEU181      0.2616
     68  O          1.9770   12.7920   54.8890 O.2   181  LEU181     -0.2715
     69  CB         0.5100   13.3340   57.6840 C.3   181  LEU181      0.0311
     70  CG         1.4600   14.5170   57.4570 C.3   181  LEU181      0.0022
     71  CD1        0.8460   15.4980   56.4670 C.3   181  LEU181      0.0001
     72  CD2        1.8310   15.2280   58.7850 C.3   181  LEU181      0.0001
     73  N          2.1240   11.0710   56.3420 N.am  182  ILE182     -0.1977
     74  CA         3.4910   10.7280   55.9500 C.3   182  ILE182      0.1596
     75  C          3.4840    9.9270   54.6560 C.2   182  ILE182      0.2287
     76  O          4.2350   10.2340   53.7480 O.2   182  ILE182     -0.2864
     77  CB         4.2640    9.9520   57.0310 C.3   182  ILE182      0.0276
     78  CG1        4.7570   10.9300   58.1090 C.3   182  ILE182      0.0022
     79  CG2        5.4580    9.2170   56.4130 C.3   182  ILE182      0.0022
     80  CD1        5.2690   10.2400   59.3680 C.3   182  ILE182      0.0001
     81  N         -4.5130   22.5420   51.5170 N.3   385  PHE385     -0.1241
     82  CA        -4.9230   21.4180   52.3530 C.3   385  PHE385      0.1605
     83  C         -3.9200   21.3020   53.4940 C.2   385  PHE385      0.2264
     84  O         -4.2770   21.3630   54.6630 O.2   385  PHE385     -0.2867
     85  CB        -4.9930   20.1150   51.5520 C.3   385  PHE385      0.0534
     86  CG        -5.3860   18.9180   52.3750 C.ar  385  PHE385     -0.0203
     87  CD1       -4.4330   18.1560   53.0010 C.ar  385  PHE385     -0.0042
     88  CD2       -6.7080   18.5560   52.5190 C.ar  385  PHE385     -0.0042
     89  CE1       -4.7760   17.0580   53.7510 C.ar  385  PHE385     -0.0003
     90  CE2       -7.0470   17.4520   53.2690 C.ar  385  PHE385     -0.0003
     91  CZ        -6.0750   16.7110   53.8810 C.ar  385  PHE385     -0.0000
     92  N         -4.0230   22.1340   57.7670 N.3   389  TRP389     -0.1241
     93  CA        -3.6740   21.1290   58.7710 C.3   389  TRP389      0.1605
     94  C         -2.4310   21.4780   59.5540 C.2   389  TRP389      0.2264
     95  O         -2.2850   21.0160   60.6590 O.2   389  TRP389     -0.2867
     96  CB        -3.5440   19.7370   58.1520 C.3   389  TRP389      0.0550
     97  CG        -4.8630   19.1060   57.9400 C.ar  389  TRP389      0.0003
     98  CD1       -5.5530   19.0080   56.7710 C.ar  389  TRP389      0.0946
     99  CD2       -5.6840   18.5130   58.9440 C.ar  389  TRP389      0.0152
    100  NE1       -6.7510   18.3680   56.9810 N.ar  389  TRP389     -0.2442
    101  CE2       -6.8560   18.0550   58.3080 C.ar  389  TRP389      0.0810
    102  CE3       -5.5410   18.3260   60.3180 C.ar  389  TRP389      0.0012
    103  CZ2       -7.8700   17.4230   58.9890 C.ar  389  TRP389      0.0191
    104  CZ3       -6.5620   17.7010   61.0070 C.ar  389  TRP389      0.0001
    105  CH2       -7.7150   17.2590   60.3420 C.ar  389  TRP389      0.0015
    106  N         -2.3010   22.0910   63.3560 N.3   392  TYR392     -0.1227
    107  CA        -2.7090   20.9500   64.1620 C.3   392  TYR392      0.1736
    108  C         -1.5010   20.0360   64.3330 C.2   392  TYR392      0.2595
    109  O         -1.1960   19.5640   65.4440 O.2   392  TYR392     -0.2718
    110  CB        -3.8890   20.2400   63.5060 C.3   392  TYR392      0.0548
    111  CG        -4.2560   18.9080   64.0970 C.ar  392  TYR392     -0.0200
    112  CD1       -3.9430   17.7370   63.4320 C.ar  392  TYR392     -0.0009
    113  CD2       -4.9190   18.8150   65.3160 C.ar  392  TYR392     -0.0009
    114  CE1       -4.2770   16.4970   63.9670 C.ar  392  TYR392      0.0417
    115  CE2       -5.2560   17.5730   65.8630 C.ar  392  TYR392      0.0417
    116  CZ        -4.9240   16.4230   65.1710 C.ar  392  TYR392      0.1957
    117  OH        -5.2400   15.1840   65.6650 O.3   392  TYR392     -0.2866
    118  N         -0.7870   19.8350   63.2270 N.am  393  TYR393     -0.1976
    119  CA         0.4210   19.0290   63.2170 C.3   393  TYR393      0.1639
    120  C          1.4330   19.5110   64.2540 C.2   393  TYR393      0.2290
    121  O          2.0510   18.6960   64.9170 O.2   393  TYR393     -0.2864
    122  CB         1.0820   19.0540   61.8370 C.3   393  TYR393      0.0560
    123  CG         0.2610   18.5170   60.6660 C.ar  393  TYR393     -0.0198
    124  CD1        0.6090   18.8690   59.3560 C.ar  393  TYR393     -0.0009
    125  CD2       -0.8290   17.6450   60.8460 C.ar  393  TYR393     -0.0009
    126  CE1       -0.0940   18.3970   58.2690 C.ar  393  TYR393      0.0417
    127  CE2       -1.5350   17.1480   59.7420 C.ar  393  TYR393      0.0417
    128  CZ        -1.1630   17.5370   58.4630 C.ar  393  TYR393      0.1957
    129  OH        -1.8370   17.0640   57.3530 O.3   393  TYR393     -0.2866
    130  N          0.1450   18.5920   67.8440 N.3   396  ILE396     -0.1231
    131  CA         0.2940   17.1450   68.0730 C.3   396  ILE396      0.1692
    132  C          1.7570   16.7650   68.3120 C.2   396  ILE396      0.2592
    133  O          2.0630   15.8930   69.1500 O.2   396  ILE396     -0.2718
    134  CB        -0.2670   16.3600   66.8510 C.3   396  ILE396      0.0266
    135  CG1       -1.8080   16.3590   66.8930 C.3   396  ILE396      0.0019
    136  CG2        0.2730   14.9240   66.7900 C.3   396  ILE396      0.0020
    137  CD1       -2.3890   15.6430   68.0910 C.3   396  ILE396      0.0001
    138  N          2.6380   17.4350   67.5600 N.am  397  SER397     -0.1952
    139  CA         4.0830   17.2990   67.7100 C.3   397  SER397      0.1924
    140  C          4.5380   17.6810   69.1120 C.2   397  SER397      0.2314
    141  O          5.4200   17.0430   69.6740 O.2   397  SER397     -0.2863
    142  CB         4.8180   18.1760   66.6780 C.3   397  SER397      0.2116
    143  OG         4.8190   17.5240   65.4290 O.3   397  SER397     -0.2180
@<TRIPOS>BOND
     1    30    29    2
     2    24    23    2
     3    29    28    1
     4    23    22    1
     5    23    27   am
     6    81    82    1
     7    85    82    1
     8    85    86    1
     9    22    21    1
    10    22    25    1
    11    28    27    1
    12    28    31    1
    13    82    83    1
    14    86    88   ar
    15    86    87   ar
    16    88    90   ar
    17    33    31    1
    18    25    26    1
    19    12    11    2
    20    31    32    1
    21    87    89   ar
    22    90    91   ar
    23    83    84    2
    24    76    75    2
    25    89    91   ar
    26    11    10    1
    27    75    74    1
    28    68    67    2
    29    10    13    1
    30    10     9    1
    31    64    63    2
    32     4     3    2
    33    13    14    1
    34    67    73   am
    35    67    66    1
    36    74    73    1
    37    74    77    1
    38     9     3   am
    39     3     2    1
    40    79    77    1
    41    66    65    1
    42    66    69    1
    43    71    70    1
    44    63    65   am
    45    63    62    1
    46    98   100   ar
    47    98    97   ar
    48   100   101   ar
    49    77    78    1
    50    14    15   ar
    51    14    16   ar
    52     1     2    1
    53    62    61    1
    54     2     5    1
    55   129   128    1
    56    70    69    1
    57    70    72    1
    58    15    17   ar
    59    16    18   ar
    60    92    93    1
    61    97    96    1
    62    97    99   ar
    63    78    80    1
    64    96    93    1
    65   126   128   ar
    66   126   124   ar
    67   101    99   ar
    68   101   103   ar
    69   128   127   ar
    70     5     6    1
    71    93    94    1
    72    17    19   ar
    73    99   102   ar
    74    18    19   ar
    75   103   105   ar
    76    56    55    2
    77   124   123   ar
    78     8     6    1
    79    19    20    1
    80    94    95    2
    81   127   125   ar
    82     6     7    1
    83    55    54    1
    84    46    45    2
    85   102   104   ar
    86   105   104   ar
    87   123   125   ar
    88   123   122    1
    89    45    53   am
    90    45    44    1
    91    54    53    1
    92    54    57    1
    93    59    57    1
    94   122   119    1
    95    44    43    1
    96    44    47    1
    97    57    58    1
    98   119   118    1
    99   119   120    1
   100    47    48    1
   101   118   108   am
   102   106   107    1
   103   112   114   ar
   104   112   111   ar
   105    48    50   ar
   106    48    49   ar
   107   110   111    1
   108   110   107    1
   109    50    52   ar
   110    58    60    1
   111    49    51   ar
   112    52    51   ar
   113   114   116   ar
   114   111   113   ar
   115   107   108    1
   116   120   121    2
   117   108   109    2
   118    37    36    2
   119   116   117    1
   120   116   115   ar
   121   113   115   ar
   122   143   142    1
   123    42    40   am
   124    36    35    1
   125   142   139    1
   126   136   134    1
   127   134   135    1
   128   134   131    1
   129   135   137    1
   130    35    34    1
   131    35    38    1
   132    40    39    1
   133    40    41    2
   134   138   139    1
   135   138   132   am
   136    39    38    1
   137   139   140    1
   138   130   131    1
   139   131   132    1
   140   132   133    2
   141   140   141    2
