@<TRIPOS>MOLECULE
tmp/3oduB01.pdb
 114 107 0 0 0
SMALL
GASTEIGER

@<TRIPOS>ATOM
      1  N        -21.3370   26.2070   55.9110 N.3    24  THR24      -0.1218
      2  CA       -20.7090   26.5120   54.6470 C.3    24  THR24       0.1862
      3  C        -20.3530   25.2170   53.9450 C.2    24  THR24       0.2287
      4  O        -20.2120   25.2020   52.7290 O.2    24  THR24      -0.2866
      5  CB       -19.4210   27.3860   54.8520 C.3    24  THR24       0.1770
      6  OG1      -18.4560   26.6560   55.6060 O.3    24  THR24      -0.2211
      7  CG2      -19.7250   28.6840   55.6010 C.3    24  THR24       0.0375
      8  N        -23.5600   23.4420   52.1420 N.3    27  VAL27      -0.1231
      9  CA       -23.9570   24.2130   50.9740 C.3    27  VAL27       0.1692
     10  C        -22.9300   24.0500   49.8470 C.2    27  VAL27       0.2592
     11  O        -23.2900   23.8590   48.6860 O.2    27  VAL27      -0.2718
     12  CB       -24.1110   25.7340   51.3010 C.3    27  VAL27       0.0266
     13  CG1      -24.4140   26.5020   50.0760 C.3    27  VAL27       0.0020
     14  CG2      -25.2250   25.9910   52.3790 C.3    27  VAL27       0.0020
     15  N        -21.6460   24.1540   50.1940 N.am   28  GLY28      -0.1957
     16  CA       -20.5730   24.2200   49.2010 C.3    28  GLY28       0.1869
     17  C        -20.3560   22.8760   48.5400 C.2    28  GLY28       0.2309
     18  O        -20.3900   22.7580   47.3070 O.2    28  GLY28      -0.2863
     19  N        -23.3810   21.5710   46.7410 N.3    31  LEU31      -0.1231
     20  CA       -23.4470   22.1580   45.4060 C.3    31  LEU31       0.1693
     21  C        -22.5160   21.4530   44.4460 C.2    31  LEU31       0.2591
     22  O        -22.8970   21.2160   43.3140 O.2    31  LEU31      -0.2718
     23  CB       -23.1020   23.6430   45.4120 C.3    31  LEU31       0.0284
     24  CG       -24.2520   24.5920   45.6120 C.3    31  LEU31       0.0019
     25  CD1      -23.6770   26.0060   45.6830 C.3    31  LEU31       0.0001
     26  CD2      -25.2340   24.4180   44.4870 C.3    31  LEU31       0.0001
     27  N        -21.2970   21.1290   44.8790 N.am   32  VAL32      -0.1980
     28  CA       -20.3680   20.4510   43.9730 C.3    32  VAL32       0.1595
     29  C        -20.9870   19.1180   43.5720 C.2    32  VAL32       0.2287
     30  O        -20.9610   18.7440   42.4150 O.2    32  VAL32      -0.2864
     31  CB       -18.9650   20.2280   44.5890 C.3    32  VAL32       0.0276
     32  CG1      -18.0480   19.5760   43.5910 C.3    32  VAL32       0.0022
     33  CG2      -18.3610   21.5320   45.0590 C.3    32  VAL32       0.0022
     34  N        -24.3090   19.9100   41.2620 N.3    35  VAL35      -0.1231
     35  CA       -23.9160   20.5680   40.0210 C.3    35  VAL35       0.1692
     36  C        -23.1610   19.6720   39.0450 C.2    35  VAL35       0.2591
     37  O        -23.4660   19.6960   37.8630 O.2    35  VAL35      -0.2718
     38  CB       -23.0990   21.8140   40.2740 C.3    35  VAL35       0.0266
     39  CG1      -22.3960   22.2700   38.9790 C.3    35  VAL35       0.0020
     40  CG2      -24.0100   22.8930   40.8480 C.3    35  VAL35       0.0020
     41  N        -22.1880   18.8900   39.5020 N.am   36  MET36      -0.1979
     42  CA       -21.5050   17.9890   38.5780 C.3    36  MET36       0.1605
     43  C        -22.2420   16.6740   38.5130 C.2    36  MET36       0.2287
     44  O        -22.7030   16.2690   37.4490 O.2    36  MET36      -0.2864
     45  CB       -20.0240   18.3640   38.4290 C.3    36  MET36       0.0413
     46  CG       -19.0700   18.1410   39.5670 C.3    36  MET36       0.0598
     47  SD       -17.4180   18.8100   39.2580 S.3    36  MET36      -0.1393
     48  CE       -16.6740   17.8920   40.5270 C.3    36  MET36       0.0692
     49  N        -24.3140   17.9840   35.1440 N.3    40  LYS40      -0.1245
     50  CA       -23.2800   18.1390   34.1400 C.3    40  LYS40       0.1561
     51  C        -22.5140   16.8860   33.8080 C.2    40  LYS40       0.2260
     52  O        -21.8420   16.3370   34.6410 O.2    40  LYS40      -0.2867
     53  CB       -22.3360   19.2760   34.5500 C.3    40  LYS40       0.0271
     54  CG       -20.9470   19.2060   33.9970 C.3    40  LYS40       0.0035
     55  CD       -19.8730   19.3980   35.0510 C.3    40  LYS40       0.0206
     56  CE       -19.1640   20.7420   34.9160 C.3    40  LYS40       0.1093
     57  NZ       -17.6890   20.7530   35.1060 N.3    40  LYS40      -0.1314
     58  N        -11.7170   23.5000   58.0900 N.3   430  PHE430     -0.1241
     59  CA       -11.8560   24.3780   56.9290 C.3   430  PHE430      0.1605
     60  C        -11.3460   23.7320   55.6150 C.2   430  PHE430      0.2264
     61  O        -11.7090   24.1590   54.5250 O.2   430  PHE430     -0.2867
     62  CB       -11.1100   25.6880   57.2150 C.3   430  PHE430      0.0534
     63  CG       -11.4050   26.8060   56.2470 C.ar  430  PHE430     -0.0203
     64  CD1      -10.3610   27.5270   55.6700 C.ar  430  PHE430     -0.0042
     65  CD2      -12.7190   27.1630   55.9310 C.ar  430  PHE430     -0.0042
     66  CE1      -10.6150   28.5740   54.7900 C.ar  430  PHE430     -0.0003
     67  CE2      -12.9860   28.2060   55.0410 C.ar  430  PHE430     -0.0003
     68  CZ       -11.9340   28.9170   54.4790 C.ar  430  PHE430     -0.0000
     69  N        -13.9480   23.1200   53.0460 N.3   433  CYS433     -0.1235
     70  CA       -14.5300   24.2190   52.2900 C.3   433  CYS433      0.1677
     71  C        -13.6920   24.6230   51.0980 C.2   433  CYS433      0.2270
     72  O        -14.2000   25.2900   50.2060 O.2   433  CYS433     -0.2867
     73  CB       -14.7160   25.4170   53.2020 C.3   433  CYS433      0.0956
     74  SG       -15.7180   25.0060   54.6080 S.3   433  CYS433     -0.0801
     75  N        -14.9520   23.4200   47.4340 N.3   436  PRO436     -0.2102
     76  CA       -15.9890   24.3480   46.9400 C.3   436  PRO436      0.1504
     77  C        -15.5490   25.7950   46.6560 C.2   436  PRO436      0.2575
     78  O        -15.9570   26.3690   45.6300 O.2   436  PRO436     -0.2718
     79  CB       -17.0420   24.3120   48.0410 C.3   436  PRO436      0.0282
     80  CG       -16.8990   22.9310   48.6320 C.3   436  PRO436      0.0208
     81  CD       -15.4740   22.5050   48.4710 C.3   436  PRO436      0.0893
     82  N        -14.7330   26.3830   47.5240 N.am  437  ILE437     -0.1980
     83  CA       -14.3140   27.7740   47.3380 C.3   437  ILE437      0.1595
     84  C        -13.4940   27.9380   46.0630 C.2   437  ILE437      0.2287
     85  O        -13.6930   28.8860   45.3120 O.2   437  ILE437     -0.2864
     86  CB       -13.5080   28.3180   48.5320 C.3   437  ILE437      0.0276
     87  CG1      -14.3730   28.3650   49.7940 C.3   437  ILE437      0.0022
     88  CG2      -13.0260   29.7380   48.2460 C.3   437  ILE437      0.0022
     89  CD1      -13.6270   28.9130   51.0220 C.3   437  ILE437      0.0001
     90  N        -13.9820   26.4420   43.4790 N.3   439  TYR439     -0.1227
     91  CA       -14.9230   26.4450   42.3630 C.3   439  TYR439      0.1736
     92  C        -15.7360   27.7570   42.2590 C.2   439  TYR439      0.2595
     93  O        -16.5130   27.9270   41.3170 O.2   439  TYR439     -0.2718
     94  CB       -15.8900   25.2610   42.4770 C.3   439  TYR439      0.0548
     95  CG       -15.4050   23.9540   41.8800 C.ar  439  TYR439     -0.0200
     96  CD1      -14.9610   23.8970   40.5520 C.ar  439  TYR439     -0.0009
     97  CD2      -15.4480   22.7670   42.6170 C.ar  439  TYR439     -0.0009
     98  CE1      -14.5520   22.7020   39.9820 C.ar  439  TYR439      0.0417
     99  CE2      -15.0410   21.5820   42.0600 C.ar  439  TYR439      0.0417
    100  CZ       -14.5960   21.5510   40.7330 C.ar  439  TYR439      0.1957
    101  OH       -14.1800   20.3700   40.1600 O.3   439  TYR439     -0.2866
    102  N        -15.5820   28.6700   43.2190 N.am  440  ALA440     -0.1980
    103  CA       -16.3920   29.9030   43.2360 C.3   440  ALA440      0.1597
    104  C        -16.0200   30.8200   42.0640 C.2   440  ALA440      0.2287
    105  O        -14.9260   30.7280   41.5120 O.2   440  ALA440     -0.2864
    106  CB       -16.2430   30.6430   44.5750 C.3   440  ALA440      0.0319
    107  N        -16.3300   31.0130   38.9710 N.3   442  LEU442     -0.1245
    108  CA       -15.9210   30.5210   37.6480 C.3   442  LEU442      0.1561
    109  C        -16.5980   31.3140   36.5510 C.2   442  LEU442      0.2260
    110  O        -17.8220   31.3790   36.5090 O.2   442  LEU442     -0.2867
    111  CB       -16.2910   29.0520   37.4780 C.3   442  LEU442      0.0270
    112  CG       -15.2960   28.0250   38.0190 C.3   442  LEU442      0.0019
    113  CD1      -15.9240   26.6120   38.0310 C.3   442  LEU442      0.0001
    114  CD2      -14.0470   28.0690   37.1700 C.3   442  LEU442      0.0001
@<TRIPOS>BOND
     1    51    50    1
     2    51    52    2
     3    54    53    1
     4    54    55    1
     5    50    53    1
     6    50    49    1
     7    56    55    1
     8    56    57    1
     9   110   109    2
    10   109   108    1
    11   114   112    1
    12    44    43    2
    13   111   108    1
    14   111   112    1
    15   108   107    1
    16    37    36    2
    17   112   113    1
    18    45    42    1
    19    45    46    1
    20    43    42    1
    21    42    41    1
    22    39    38    1
    23    36    41   am
    24    36    35    1
    25    47    46    1
    26    47    48    1
    27    98    96   ar
    28    98   100   ar
    29    35    38    1
    30    35    34    1
    31   101   100    1
    32    38    40    1
    33    96    95   ar
    34   100    99   ar
    35    93    92    2
    36   105   104    2
    37    95    94    1
    38    95    97   ar
    39    99    97   ar
    40   104   103    1
    41    92    91    1
    42    92   102   am
    43    91    94    1
    44    91    90    1
    45    30    29    2
    46   102   103    1
    47   103   106    1
    48    22    21    2
    49    29    28    1
    50    32    31    1
    51    28    31    1
    52    28    27    1
    53    21    27   am
    54    21    20    1
    55    26    24    1
    56    31    33    1
    57    85    84    2
    58    20    23    1
    59    20    19    1
    60    23    24    1
    61    24    25    1
    62    78    77    2
    63    84    83    1
    64    77    76    1
    65    77    82   am
    66    76    75    1
    67    76    79    1
    68    18    17    2
    69    83    82    1
    70    83    86    1
    71    75    81    1
    72    79    80    1
    73    88    86    1
    74    81    80    1
    75    86    87    1
    76    17    16    1
    77    11    10    2
    78    16    15    1
    79    87    89    1
    80    10    15   am
    81    10     9    1
    82    13    12    1
    83    72    71    2
    84     9    12    1
    85     9     8    1
    86    71    70    1
    87    12    14    1
    88    70    69    1
    89    70    73    1
    90     4     3    2
    91    73    74    1
    92     3     2    1
    93    68    66   ar
    94    68    67   ar
    95    61    60    2
    96     2     5    1
    97     2     1    1
    98    66    64   ar
    99     5     7    1
   100     5     6    1
   101    67    65   ar
   102    60    59    1
   103    64    63   ar
   104    65    63   ar
   105    63    62    1
   106    59    62    1
   107    59    58    1
