@<TRIPOS>MOLECULE
tmp/3oduB03.pdb
 80 76 0 0 0
SMALL
GASTEIGER

@<TRIPOS>ATOM
      1  N        -15.5380   25.7930   75.1140 N.3    11  LYS11      -0.1231
      2  CA       -16.9640   25.5510   75.2110 C.3    11  LYS11       0.1693
      3  C        -17.7730   26.5020   74.3480 C.2    11  LYS11       0.2591
      4  O        -18.8810   26.2130   74.0280 O.2    11  LYS11      -0.2718
      5  CB       -17.3770   25.7530   76.6570 C.3    11  LYS11       0.0285
      6  CG       -18.6530   25.0600   77.0920 C.3    11  LYS11       0.0035
      7  CD       -18.7520   24.9500   78.6080 C.3    11  LYS11       0.0206
      8  CE       -20.1890   24.8440   79.0780 C.3    11  LYS11       0.1093
      9  NZ       -20.4430   25.6550   80.2810 N.3    11  LYS11      -0.1314
     10  N        -17.2460   27.6780   74.0630 N.am   12  ILE12      -0.1980
     11  CA       -17.8430   28.6050   73.1500 C.3    12  ILE12       0.1595
     12  C        -17.1890   28.7040   71.7640 C.2    12  ILE12       0.2287
     13  O        -17.8440   28.7790   70.7830 O.2    12  ILE12      -0.2864
     14  CB       -17.8570   29.9760   73.7280 C.3    12  ILE12       0.0276
     15  CG1      -18.7860   30.0330   74.9160 C.3    12  ILE12       0.0022
     16  CG2      -18.3330   30.9370   72.6910 C.3    12  ILE12       0.0022
     17  CD1      -18.5600   31.1580   75.7680 C.3    12  ILE12       0.0001
     18  N        -17.7340   25.0800   69.2020 N.3    15  PRO15      -0.2102
     19  CA       -19.0220   24.7930   68.5800 C.3    15  PRO15       0.1504
     20  C        -19.3960   25.7790   67.4580 C.2    15  PRO15       0.2576
     21  O        -20.0330   25.3590   66.4540 O.2    15  PRO15      -0.2718
     22  CB       -20.0010   24.8860   69.7350 C.3    15  PRO15       0.0282
     23  CG       -19.2820   25.5890   70.8180 C.3    15  PRO15       0.0208
     24  CD       -17.8530   25.3360   70.6400 C.3    15  PRO15       0.0893
     25  N        -18.9780   27.0400   67.6290 N.am   16  THR16      -0.1953
     26  CA       -19.0420   28.0800   66.6040 C.3    16  THR16       0.1897
     27  C        -18.2550   27.7460   65.3270 C.2    16  THR16       0.2313
     28  O        -18.7590   27.9340   64.2010 O.2    16  THR16      -0.2863
     29  CB       -18.4560   29.4580   67.1330 C.3    16  THR16       0.1794
     30  OG1      -18.8660   29.7220   68.4990 O.3    16  THR16      -0.2208
     31  CG2      -18.8700   30.5990   66.2090 C.3    16  THR16       0.0378
     32  N        -20.0420   24.8360   63.7410 N.3    19  SER19      -0.1217
     33  CA       -21.2980   25.2500   63.0880 C.3    19  SER19       0.1889
     34  C        -21.1080   25.9650   61.7520 C.2    19  SER19       0.2288
     35  O        -21.9140   25.7810   60.8340 O.2    19  SER19      -0.2866
     36  CB       -22.1230   26.1640   64.0300 C.3    19  SER19       0.2089
     37  OG       -22.7000   25.4240   65.1180 O.3    19  SER19      -0.2183
     38  N        -22.8120   18.8120   63.7930 N.3    65  PRO65      -0.2116
     39  CA       -23.6850   19.2390   64.8840 C.3    65  PRO65       0.1372
     40  C        -23.4970   18.4080   66.1560 C.2    65  PRO65       0.2244
     41  O        -23.6490   18.9480   67.2450 O.2    65  PRO65      -0.2868
     42  CB       -25.1030   19.0620   64.3170 C.3    65  PRO65       0.0268
     43  CG       -24.9700   19.0510   62.8750 C.3    65  PRO65       0.0207
     44  CD       -23.5660   18.5830   62.5500 C.3    65  PRO65       0.0892
     45  N        -20.5030   19.7750   67.9840 N.3    68  ALA68      -0.1231
     46  CA       -20.8940   21.0510   68.5470 C.3    68  ALA68       0.1694
     47  C        -21.6680   20.8770   69.8440 C.2    68  ALA68       0.2591
     48  O        -21.3730   21.5340   70.8200 O.2    68  ALA68      -0.2718
     49  CB       -21.7410   21.8220   67.5380 C.3    68  ALA68       0.0304
     50  N        -22.6550   19.9860   69.8510 N.am   69  VAL69      -0.1980
     51  CA       -23.4210   19.6720   71.0860 C.3    69  VAL69       0.1595
     52  C        -22.5510   19.0120   72.1310 C.2    69  VAL69       0.2287
     53  O        -22.6090   19.3550   73.3180 O.2    69  VAL69      -0.2864
     54  CB       -24.5910   18.6710   70.8410 C.3    69  VAL69       0.0276
     55  CG1      -25.1230   18.1590   72.1700 C.3    69  VAL69       0.0022
     56  CG2      -25.7040   19.3170   70.0220 C.3    69  VAL69       0.0022
     57  N        -20.4560   21.7450   73.7610 N.3    72  VAL72      -0.1231
     58  CA       -21.0760   22.7930   74.5810 C.3    72  VAL72       0.1692
     59  C        -21.5820   22.1060   75.8580 C.2    72  VAL72       0.2591
     60  O        -21.4540   22.6840   76.9610 O.2    72  VAL72      -0.2718
     61  CB       -22.0790   23.6660   73.7810 C.3    72  VAL72       0.0266
     62  CG1      -21.4700   24.1800   72.5090 C.3    72  VAL72       0.0020
     63  CG2      -23.3150   22.8840   73.4560 C.3    72  VAL72       0.0020
     64  N        -22.3700   21.0200   75.6900 N.am   73  ALA73      -0.1980
     65  CA       -23.0040   20.3640   76.8460 C.3    73  ALA73       0.1597
     66  C        -22.6940   18.9220   77.1700 C.2    73  ALA73       0.2287
     67  O        -22.1830   18.6040   78.2450 O.2    73  ALA73      -0.2864
     68  CB       -24.5030   20.4750   76.4520 C.3    73  ALA73       0.0319
     69  N        -25.5270   13.4220   74.3390 N.3    76  TYR76      -0.1241
     70  CA       -26.8930   12.8870   74.4720 C.3    76  TYR76       0.1605
     71  C        -27.2030   11.7390   73.5130 C.2    76  TYR76       0.2264
     72  O        -28.2660   11.1340   73.6310 O.2    76  TYR76      -0.2867
     73  CB       -27.9660   13.9570   74.1750 C.3    76  TYR76       0.0534
     74  CG       -27.8490   15.2110   74.9480 C.ar   76  TYR76      -0.0201
     75  CD1      -27.4130   16.3750   74.3450 C.ar   76  TYR76      -0.0009
     76  CD2      -28.1810   15.2380   76.2860 C.ar   76  TYR76      -0.0009
     77  CE1      -27.2870   17.5340   75.0730 C.ar   76  TYR76       0.0417
     78  CE2      -28.0650   16.3770   77.0210 C.ar   76  TYR76       0.0417
     79  CZ       -27.6220   17.5280   76.4150 C.ar   76  TYR76       0.1957
     80  OH       -27.5160   18.6660   77.1740 O.3    76  TYR76      -0.2866
@<TRIPOS>BOND
     1    35    34    2
     2    34    33    1
     3    44    43    1
     4    44    38    1
     5    43    42    1
     6    33    32    1
     7    33    36    1
     8    38    39    1
     9    36    37    1
    10    28    27    2
    11    42    39    1
    12    39    40    1
    13    27    26    1
    14    40    41    2
    15    31    29    1
    16    21    20    2
    17    26    29    1
    18    26    25    1
    19    29    30    1
    20    20    25   am
    21    20    19    1
    22    49    46    1
    23    45    46    1
    24    46    47    1
    25    19    18    1
    26    19    22    1
    27    18    24    1
    28    22    23    1
    29    47    50   am
    30    47    48    2
    31    50    51    1
    32    56    54    1
    33    24    23    1
    34    13    12    2
    35    54    51    1
    36    54    55    1
    37    51    52    1
    38    12    11    1
    39    52    53    2
    40    62    61    1
    41    16    14    1
    42    11    14    1
    43    11    10    1
    44    63    61    1
    45    71    72    2
    46    71    70    1
    47    14    15    1
    48    57    58    1
    49    61    58    1
    50     4     3    2
    51    10     3   am
    52    73    70    1
    53    73    74    1
    54    69    70    1
    55    75    74   ar
    56    75    77   ar
    57     3     2    1
    58    58    59    1
    59    15    17    1
    60    74    76   ar
    61    77    79   ar
    62     1     2    1
    63     2     5    1
    64    64    59   am
    65    64    65    1
    66    59    60    2
    67    76    78   ar
    68    79    78   ar
    69    79    80    1
    70    68    65    1
    71     5     6    1
    72    65    66    1
    73     6     7    1
    74    66    67    2
    75     7     8    1
    76     8     9    1
