@<TRIPOS>MOLECULE
tmp/3oduB05.pdb
 130 122 0 0 0
SMALL
GASTEIGER

@<TRIPOS>ATOM
      1  N        -16.9820   15.0720   32.0960 N.3    43  ARG43      -0.1245
      2  CA       -16.1100   15.2690   33.2080 C.3    43  ARG43       0.1563
      3  C        -14.6300   15.0930   33.0380 C.2    43  ARG43       0.2260
      4  O        -14.1670   14.1380   32.4690 O.2    43  ARG43      -0.2867
      5  CB       -16.6300   14.4640   34.3740 C.3    43  ARG43       0.0307
      6  CG       -17.5680   15.2480   35.2280 C.3    43  ARG43       0.0489
      7  CD       -17.6610   14.6210   36.5760 C.3    43  ARG43       0.2205
      8  NE       -18.9520   13.9960   36.7530 N.pl3  43  ARG43      -0.0865
      9  CZ       -19.1360   12.7460   37.1200 C.cat  43  ARG43       0.5346
     10  NH1      -18.1160   11.9460   37.3530 N.pl3  43  ARG43       0.1354
     11  NH2      -20.3620   12.2980   37.2540 N.pl3  43  ARG43       0.1354
     12  N        -13.4530   14.7350   38.4710 N.3    48  LYS48      -0.1245
     13  CA       -13.8950   13.4220   38.9510 C.3    48  LYS48       0.1561
     14  C        -13.4570   13.1860   40.3830 C.2    48  LYS48       0.2260
     15  O        -14.2270   12.6970   41.1960 O.2    48  LYS48      -0.2867
     16  CB       -13.3610   12.3000   38.0530 C.3    48  LYS48       0.0271
     17  CG       -14.0660   12.2020   36.6980 C.3    48  LYS48       0.0035
     18  CD       -13.1640   11.5540   35.6180 C.3    48  LYS48       0.0206
     19  CE       -13.9860   10.8450   34.5230 C.3    48  LYS48       0.1093
     20  NZ       -14.4490    9.5060   34.9970 N.3    48  LYS48      -0.1314
     21  N        -15.1310   15.3800   42.9560 N.3    51  LEU51      -0.1231
     22  CA       -16.4650   14.8910   43.2920 C.3    51  LEU51       0.1693
     23  C        -16.3630   13.9700   44.5000 C.2    51  LEU51       0.2592
     24  O        -17.1390   14.0900   45.4700 O.2    51  LEU51      -0.2718
     25  CB       -17.1060   14.1530   42.1110 C.3    51  LEU51       0.0284
     26  CG       -18.5500   13.6530   42.3010 C.3    51  LEU51       0.0019
     27  CD1      -19.4550   14.7320   42.9130 C.3    51  LEU51       0.0001
     28  CD2      -19.1380   13.1870   40.9700 C.3    51  LEU51       0.0001
     29  N        -15.4000   13.0490   44.4190 N.am   52  HIS52      -0.1976
     30  CA       -15.0490   12.1690   45.5240 C.3    52  HIS52       0.1656
     31  C        -14.7230   12.9870   46.8050 C.2    52  HIS52       0.2291
     32  O        -15.2220   12.6950   47.8930 O.2    52  HIS52      -0.2864
     33  CB       -13.8580   11.2700   45.1200 C.3    52  HIS52       0.0771
     34  CG       -14.2120   10.1390   44.1820 C.ar   52  HIS52       0.0820
     35  ND1      -14.2650    8.8200   44.5890 N.ar   52  HIS52      -0.2267
     36  CD2      -14.5000   10.1250   42.8550 C.ar   52  HIS52       0.1154
     37  CE1      -14.5750    8.0480   43.5610 C.ar   52  HIS52       0.1986
     38  NE2      -14.7250    8.8130   42.4950 N.ar   52  HIS52      -0.2212
     39  N        -17.8170   14.4370   48.3540 N.3    55  VAL55      -0.1245
     40  CA       -18.6050   13.3970   49.0230 C.3    55  VAL55       0.1561
     41  C        -18.0290   13.0570   50.3940 C.2    55  VAL55       0.2260
     42  O        -18.7660   12.9330   51.3740 O.2    55  VAL55      -0.2867
     43  CB       -18.7170   12.1170   48.1780 C.3    55  VAL55       0.0252
     44  CG1      -19.1700   10.9130   49.0710 C.3    55  VAL55       0.0019
     45  CG2      -19.6990   12.3380   47.0160 C.3    55  VAL55       0.0019
     46  N        -20.0980   14.1410   53.9680 N.3    59  LEU59      -0.1245
     47  CA       -20.3500   13.0750   54.9380 C.3    59  LEU59       0.1561
     48  C        -19.8120   13.4570   56.3120 C.2    59  LEU59       0.2260
     49  O        -20.4920   13.3100   57.3120 O.2    59  LEU59      -0.2867
     50  CB       -19.6860   11.7980   54.4550 C.3    59  LEU59       0.0270
     51  CG       -19.9570   10.5030   55.2030 C.3    59  LEU59       0.0019
     52  CD1      -21.3830   10.0220   54.9350 C.3    59  LEU59       0.0001
     53  CD2      -18.9240    9.4720   54.7250 C.3    59  LEU59       0.0001
     54  N        -24.0580    4.2010   69.8420 N.3    80  PHE80      -0.1241
     55  CA       -23.9190    3.7840   68.4510 C.3    80  PHE80       0.1605
     56  C        -23.5000    4.9500   67.5800 C.2    80  PHE80       0.2264
     57  O        -22.7250    4.7640   66.6350 O.2    80  PHE80      -0.2867
     58  CB       -25.1930    3.1430   67.8860 C.3    80  PHE80       0.0534
     59  CG       -25.1170    2.9090   66.4080 C.ar   80  PHE80      -0.0203
     60  CD1      -25.6310    3.8380   65.5240 C.ar   80  PHE80      -0.0042
     61  CD2      -24.4600    1.8000   65.9070 C.ar   80  PHE80      -0.0042
     62  CE1      -25.5130    3.6650   64.1640 C.ar   80  PHE80      -0.0003
     63  CE2      -24.3430    1.6070   64.5470 C.ar   80  PHE80      -0.0003
     64  CZ       -24.8710    2.5520   63.6650 C.ar   80  PHE80      -0.0000
     65  N        -20.2780    5.7500   65.2720 N.3    84  ALA84      -0.1245
     66  CA       -20.5960    6.2780   63.9640 C.3    84  ALA84       0.1562
     67  C        -19.8750    7.5750   63.6440 C.2    84  ALA84       0.2260
     68  O        -19.4100    7.7450   62.5430 O.2    84  ALA84      -0.2867
     69  CB       -22.0970    6.4600   63.8020 C.3    84  ALA84       0.0290
     70  N        -16.1590    6.8250   63.2720 N.3    87  VAL87      -0.1231
     71  CA       -15.8790    6.1510   62.0180 C.3    87  VAL87       0.1692
     72  C        -15.8550    7.2050   60.9580 C.2    87  VAL87       0.2591
     73  O        -14.8830    7.3160   60.2230 O.2    87  VAL87      -0.2718
     74  CB       -16.9260    5.0630   61.6550 C.3    87  VAL87       0.0266
     75  CG1      -16.7200    4.5910   60.2310 C.3    87  VAL87       0.0020
     76  CG2      -16.8230    3.8780   62.5890 C.3    87  VAL87       0.0020
     77  N        -16.9030    8.0130   60.9120 N.am   88  ILE88      -0.1980
     78  CA       -17.0390    9.0350   59.8850 C.3    88  ILE88       0.1595
     79  C        -15.8480   10.0260   59.8890 C.2    88  ILE88       0.2287
     80  O        -15.4330   10.5170   58.8360 O.2    88  ILE88      -0.2864
     81  CB       -18.4030    9.7770   60.0100 C.3    88  ILE88       0.0276
     82  CG1      -19.5370    8.8370   59.5930 C.3    88  ILE88       0.0022
     83  CG2      -18.4060   11.0640   59.1660 C.3    88  ILE88       0.0022
     84  CD1      -20.9010    9.4530   59.6720 C.3    88  ILE88       0.0001
     85  N        -12.7580    7.9350   58.2890 N.3    91  VAL91      -0.1245
     86  CA       -13.0480    7.8830   56.8520 C.3    91  VAL91       0.1561
     87  C        -12.6650    9.1930   56.1510 C.2    91  VAL91       0.2260
     88  O        -12.0480    9.1730   55.0920 O.2    91  VAL91      -0.2867
     89  CB       -14.5240    7.5400   56.6150 C.3    91  VAL91       0.0252
     90  CG1      -14.9590    7.8600   55.2000 C.3    91  VAL91       0.0019
     91  CG2      -14.7550    6.0900   56.9280 C.3    91  VAL91       0.0019
     92  N         -9.1480    6.6880   37.9440 N.3   125  ALA125     -0.1245
     93  CA       -10.1750    7.5570   38.4730 C.3   125  ALA125      0.1562
     94  C        -11.5460    6.8910   38.5580 C.2   125  ALA125      0.2260
     95  O        -12.4680    7.4610   39.1230 O.2   125  ALA125     -0.2867
     96  CB       -10.2390    8.8260   37.6500 C.3   125  ALA125      0.0290
     97  N        -11.6550    3.4280   44.3000 N.3   130  TYR130     -0.1241
     98  CA       -12.5000    2.6980   45.2650 C.3   130  TYR130      0.1605
     99  C        -11.6620    1.6680   46.0220 C.2   130  TYR130      0.2264
    100  O        -11.7940    1.5160   47.2300 O.2   130  TYR130     -0.2867
    101  CB       -13.6830    2.0260   44.5550 C.3   130  TYR130      0.0534
    102  CG       -14.5830    3.0120   43.8410 C.ar  130  TYR130     -0.0201
    103  CD1      -15.6600    3.5930   44.4900 C.ar  130  TYR130     -0.0009
    104  CD2      -14.3480    3.3750   42.5280 C.ar  130  TYR130     -0.0009
    105  CE1      -16.4860    4.5020   43.8450 C.ar  130  TYR130      0.0417
    106  CE2      -15.1670    4.2930   41.8730 C.ar  130  TYR130      0.0417
    107  CZ       -16.2400    4.8510   42.5410 C.ar  130  TYR130      0.1957
    108  OH       -17.0650    5.7640   41.9140 O.3   130  TYR130     -0.2866
    109  N        -11.2680    4.3480   49.0000 N.3   134  TRP134     -0.1241
    110  CA       -12.4790    4.2050   49.8280 C.3   134  TRP134      0.1605
    111  C        -12.5060    2.9490   50.6890 C.2   134  TRP134      0.2264
    112  O        -12.7760    3.0350   51.8810 O.2   134  TRP134     -0.2867
    113  CB       -13.7540    4.2930   49.0030 C.3   134  TRP134      0.0550
    114  CG       -14.0930    5.6860   48.5750 C.ar  134  TRP134      0.0003
    115  CD1      -14.0030    6.1890   47.3190 C.ar  134  TRP134      0.0946
    116  CD2      -14.5820    6.7500   49.4000 C.ar  134  TRP134      0.0152
    117  NE1      -14.3870    7.4970   47.3070 N.ar  134  TRP134     -0.2442
    118  CE2      -14.7560    7.8660   48.5720 C.ar  134  TRP134      0.0810
    119  CE3      -14.8770    6.8680   50.7560 C.ar  134  TRP134      0.0012
    120  CZ2      -15.2250    9.0900   49.0520 C.ar  134  TRP134      0.0191
    121  CZ3      -15.3460    8.0690   51.2300 C.ar  134  TRP134      0.0001
    122  CH2      -15.5120    9.1710   50.3810 C.ar  134  TRP134      0.0015
    123  N        -12.3480    2.6670   54.8970 N.3   138  LEU138     -0.1245
    124  CA       -13.3780    2.0330   55.7470 C.3   138  LEU138      0.1561
    125  C        -12.8400    0.8960   56.5990 C.2   138  LEU138      0.2260
    126  O        -13.1950    0.8000   57.7680 O.2   138  LEU138     -0.2867
    127  CB       -14.5550    1.5460   54.9240 C.3   138  LEU138      0.0270
    128  CG       -15.6540    2.6030   54.8300 C.3   138  LEU138      0.0019
    129  CD1      -16.5180    2.3840   53.5710 C.3   138  LEU138      0.0001
    130  CD2      -16.4830    2.5700   56.1080 C.3   138  LEU138      0.0001
@<TRIPOS>BOND
     1     1     2    1
     2     4     3    2
     3     3     2    1
     4     2     5    1
     5     5     6    1
     6    19    20    1
     7    19    18    1
     8     6     7    1
     9    18    17    1
    10     7     8    1
    11    17    16    1
    12     8     9    2
    13     9    11    1
    14     9    10    1
    15    96    93    1
    16    92    93    1
    17    16    13    1
    18    12    13    1
    19    93    94    1
    20    94    95    2
    21    13    14    1
    22    14    15    2
    23    28    26    1
    24   106   104   ar
    25   106   107   ar
    26   108   107    1
    27    25    26    1
    28    25    22    1
    29    26    27    1
    30    38    36   ar
    31    38    37   ar
    32   104   102   ar
    33   107   105   ar
    34    36    34   ar
    35    21    22    1
    36    22    23    1
    37    37    35   ar
    38   102   103   ar
    39   102   101    1
    40   105   103   ar
    41    34    35   ar
    42    34    33    1
    43    97    98    1
    44    29    23   am
    45    29    30    1
    46    23    24    2
    47   101    98    1
    48    33    30    1
    49    98    99    1
    50    30    31    1
    51    99   100    2
    52    31    32    2
    53    45    43    1
    54   117   115   ar
    55   117   118   ar
    56   115   114   ar
    57    43    40    1
    58    43    44    1
    59    39    40    1
    60   118   120   ar
    61   118   116   ar
    62   114   113    1
    63   114   116   ar
    64   109   110    1
    65   113   110    1
    66    40    41    1
    67   120   122   ar
    68   116   119   ar
    69   110   111    1
    70   122   121   ar
    71    41    42    2
    72   111   112    2
    73   119   121   ar
    74   129   128    1
    75    46    47    1
    76    50    47    1
    77    50    51    1
    78    53    51    1
    79   128   127    1
    80   128   130    1
    81   123   124    1
    82   127   124    1
    83    52    51    1
    84    47    48    1
    85    88    87    2
    86    90    89    1
    87   124   125    1
    88    87    86    1
    89    48    49    2
    90   125   126    2
    91    89    86    1
    92    89    91    1
    93    86    85    1
    94    80    79    2
    95    83    81    1
    96    82    84    1
    97    82    81    1
    98    78    79    1
    99    78    81    1
   100    78    77    1
   101    73    72    2
   102    75    74    1
   103    77    72   am
   104    72    71    1
   105    74    71    1
   106    74    76    1
   107    71    70    1
   108    68    67    2
   109    67    66    1
   110    64    62   ar
   111    64    63   ar
   112    69    66    1
   113    66    65    1
   114    62    60   ar
   115    63    61   ar
   116    60    59   ar
   117    61    59   ar
   118    59    58    1
   119    57    56    2
   120    56    55    1
   121    58    55    1
   122    55    54    1
