@<TRIPOS>MOLECULE
tmp/3oduB04.pdb
 104 97 0 0 0
SMALL
GASTEIGER

@<TRIPOS>ATOM
      1  N         -2.8200    4.2390   72.8860 N.3   169  VAL169     -0.1231
      2  CA        -2.7780    5.6390   72.4590 C.3   169  VAL169      0.1692
      3  C         -1.5850    5.8980   71.5540 C.2   169  VAL169      0.2591
      4  O         -1.7020    6.6030   70.5630 O.2   169  VAL169     -0.2718
      5  CB        -2.7370    6.6330   73.6450 C.3   169  VAL169      0.0266
      6  CG1       -2.5810    8.0770   73.1300 C.3   169  VAL169      0.0020
      7  CG2       -3.9790    6.4970   74.5030 C.3   169  VAL169      0.0020
      8  N         -0.4360    5.3150   71.8470 N.am  170  VAL170     -0.1980
      9  CA         0.7020    5.5680   70.9690 C.3   170  VAL170      0.1595
     10  C          0.6050    4.8070   69.6360 C.2   170  VAL170      0.2287
     11  O          0.9900    5.3500   68.5800 O.2   170  VAL170     -0.2864
     12  CB         2.0260    5.3340   71.6550 C.3   170  VAL170      0.0276
     13  CG1        3.1720    5.6550   70.6910 C.3   170  VAL170      0.0022
     14  CG2        2.1220    6.2340   72.8830 C.3   170  VAL170      0.0022
     15  N         -1.9980    6.7620   67.4000 N.3   173  GLN173     -0.1231
     16  CA        -1.4490    8.0170   66.9880 C.3   173  GLN173      0.1698
     17  C         -0.4400    7.7480   65.8900 C.2   173  GLN173      0.2592
     18  O         -0.4990    8.4110   64.8490 O.2   173  GLN173     -0.2718
     19  CB        -0.7860    8.7820   68.1310 C.3   173  GLN173      0.0381
     20  CG        -0.2520   10.1520   67.6660 C.3   173  GLN173      0.0905
     21  CD        -1.3680   11.0600   67.1560 C.2   173  GLN173      0.2608
     22  OE1       -2.2810   11.4430   67.9040 O.2   173  GLN173     -0.2717
     23  NE2       -1.3090   11.3890   65.8780 N.am  173  GLN173     -0.0878
     24  N          0.4670    6.7810   66.0790 N.am  174  PHE174     -0.1976
     25  CA         1.4660    6.5420   65.0420 C.3   174  PHE174      0.1639
     26  C          0.8330    6.1800   63.6820 C.2   174  PHE174      0.2290
     27  O          1.2630    6.6900   62.6450 O.2   174  PHE174     -0.2864
     28  CB         2.5330    5.5200   65.4560 C.3   174  PHE174      0.0560
     29  CG         3.8400    5.6310   64.6740 C.ar  174  PHE174     -0.0200
     30  CD1        4.7920    4.6400   64.7710 C.ar  174  PHE174     -0.0042
     31  CD2        4.1190    6.7130   63.8360 C.ar  174  PHE174     -0.0042
     32  CE1        6.0120    4.7150   64.0580 C.ar  174  PHE174     -0.0003
     33  CE2        5.3240    6.7870   63.1180 C.ar  174  PHE174     -0.0003
     34  CZ         6.2640    5.7770   63.2330 C.ar  174  PHE174     -0.0000
     35  N         -0.7700    9.3330   62.0610 N.3   177  ILE177     -0.1231
     36  CA         0.2980   10.1400   61.4590 C.3   177  ILE177      0.1692
     37  C          0.8540    9.5000   60.1770 C.2   177  ILE177      0.2591
     38  O          1.3080   10.1950   59.2770 O.2   177  ILE177     -0.2718
     39  CB         1.4660   10.3410   62.4350 C.3   177  ILE177      0.0266
     40  CG1        1.0110   11.1220   63.6670 C.3   177  ILE177      0.0019
     41  CG2        2.6180   11.0480   61.7650 C.3   177  ILE177      0.0020
     42  CD1        2.0160   11.0680   64.8000 C.3   177  ILE177      0.0001
     43  N          0.7950    8.1770   60.0920 N.am  178  MET178     -0.1979
     44  CA         1.3900    7.4530   58.9800 C.3   178  MET178      0.1605
     45  C          0.4220    7.4670   57.7810 C.2   178  MET178      0.2287
     46  O          0.7460    8.0090   56.7200 O.2   178  MET178     -0.2864
     47  CB         1.7650    6.0230   59.4400 C.3   178  MET178      0.0413
     48  CG         2.9240    5.3760   58.7230 C.3   178  MET178      0.0598
     49  SD         4.4880    6.1780   59.1530 S.3   178  MET178     -0.1393
     50  CE         5.6220    5.4590   57.9600 C.3   178  MET178      0.0692
     51  N          2.1240   11.0710   56.3420 N.3   182  ILE182     -0.1245
     52  CA         3.4910   10.7280   55.9500 C.3   182  ILE182      0.1561
     53  C          3.4840    9.9270   54.6560 C.2   182  ILE182      0.2260
     54  O          4.2350   10.2340   53.7480 O.2   182  ILE182     -0.2867
     55  CB         4.2640    9.9520   57.0310 C.3   182  ILE182      0.0252
     56  CG1        4.7570   10.9300   58.1090 C.3   182  ILE182      0.0019
     57  CG2        5.4580    9.2170   56.4130 C.3   182  ILE182      0.0019
     58  CD1        5.2690   10.2400   59.3680 C.3   182  ILE182      0.0001
     59  N          4.4860   11.4020   51.1160 N.3   186  ILE186     -0.1245
     60  CA         5.5500   10.8060   50.3060 C.3   186  ILE186      0.1561
     61  C          5.1340   10.6910   48.8250 C.2   186  ILE186      0.2260
     62  O          5.9410   10.9390   47.9160 O.2   186  ILE186     -0.2867
     63  CB         6.0260    9.4230   50.8880 C.3   186  ILE186      0.0252
     64  CG1        6.8840    9.6650   52.1430 C.3   186  ILE186      0.0019
     65  CG2        6.8580    8.6090   49.8630 C.3   186  ILE186      0.0019
     66  CD1        6.9550    8.4780   53.0490 C.3   186  ILE186      0.0001
     67  N          0.1450   18.5920   67.8440 N.3   396  ILE396     -0.1245
     68  CA         0.2940   17.1450   68.0730 C.3   396  ILE396      0.1561
     69  C          1.7570   16.7650   68.3120 C.2   396  ILE396      0.2260
     70  O          2.0630   15.8930   69.1500 O.2   396  ILE396     -0.2867
     71  CB        -0.2670   16.3600   66.8510 C.3   396  ILE396      0.0252
     72  CG1       -1.8080   16.3590   66.8930 C.3   396  ILE396      0.0019
     73  CG2        0.2730   14.9240   66.7900 C.3   396  ILE396      0.0019
     74  CD1       -2.3890   15.6430   68.0910 C.3   396  ILE396      0.0001
     75  N          2.6570   17.8150   71.9390 N.3   399  ASP399     -0.1225
     76  CA         2.1490   16.7120   72.7740 C.3   399  ASP399      0.1805
     77  C          3.0060   15.4430   72.7130 C.2   399  ASP399      0.2598
     78  O          3.3960   14.9140   73.7450 O.2   399  ASP399     -0.2718
     79  CB         0.7080   16.3540   72.3650 C.3   399  ASP399      0.1424
     80  CG        -0.1870   16.0810   73.5500 C.2   399  ASP399      0.3668
     81  OD1       -1.1600   15.3040   73.3770 O.co2 399  ASP399     -0.2456
     82  OD2        0.0650   16.6610   74.6340 O.co2 399  ASP399     -0.2456
     83  N          3.2860   14.9460   71.5180 N.am  400  SER400     -0.1952
     84  CA         4.3340   13.9220   71.3470 C.3   400  SER400      0.1924
     85  C          5.6250   14.2150   72.1350 C.2   400  SER400      0.2314
     86  O          6.1720   13.3070   72.7710 O.2   400  SER400     -0.2863
     87  CB         4.6850   13.7370   69.8790 C.3   400  SER400      0.2116
     88  OG         3.5160   13.3710   69.1710 O.3   400  SER400     -0.2180
     89  N          4.9910   13.4040   75.8550 N.3   403  LEU403     -0.1231
     90  CA         4.9450   11.9620   76.1180 C.3   403  LEU403      0.1693
     91  C          6.3120   11.2560   76.0420 C.2   403  LEU403      0.2591
     92  O          6.6780   10.4890   76.9460 O.2   403  LEU403     -0.2718
     93  CB         3.9590   11.2930   75.1630 C.3   403  LEU403      0.0284
     94  CG         2.4660   11.6120   75.3700 C.3   403  LEU403      0.0019
     95  CD1        1.6280   10.7260   74.4300 C.3   403  LEU403      0.0001
     96  CD2        2.0340   11.4370   76.8540 C.3   403  LEU403      0.0001
     97  N          7.0530   11.5370   74.9750 N.am  404  LEU404     -0.1980
     98  CA         8.3820   10.9810   74.7440 C.3   404  LEU404      0.1596
     99  C          9.4910   11.6390   75.5830 C.2   404  LEU404      0.2287
    100  O         10.6830   11.3530   75.3760 O.2   404  LEU404     -0.2864
    101  CB         8.7350   11.1450   73.2660 C.3   404  LEU404      0.0297
    102  CG         7.8010   10.4460   72.2780 C.3   404  LEU404      0.0022
    103  CD1        8.2680   10.6850   70.8150 C.3   404  LEU404      0.0001
    104  CD2        7.6630    8.9620   72.5980 C.3   404  LEU404      0.0001
@<TRIPOS>BOND
     1    62    61    2
     2    61    60    1
     3    65    63    1
     4    60    63    1
     5    60    59    1
     6    63    64    1
     7    64    66    1
     8    54    53    2
     9    53    52    1
    10    52    51    1
    11    52    55    1
    12    57    55    1
    13    46    45    2
    14    55    56    1
    15    45    44    1
    16    50    49    1
    17    56    58    1
    18    48    49    1
    19    48    47    1
    20    44    47    1
    21    44    43    1
    22    38    37    2
    23    43    37   am
    24    37    36    1
    25    36    35    1
    26    36    39    1
    27    41    39    1
    28    39    40    1
    29    27    26    2
    30    33    34   ar
    31    33    31   ar
    32    34    32   ar
    33    40    42    1
    34    26    25    1
    35    31    29   ar
    36    32    30   ar
    37    29    30   ar
    38    29    28    1
    39    18    17    2
    40    25    28    1
    41    25    24    1
    42    23    21   am
    43    17    24   am
    44    17    16    1
    45    73    71    1
    46    71    72    1
    47    71    68    1
    48    72    74    1
    49    16    15    1
    50    16    19    1
    51    21    20    1
    52    21    22    2
    53    20    19    1
    54    67    68    1
    55    68    69    1
    56    69    70    2
    57    11    10    2
    58    88    87    1
    59    10     9    1
    60    87    84    1
    61     4     3    2
    62    13    12    1
    63   103   102    1
    64     9    12    1
    65     9     8    1
    66    84    83    1
    67    84    85    1
    68    83    77   am
    69     3     8   am
    70     3     2    1
    71    12    14    1
    72    75    76    1
    73    85    86    2
    74   102   104    1
    75   102   101    1
    76    79    76    1
    77    79    80    1
    78     2     1    1
    79     2     5    1
    80    77    76    1
    81    77    78    2
    82     6     5    1
    83   101    98    1
    84    81    80   ar
    85    80    82   ar
    86     5     7    1
    87    95    94    1
    88    98    97    1
    89    98    99    1
    90    97    91   am
    91    93    94    1
    92    93    90    1
    93    94    96    1
    94   100    99    2
    95    89    90    1
    96    91    90    1
    97    91    92    2
