@<TRIPOS>MOLECULE
tmp/3oduA00.pdb
 210 205 0 0 0
SMALL
GASTEIGER

@<TRIPOS>ATOM
      1  N         18.7850  -13.9720   81.3260 N.3     6  GLU6       -0.1245
      2  CA        19.2330  -14.5770   80.0770 C.3     6  GLU6        0.1567
      3  C         19.4200  -16.0700   80.2260 C.2     6  GLU6        0.2260
      4  O         19.9600  -16.5230   81.1780 O.2     6  GLU6       -0.2867
      5  CB        20.4920  -13.9470   79.5230 C.3     6  GLU6        0.0388
      6  CG        20.7710  -12.5680   79.9620 C.3     6  GLU6        0.1160
      7  CD        19.9340  -11.5310   79.3040 C.2     6  GLU6        0.3649
      8  OE1       19.9020  -10.4380   79.8580 O.co2   6  GLU6       -0.2457
      9  OE2       19.3120  -11.7610   78.2580 O.co2   6  GLU6       -0.2457
     10  N         22.9460  -19.6980   75.0880 N.3    12  LYS12      -0.1245
     11  CA        24.3580  -19.3030   74.9460 C.3    12  LYS12       0.1561
     12  C         25.0490  -20.3460   74.0870 C.2    12  LYS12       0.2260
     13  O         26.2080  -20.2940   73.8690 O.2    12  LYS12      -0.2867
     14  CB        25.1160  -19.3200   76.2680 C.3    12  LYS12       0.0271
     15  CG        24.3040  -19.1030   77.5000 C.3    12  LYS12       0.0035
     16  CD        24.8930  -17.9360   78.3040 C.3    12  LYS12       0.0206
     17  CE        23.9490  -16.7310   78.3610 C.3    12  LYS12       0.1093
     18  NZ        23.6490  -16.2940   79.7500 N.3    12  LYS12      -0.1314
     19  N         22.2620  -19.7630   69.7910 N.3    15  LEU15      -0.1245
     20  CA        22.3950  -18.5470   68.9670 C.3    15  LEU15       0.1561
     21  C         23.7770  -18.3850   68.2960 C.2    15  LEU15       0.2260
     22  O         23.8310  -18.2350   67.0810 O.2    15  LEU15      -0.2867
     23  CB        21.9980  -17.2900   69.7430 C.3    15  LEU15       0.0270
     24  CG        20.5290  -17.2260   70.1900 C.3    15  LEU15       0.0019
     25  CD1       20.3100  -16.2130   71.3200 C.3    15  LEU15       0.0001
     26  CD2       19.6180  -16.9470   69.0040 C.3    15  LEU15       0.0001
     27  N         24.3030  -18.1630   64.3820 N.3    19  TYR19      -0.1241
     28  CA        24.9960  -16.9950   63.8520 C.3    19  TYR19       0.1605
     29  C         26.2470  -17.3840   63.0390 C.2    19  TYR19       0.2264
     30  O         26.3990  -16.9540   61.9290 O.2    19  TYR19      -0.2867
     31  CB        25.3850  -16.0540   64.9880 C.3    19  TYR19       0.0534
     32  CG        24.2180  -15.4530   65.7360 C.ar   19  TYR19      -0.0201
     33  CD1       22.9890  -15.1840   65.0940 C.ar   19  TYR19      -0.0009
     34  CD2       24.3360  -15.1280   67.0710 C.ar   19  TYR19      -0.0009
     35  CE1       21.9350  -14.6400   65.7900 C.ar   19  TYR19       0.0417
     36  CE2       23.2720  -14.5690   67.7750 C.ar   19  TYR19       0.0417
     37  CZ        22.0820  -14.3310   67.1430 C.ar   19  TYR19       0.1957
     38  OH        21.0380  -13.7690   67.8510 O.3    19  TYR19      -0.2866
     39  N         30.1730  -10.5530   65.9040 N.3    67  PHE67      -0.1227
     40  CA        29.9370   -9.7330   67.0840 C.3    67  PHE67       0.1736
     41  C         28.7050  -10.2420   67.8390 C.2    67  PHE67       0.2595
     42  O         28.6640  -10.2100   69.0750 O.2    67  PHE67      -0.2718
     43  CB        29.6940   -8.2780   66.7160 C.3    67  PHE67       0.0547
     44  CG        30.8570   -7.5870   66.0650 C.ar   67  PHE67      -0.0202
     45  CD1       31.8670   -7.0280   66.8380 C.ar   67  PHE67      -0.0042
     46  CD2       30.8990   -7.4130   64.6850 C.ar   67  PHE67      -0.0042
     47  CE1       32.9230   -6.3340   66.2480 C.ar   67  PHE67      -0.0003
     48  CE2       31.9560   -6.7250   64.0760 C.ar   67  PHE67      -0.0003
     49  CZ        32.9720   -6.1950   64.8600 C.ar   67  PHE67      -0.0000
     50  N         27.7010  -10.6890   67.0820 N.am   68  TRP68      -0.1976
     51  CA        26.4580  -11.1820   67.6620 C.3    68  TRP68       0.1640
     52  C         26.7450  -12.4540   68.4860 C.2    68  TRP68       0.2290
     53  O         26.2110  -12.6490   69.5890 O.2    68  TRP68      -0.2864
     54  CB        25.4610  -11.5430   66.5590 C.3    68  TRP68       0.0576
     55  CG        24.7800  -10.4360   65.8710 C.ar   68  TRP68       0.0006
     56  CD1       25.3350   -9.5080   65.0480 C.ar   68  TRP68       0.0946
     57  CD2       23.3610  -10.1720   65.8750 C.ar   68  TRP68       0.0152
     58  NE1       24.3570   -8.6570   64.5630 N.ar   68  TRP68      -0.2442
     59  CE2       23.1400   -9.0520   65.0530 C.ar   68  TRP68       0.0810
     60  CE3       22.2670  -10.7630   66.5170 C.ar   68  TRP68       0.0012
     61  CZ2       21.8630   -8.5100   64.8530 C.ar   68  TRP68       0.0191
     62  CZ3       21.0030  -10.2180   66.3270 C.ar   68  TRP68       0.0001
     63  CH2       20.8110   -9.1110   65.4960 C.ar   68  TRP68       0.0015
     64  N         28.7090  -11.6660   71.5730 N.3    71  ASP71      -0.1225
     65  CA        27.7410  -10.9920   72.4250 C.3    71  ASP71       0.1805
     66  C         26.8360  -12.0000   73.1070 C.2    71  ASP71       0.2597
     67  O         26.5420  -11.8760   74.2820 O.2    71  ASP71      -0.2718
     68  CB        26.9010  -10.0260   71.6130 C.3    71  ASP71       0.1424
     69  CG        25.8660   -9.3570   72.4330 C.2    71  ASP71       0.3668
     70  OD1       24.6600   -9.4920   72.1140 O.co2  71  ASP71      -0.2456
     71  OD2       26.2680   -8.7290   73.4320 O.co2  71  ASP71      -0.2456
     72  N         26.3750  -12.9960   72.3740 N.am   72  ALA72      -0.1979
     73  CA        25.4420  -13.9470   72.9340 C.3    72  ALA72       0.1597
     74  C         26.1510  -14.8320   73.9580 C.2    72  ALA72       0.2287
     75  O         25.5960  -15.1430   75.0050 O.2    72  ALA72      -0.2864
     76  CB        24.8010  -14.7860   71.8150 C.3    72  ALA72       0.0319
     77  N         29.7760   -7.8040   75.5470 N.3    76  TRP76      -0.1241
     78  CA        29.9930   -6.8320   74.5230 C.3    76  TRP76       0.1605
     79  C         31.3990   -6.2650   74.8560 C.2    76  TRP76       0.2264
     80  O         31.5570   -5.4520   75.7860 O.2    76  TRP76      -0.2867
     81  CB        28.9110   -5.7420   74.4790 C.3    76  TRP76       0.0550
     82  CG        29.1220   -4.8380   73.3310 C.ar   76  TRP76       0.0003
     83  CD1       29.6210   -3.5670   73.3590 C.ar   76  TRP76       0.0946
     84  CD2       28.9050   -5.1550   71.9570 C.ar   76  TRP76       0.0152
     85  NE1       29.7100   -3.0630   72.0840 N.ar   76  TRP76      -0.2442
     86  CE2       29.2750   -4.0200   71.2030 C.ar   76  TRP76       0.0810
     87  CE3       28.4250   -6.2940   71.2840 C.ar   76  TRP76       0.0012
     88  CZ2       29.1830   -3.9900   69.8110 C.ar   76  TRP76       0.0191
     89  CZ3       28.3230   -6.2590   69.9030 C.ar   76  TRP76       0.0001
     90  CH2       28.7060   -5.1190   69.1800 C.ar   76  TRP76       0.0015
     91  N         26.7910   -1.9440   64.4670 N.3    86  VAL86      -0.1231
     92  CA        26.1710   -3.2240   64.1750 C.3    86  VAL86       0.1692
     93  C         24.6410   -3.0860   64.1050 C.2    86  VAL86       0.2592
     94  O         24.0110   -3.7670   63.3070 O.2    86  VAL86      -0.2718
     95  CB        26.6450   -4.3710   65.1560 C.3    86  VAL86       0.0266
     96  CG1       28.1670   -4.5200   65.0850 C.3    86  VAL86       0.0020
     97  CG2       26.2120   -4.0980   66.5700 C.3    86  VAL86       0.0020
     98  N         24.0640   -2.2130   64.9310 N.am   87  HIS87      -0.1976
     99  CA        22.6420   -1.8150   64.8230 C.3    87  HIS87       0.1656
    100  C         22.3710   -1.1760   63.4520 C.2    87  HIS87       0.2291
    101  O         21.5630   -1.6810   62.6660 O.2    87  HIS87      -0.2864
    102  CB        22.2260   -0.8510   65.9600 C.3    87  HIS87       0.0771
    103  CG        21.9230   -1.5370   67.2550 C.ar   87  HIS87       0.0820
    104  ND1       22.8970   -1.8930   68.1570 N.ar   87  HIS87      -0.2267
    105  CD2       20.7550   -1.9560   67.7900 C.ar   87  HIS87       0.1154
    106  CE1       22.3450   -2.5160   69.1820 C.ar   87  HIS87       0.1986
    107  NE2       21.0430   -2.5580   68.9890 N.ar   87  HIS87      -0.2212
    108  N         22.3600   -3.7080   60.9120 N.3    90  TYR90      -0.1241
    109  CA        21.1660   -4.5090   61.0940 C.3    90  TYR90       0.1605
    110  C         19.9550   -3.8040   60.4820 C.2    90  TYR90       0.2264
    111  O         19.2730   -4.3640   59.6480 O.2    90  TYR90      -0.2867
    112  CB        20.9490   -4.8080   62.5880 C.3    90  TYR90       0.0534
    113  CG        19.6990   -5.5970   62.8730 C.ar   90  TYR90      -0.0201
    114  CD1       19.6670   -6.9870   62.6940 C.ar   90  TYR90      -0.0009
    115  CD2       18.5350   -4.9610   63.2750 C.ar   90  TYR90      -0.0009
    116  CE1       18.4960   -7.7360   62.9390 C.ar   90  TYR90       0.0417
    117  CE2       17.3690   -5.6950   63.5220 C.ar   90  TYR90       0.0417
    118  CZ        17.3630   -7.0800   63.3630 C.ar   90  TYR90       0.1957
    119  OH        16.1970   -7.7880   63.5990 O.3    90  TYR90      -0.2866
    120  N         28.3470   -8.1340   83.3090 N.3   157  ARG157     -0.1245
    121  CA        28.7110   -7.9850   81.9120 C.3   157  ARG157      0.1563
    122  C         28.3010   -6.6850   81.2500 C.2   157  ARG157      0.2260
    123  O         27.5360   -5.9530   81.7620 O.2   157  ARG157     -0.2867
    124  CB        28.1780   -9.1540   81.0970 C.3   157  ARG157      0.0307
    125  CG        26.6830   -9.2070   80.9410 C.3   157  ARG157      0.0489
    126  CD        26.2520  -10.0860   79.8270 C.3   157  ARG157      0.2205
    127  NE        26.4510   -9.4310   78.5670 N.pl3 157  ARG157     -0.0865
    128  CZ        26.3000  -10.0060   77.4070 C.cat 157  ARG157      0.5346
    129  NH1       26.5000   -9.3430   76.3290 N.pl3 157  ARG157      0.1354
    130  NH2       25.9490  -11.2300   77.3440 N.pl3 157  ARG157      0.1354
    131  N         26.1980   -4.8450   78.2770 N.3   159  ILE159     -0.1231
    132  CA        25.0310   -5.0150   77.4130 C.3   159  ILE159      0.1692
    133  C         24.9540   -3.9320   76.3240 C.2   159  ILE159      0.2592
    134  O         24.8290   -2.7690   76.6350 O.2   159  ILE159     -0.2718
    135  CB        23.7210   -4.9430   78.2650 C.3   159  ILE159      0.0266
    136  CG1       23.6310   -6.1200   79.2400 C.3   159  ILE159      0.0019
    137  CG2       22.4720   -4.9350   77.3770 C.3   159  ILE159      0.0020
    138  CD1       23.2330   -7.4500   78.5610 C.3   159  ILE159      0.0001
    139  N         25.0250   -4.3340   75.0560 N.am  160  CYS160     -0.1956
    140  CA        24.8020   -3.4360   73.8930 C.3   160  CYS160      0.1843
    141  C         23.3350   -3.5370   73.4450 C.2   160  CYS160      0.2625
    142  O         22.8600   -4.6260   73.1220 O.2   160  CYS160     -0.2714
    143  CB        25.7570   -3.7690   72.7350 C.3   160  CYS160      0.0997
    144  SG        25.3590   -3.0650   71.0940 S.3   160  CYS160     -0.0797
    145  N         22.6350   -2.3920   73.4630 N.am  161  ASP161     -0.1957
    146  CA        21.1850   -2.3270   73.2310 C.3   161  ASP161      0.1840
    147  C         20.7550   -0.9000   72.8870 C.2   161  ASP161      0.2621
    148  O         21.5790    0.0060   72.8760 O.2   161  ASP161     -0.2715
    149  CB        20.4500   -2.8230   74.4860 C.3   161  ASP161      0.1450
    150  CG        19.0600   -3.3620   74.1870 C.2   161  ASP161      0.3671
    151  OD1       18.5560   -3.1090   73.0800 O.co2 161  ASP161     -0.2456
    152  OD2       18.4680   -4.0220   75.0640 O.co2 161  ASP161     -0.2456
    153  N         19.4910   -0.6940   72.5670 N.am  162  ARG162     -0.1977
    154  CA        18.8770    0.6280   72.4060 C.3   162  ARG162      0.1597
    155  C         18.1520    1.0600   73.6360 C.2   162  ARG162      0.2287
    156  O         17.2330    0.4520   74.0390 O.2   162  ARG162     -0.2864
    157  CB        17.8420    0.6090   71.3300 C.3   162  ARG162      0.0334
    158  CG        18.2820    1.0810   70.0610 C.3   162  ARG162      0.0492
    159  CD        18.6100   -0.0360   69.1990 C.3   162  ARG162      0.2205
    160  NE        17.5720   -0.3830   68.2530 N.pl3 162  ARG162     -0.0865
    161  CZ        16.9040   -1.5190   68.2790 C.cat 162  ARG162      0.5346
    162  NH1       17.1400   -2.3890   69.2280 N.pl3 162  ARG162      0.1354
    163  NH2       16.0030   -1.7770   67.3700 N.pl3 162  ARG162      0.1354
    164  N          9.3370   -0.5690   62.6930 N.3   177  HIS177     -0.1241
    165  CA        10.0120   -1.7520   62.1320 C.3   177  HIS177      0.1621
    166  C          9.0150   -2.6560   61.3690 C.2   177  HIS177      0.2264
    167  O          9.2960   -3.1180   60.2630 O.2   177  HIS177     -0.2867
    168  CB        10.8110   -2.5410   63.1980 C.3   177  HIS177      0.0745
    169  CG        12.2550   -2.1370   63.2820 C.ar  177  HIS177      0.0817
    170  ND1       12.7430   -1.2810   64.2570 N.ar  177  HIS177     -0.2268
    171  CD2       13.3150   -2.4480   62.4960 C.ar  177  HIS177      0.1154
    172  CE1       14.0400   -1.0940   64.0730 C.ar  177  HIS177      0.1986
    173  NE2       14.4140   -1.7960   63.0150 N.ar  177  HIS177     -0.2212
    174  N          9.3590  -15.5970   63.4450 N.3   393  TYR393     -0.1241
    175  CA         9.7100  -14.3920   64.1840 C.3   393  TYR393      0.1605
    176  C          8.5660  -13.3720   64.2270 C.2   393  TYR393      0.2264
    177  O          8.3760  -12.7250   65.2490 O.2   393  TYR393     -0.2867
    178  CB        10.9700  -13.7570   63.5890 C.3   393  TYR393      0.0534
    179  CG        11.3140  -12.4060   64.1550 C.ar  393  TYR393     -0.0201
    180  CD1       11.9460  -12.2790   65.3870 C.ar  393  TYR393     -0.0009
    181  CD2       11.0020  -11.2470   63.4520 C.ar  393  TYR393     -0.0009
    182  CE1       12.2610  -11.0320   65.8970 C.ar  393  TYR393      0.0417
    183  CE2       11.3060   -9.9980   63.9600 C.ar  393  TYR393      0.0417
    184  CZ        11.9350   -9.8980   65.1710 C.ar  393  TYR393      0.1957
    185  OH        12.2240   -8.6390   65.6540 O.3   393  TYR393     -0.2866
    186  N         10.2410  -14.5750   75.2270 N.3   419  HIS419     -0.1241
    187  CA        11.4550  -13.8180   74.9590 C.3   419  HIS419      0.1621
    188  C         12.4940  -14.7030   74.2840 C.2   419  HIS419      0.2264
    189  O         13.1110  -14.2910   73.2990 O.2   419  HIS419     -0.2867
    190  CB        12.0330  -13.1800   76.2240 C.3   419  HIS419      0.0745
    191  CG        13.4510  -12.7090   76.0750 C.ar  419  HIS419      0.0817
    192  ND1       13.7860  -11.5550   75.3980 N.ar  419  HIS419     -0.2268
    193  CD2       14.6200  -13.2290   76.5290 C.ar  419  HIS419      0.1154
    194  CE1       15.0970  -11.3780   75.4540 C.ar  419  HIS419      0.1986
    195  NE2       15.6280  -12.3840   76.1290 N.ar  419  HIS419     -0.2212
    196  N         14.3500  -14.7440   70.2510 N.3   423  SER423     -0.1217
    197  CA        15.7740  -14.8790   69.9570 C.3   423  SER423      0.1889
    198  C         16.0400  -16.0640   69.0070 C.2   423  SER423      0.2288
    199  O         16.8130  -15.9550   68.0390 O.2   423  SER423     -0.2866
    200  CB        16.5790  -15.0370   71.2440 C.3   423  SER423      0.2089
    201  OG        16.7590  -13.7790   71.8790 O.3   423  SER423     -0.2183
    202  N         14.4330  -15.1660   65.3220 N.3   426  GLU426     -0.1245
    203  CA        15.1810  -14.1360   64.6610 C.3   426  GLU426      0.1567
    204  C         16.4900  -14.7260   64.0920 C.2   426  GLU426      0.2260
    205  O         16.8470  -14.5020   62.9190 O.2   426  GLU426     -0.2867
    206  CB        15.4870  -13.0410   65.6500 C.3   426  GLU426      0.0388
    207  CG        16.3490  -11.9750   65.0610 C.3   426  GLU426      0.1160
    208  CD        16.8240  -10.9970   66.0850 C.2   426  GLU426      0.3649
    209  OE1       16.8130   -9.8000   65.7410 O.co2 426  GLU426     -0.2457
    210  OE2       17.1980  -11.4150   67.2050 O.co2 426  GLU426     -0.2457
@<TRIPOS>BOND
     1   111   110    2
     2   167   166    2
     3   110   109    1
     4   108   109    1
     5   109   112    1
     6   166   165    1
     7    30    29    2
     8   165   164    1
     9   165   168    1
    10   171   173   ar
    11   171   169   ar
    12   112   113    1
    13   101   100    2
    14   114   113   ar
    15   114   116   ar
    16   113   115   ar
    17   205   204    2
    18   116   118   ar
    19   173   172   ar
    20    29    28    1
    21   168   169    1
    22   115   117   ar
    23   169   170   ar
    24    94    93    2
    25   118   117   ar
    26   118   119    1
    27   174   175    1
    28   100    99    1
    29   181   183   ar
    30   181   179   ar
    31   178   179    1
    32   178   175    1
    33    28    27    1
    34    28    31    1
    35   183   184   ar
    36   172   170   ar
    37    48    46   ar
    38    48    49   ar
    39   204   203    1
    40    93    92    1
    41    93    98   am
    42   179   180   ar
    43    92    91    1
    44    92    95    1
    45   175   176    1
    46   176   177    2
    47    58    56   ar
    48    58    59   ar
    49   203   202    1
    50   203   206    1
    51    46    44   ar
    52    99    98    1
    53    99   102    1
    54    61    59   ar
    55    61    63   ar
    56    49    47   ar
    57    31    32    1
    58    56    55   ar
    59    59    57   ar
    60   207   206    1
    61   207   208    1
    62    96    95    1
    63    33    32   ar
    64    33    35   ar
    65    95    97    1
    66   184   185    1
    67   184   182   ar
    68   180   182   ar
    69    63    62   ar
    70    32    34   ar
    71   209   208   ar
    72    35    37   ar
    73    55    57   ar
    74    55    54    1
    75    57    60   ar
    76    39    40    1
    77   102   103    1
    78    44    43    1
    79    44    45   ar
    80   208   210   ar
    81    47    45   ar
    82    62    60   ar
    83    54    51    1
    84    43    40    1
    85    34    36   ar
    86    22    21    2
    87    50    51    1
    88    50    41   am
    89    40    41    1
    90    37    36   ar
    91    37    38    1
    92   103   105   ar
    93   103   104   ar
    94   163   161    1
    95    51    52    1
    96   105   107   ar
    97    41    42    2
    98   199   198    2
    99   104   106   ar
   100   160   161    2
   101   160   159    1
   102   161   162    1
   103    21    20    1
   104    52    53    2
   105    20    23    1
   106    20    19    1
   107   107   106   ar
   108    26    24    1
   109   198   197    1
   110    90    88   ar
   111    90    89   ar
   112   159   158    1
   113    23    24    1
   114    88    86   ar
   115    89    87   ar
   116   197   196    1
   117   197   200    1
   118   158   157    1
   119    24    25    1
   120   144   143    1
   121    86    84   ar
   122    86    85   ar
   123   200   201    1
   124    87    84   ar
   125   157   154    1
   126    64    65    1
   127    68    65    1
   128    68    69    1
   129    76    73    1
   130    84    82   ar
   131    85    83   ar
   132    70    69   ar
   133    72    73    1
   134    72    66   am
   135   154   153    1
   136   154   155    1
   137    65    66    1
   138    69    71   ar
   139   153   147   am
   140   143   140    1
   141   148   147    2
   142   147   146    1
   143    73    74    1
   144   151   150   ar
   145    66    67    2
   146   142   141    2
   147   146   145    1
   148   146   149    1
   149   189   188    2
   150    82    83   ar
   151    82    81    1
   152   141   145   am
   153   141   140    1
   154   155   156    2
   155    13    12    2
   156   140   139    1
   157    74    75    2
   158    12    11    1
   159   150   149    1
   160   150   152   ar
   161   188   187    1
   162    81    78    1
   163    78    79    1
   164    78    77    1
   165    79    80    2
   166    11    10    1
   167    11    14    1
   168   187   186    1
   169   187   190    1
   170   139   133   am
   171   192   194   ar
   172   192   191   ar
   173   194   195   ar
   174   191   190    1
   175   191   193   ar
   176   195   193   ar
   177    14    15    1
   178   133   134    2
   179   133   132    1
   180   129   128    1
   181   130   128    1
   182   137   135    1
   183   128   127    2
   184   132   135    1
   185   132   131    1
   186    15    16    1
   187     9     7   ar
   188   135   136    1
   189    16    17    1
   190    17    18    1
   191   138   136    1
   192   127   126    1
   193     7     8   ar
   194     7     6    1
   195     5     6    1
   196     5     2    1
   197   126   125    1
   198     2     3    1
   199     2     1    1
   200     3     4    2
   201   125   124    1
   202   124   121    1
   203   122   123    2
   204   122   121    1
   205   121   120    1
