@<TRIPOS>MOLECULE
tmp/3oduA02.pdb
 137 129 0 0 0
SMALL
GASTEIGER

@<TRIPOS>ATOM
      1  N         14.1430   -9.8280   83.6070 N.3     4  ARG4       -0.1245
      2  CA        14.7790  -10.5170   82.4790 C.3     4  ARG4        0.1563
      3  C         16.0140  -11.2850   82.9480 C.2     4  ARG4        0.2260
      4  O         17.0070  -10.6910   83.3890 O.2     4  ARG4       -0.2867
      5  CB        15.1800   -9.5380   81.3700 C.3     4  ARG4        0.0307
      6  CG        15.8070  -10.2010   80.1310 C.3     4  ARG4        0.0489
      7  CD        14.7860  -10.4340   79.0300 C.3     4  ARG4        0.2205
      8  NE        13.6000  -11.1260   79.5410 N.pl3   4  ARG4       -0.0865
      9  CZ        12.3940  -11.0890   78.9840 C.cat   4  ARG4        0.5346
     10  NH1       12.1850  -10.3960   77.8710 N.pl3   4  ARG4        0.1354
     11  NH2       11.3870  -11.7480   79.5580 N.pl3   4  ARG4        0.1354
     12  N          9.8380    2.4150   72.9520 N.3   170  VAL170     -0.1231
     13  CA         9.8530    1.0320   72.5150 C.3   170  VAL170      0.1692
     14  C          8.7460    0.8130   71.5070 C.2   170  VAL170      0.2591
     15  O          8.9330    0.1060   70.5230 O.2   170  VAL170     -0.2718
     16  CB         9.7030   -0.0060   73.7070 C.3   170  VAL170      0.0266
     17  CG1        9.4930   -1.4590   73.1780 C.3   170  VAL170      0.0020
     18  CG2       10.9020    0.0860   74.6390 C.3   170  VAL170      0.0020
     19  N          7.5960    1.4230   71.7460 N.am  171  VAL171     -0.1980
     20  CA         6.4060    1.1660   70.9310 C.3   171  VAL171      0.1595
     21  C          6.4830    1.8990   69.5970 C.2   171  VAL171      0.2287
     22  O          6.2000    1.3260   68.5310 O.2   171  VAL171     -0.2864
     23  CB         5.1300    1.5850   71.6670 C.3   171  VAL171      0.0276
     24  CG1        3.9100    1.2820   70.7990 C.3   171  VAL171      0.0022
     25  CG2        5.0430    0.8610   73.0300 C.3   171  VAL171      0.0022
     26  N          9.0940   -0.0230   67.3960 N.3   174  GLN174     -0.1231
     27  CA         8.7290   -1.3440   66.9560 C.3   174  GLN174      0.1698
     28  C          7.7090   -1.2400   65.8480 C.2   174  GLN174      0.2592
     29  O          7.7970   -1.9850   64.8690 O.2   174  GLN174     -0.2718
     30  CB         8.1690   -2.1890   68.0910 C.3   174  GLN174      0.0381
     31  CG         7.8510   -3.6430   67.6470 C.3   174  GLN174      0.0905
     32  CD         9.0960   -4.4720   67.2860 C.2   174  GLN174      0.2608
     33  OE1        9.7140   -5.0870   68.1470 O.2   174  GLN174     -0.2717
     34  NE2        9.4330   -4.5160   66.0080 N.am  174  GLN174     -0.0878
     35  N          6.7410   -0.3270   65.9950 N.am  175  PHE175     -0.1976
     36  CA         5.7020   -0.1370   64.9900 C.3   175  PHE175      0.1639
     37  C          6.3130    0.2840   63.6410 C.2   175  PHE175      0.2290
     38  O          5.9680   -0.2890   62.6050 O.2   175  PHE175     -0.2864
     39  CB         4.6530    0.8710   65.4740 C.3   175  PHE175      0.0560
     40  CG         3.3180    0.7920   64.7480 C.ar  175  PHE175     -0.0200
     41  CD1        2.3170    1.6950   65.0530 C.ar  175  PHE175     -0.0042
     42  CD2        3.0540   -0.1840   63.7660 C.ar  175  PHE175     -0.0042
     43  CE1        1.0760    1.6550   64.3930 C.ar  175  PHE175     -0.0003
     44  CE2        1.8310   -0.2300   63.1080 C.ar  175  PHE175     -0.0003
     45  CZ         0.8400    0.6950   63.4140 C.ar  175  PHE175     -0.0000
     46  N          7.8430   -2.8640   61.9590 N.3   178  ILE178     -0.1231
     47  CA         6.7960   -3.6580   61.3470 C.3   178  ILE178      0.1692
     48  C          6.2340   -2.9840   60.1050 C.2   178  ILE178      0.2591
     49  O          5.9420   -3.6480   59.1300 O.2   178  ILE178     -0.2718
     50  CB         5.6280   -3.8660   62.3210 C.3   178  ILE178      0.0266
     51  CG1        6.0710   -4.6630   63.5500 C.3   178  ILE178      0.0019
     52  CG2        4.4920   -4.5670   61.6300 C.3   178  ILE178      0.0020
     53  CD1        5.0930   -4.5640   64.7130 C.3   178  ILE178      0.0001
     54  N          6.0660   -1.6930   60.1420 N.am  179  MET179     -0.1979
     55  CA         5.5810   -1.0090   58.9950 C.3   179  MET179      0.1605
     56  C          6.4950   -0.9800   57.8110 C.2   179  MET179      0.2287
     57  O          6.1910   -1.4600   56.7840 O.2   179  MET179     -0.2864
     58  CB         5.4410    0.4380   59.4170 C.3   179  MET179      0.0413
     59  CG         4.4860    1.2540   58.7170 C.3   179  MET179      0.0598
     60  SD         3.0000    0.6210   59.3500 S.3   179  MET179     -0.1393
     61  CE         1.7680    1.5780   58.5530 C.3   179  MET179      0.0692
     62  N          4.8060   -4.2910   56.1800 N.3   183  ILE183     -0.1245
     63  CA         3.4470   -3.9740   55.8210 C.3   183  ILE183      0.1561
     64  C          3.4170   -3.0520   54.6730 C.2   183  ILE183      0.2260
     65  O          2.5700   -3.1380   53.8830 O.2   183  ILE183     -0.2867
     66  CB         2.7340   -3.2040   56.8470 C.3   183  ILE183      0.0252
     67  CG1        2.8010   -4.0020   58.1210 C.3   183  ILE183      0.0019
     68  CG2        1.3640   -2.9210   56.3930 C.3   183  ILE183      0.0019
     69  CD1        1.6160   -4.0710   58.8260 C.3   183  ILE183      0.0001
     70  N          9.3590  -15.5970   63.4450 N.3   393  TYR393     -0.1241
     71  CA         9.7100  -14.3920   64.1840 C.3   393  TYR393      0.1605
     72  C          8.5660  -13.3720   64.2270 C.2   393  TYR393      0.2264
     73  O          8.3760  -12.7250   65.2490 O.2   393  TYR393     -0.2867
     74  CB        10.9700  -13.7570   63.5890 C.3   393  TYR393      0.0534
     75  CG        11.3140  -12.4060   64.1550 C.ar  393  TYR393     -0.0201
     76  CD1       11.9460  -12.2790   65.3870 C.ar  393  TYR393     -0.0009
     77  CD2       11.0020  -11.2470   63.4520 C.ar  393  TYR393     -0.0009
     78  CE1       12.2610  -11.0320   65.8970 C.ar  393  TYR393      0.0417
     79  CE2       11.3060   -9.9980   63.9600 C.ar  393  TYR393      0.0417
     80  CZ        11.9350   -9.8980   65.1710 C.ar  393  TYR393      0.1957
     81  OH        12.2240   -8.6390   65.6540 O.3   393  TYR393     -0.2866
     82  N          6.8230  -11.7950   67.7960 N.3   397  ILE397     -0.1245
     83  CA         6.6700  -10.3590   68.0310 C.3   397  ILE397      0.1561
     84  C          5.1960  -10.0010   68.2980 C.2   397  ILE397      0.2260
     85  O          4.8680   -9.1690   69.1550 O.2   397  ILE397     -0.2867
     86  CB         7.1710   -9.5710   66.7910 C.3   397  ILE397      0.0252
     87  CG1        8.6840   -9.7230   66.6290 C.3   397  ILE397      0.0019
     88  CG2        6.8370   -8.1080   66.9000 C.3   397  ILE397      0.0019
     89  CD1        9.4860   -9.1610   67.8110 C.3   397  ILE397      0.0001
     90  N          4.4690  -11.0060   71.8130 N.3   400  ASP400     -0.1225
     91  CA         4.9830   -9.9130   72.6510 C.3   400  ASP400      0.1805
     92  C          4.0970   -8.6710   72.6250 C.2   400  ASP400      0.2598
     93  O          3.8760   -8.0330   73.6680 O.2   400  ASP400     -0.2718
     94  CB         6.3910   -9.5100   72.2000 C.3   400  ASP400      0.1424
     95  CG         7.4800   -9.8320   73.2270 C.2   400  ASP400      0.3668
     96  OD1        8.6540   -9.5440   72.8890 O.co2 400  ASP400     -0.2456
     97  OD2        7.1980  -10.3450   74.3450 O.co2 400  ASP400     -0.2456
     98  N          3.6180   -8.3040   71.4310 N.am  401  SER401     -0.1952
     99  CA         2.6380   -7.2140   71.2830 C.3   401  SER401      0.1924
    100  C          1.3790   -7.4600   72.1120 C.2   401  SER401      0.2314
    101  O          0.8780   -6.5550   72.7680 O.2   401  SER401     -0.2863
    102  CB         2.2550   -7.0410   69.8240 C.3   401  SER401      0.2116
    103  OG         3.4150   -6.7700   69.0570 O.3   401  SER401     -0.2180
    104  N          2.1890   -6.5880   75.9830 N.3   404  LEU404     -0.1231
    105  CA         2.1980   -5.1500   76.2260 C.3   404  LEU404      0.1693
    106  C          0.8380   -4.4550   76.0730 C.2   404  LEU404      0.2591
    107  O          0.5050   -3.5170   76.8050 O.2   404  LEU404     -0.2718
    108  CB         3.1800   -4.4930   75.2670 C.3   404  LEU404      0.0284
    109  CG         4.6540   -4.7520   75.5690 C.3   404  LEU404      0.0019
    110  CD1        5.5090   -4.0760   74.4900 C.3   404  LEU404      0.0001
    111  CD2        4.9580   -4.2370   76.9820 C.3   404  LEU404      0.0001
    112  N          0.0690   -4.8890   75.0960 N.am  405  LEU405     -0.1980
    113  CA        -1.2140   -4.2890   74.8250 C.3   405  LEU405      0.1596
    114  C         -2.3380   -4.8820   75.6670 C.2   405  LEU405      0.2287
    115  O         -3.4800   -4.4650   75.5260 O.2   405  LEU405     -0.2864
    116  CB        -1.5350   -4.4600   73.3440 C.3   405  LEU405      0.0297
    117  CG        -0.6280   -3.6690   72.4110 C.3   405  LEU405      0.0022
    118  CD1       -1.1790   -3.7470   70.9900 C.3   405  LEU405      0.0001
    119  CD2       -0.4960   -2.2380   72.8550 C.3   405  LEU405      0.0001
    120  N         10.2410  -14.5750   75.2270 N.3   419  HIS419     -0.1241
    121  CA        11.4550  -13.8180   74.9590 C.3   419  HIS419      0.1621
    122  C         12.4940  -14.7030   74.2840 C.2   419  HIS419      0.2264
    123  O         13.1110  -14.2910   73.2990 O.2   419  HIS419     -0.2867
    124  CB        12.0330  -13.1800   76.2240 C.3   419  HIS419      0.0745
    125  CG        13.4510  -12.7090   76.0750 C.ar  419  HIS419      0.0817
    126  ND1       13.7860  -11.5550   75.3980 N.ar  419  HIS419     -0.2268
    127  CD2       14.6200  -13.2290   76.5290 C.ar  419  HIS419      0.1154
    128  CE1       15.0970  -11.3780   75.4540 C.ar  419  HIS419      0.1986
    129  NE2       15.6280  -12.3840   76.1290 N.ar  419  HIS419     -0.2212
    130  N         11.6860  -15.6880   70.5110 N.3   422  ILE422     -0.1245
    131  CA        11.9730  -14.5490   69.6380 C.3   422  ILE422      0.1561
    132  C         13.4720  -14.4890   69.2800 C.2   422  ILE422      0.2260
    133  O         13.8170  -14.2220   68.1360 O.2   422  ILE422     -0.2867
    134  CB        11.5390  -13.2070   70.2920 C.3   422  ILE422      0.0252
    135  CG1       10.0280  -13.0650   70.1990 C.3   422  ILE422      0.0019
    136  CG2       12.2050  -12.0220   69.6340 C.3   422  ILE422      0.0019
    137  CD1        9.5060  -11.8160   70.8280 C.3   422  ILE422      0.0001
@<TRIPOS>BOND
     1    65    64    2
     2    64    63    1
     3    63    62    1
     4    63    66    1
     5    68    66    1
     6    57    56    2
     7    66    67    1
     8    56    55    1
     9    67    69    1
    10    61    60    1
    11    59    60    1
    12    59    58    1
    13    55    58    1
    14    55    54    1
    15    49    48    2
    16    48    54   am
    17    48    47    1
    18    47    46    1
    19    47    50    1
    20    52    50    1
    21    50    51    1
    22    38    37    2
    23    44    45   ar
    24    44    42   ar
    25    45    43   ar
    26    70    71    1
    27    77    79   ar
    28    77    75   ar
    29    51    53    1
    30    74    75    1
    31    74    71    1
    32    37    36    1
    33    42    40   ar
    34    79    80   ar
    35    75    76   ar
    36    71    72    1
    37    72    73    2
    38    43    41   ar
    39    40    41   ar
    40    40    39    1
    41    29    28    2
    42    36    39    1
    43    36    35    1
    44    80    81    1
    45    80    78   ar
    46    76    78   ar
    47    28    35   am
    48    28    27    1
    49    34    32   am
    50    87    86    1
    51    87    89    1
    52    86    88    1
    53    86    83    1
    54    27    26    1
    55    27    30    1
    56    32    31    1
    57    32    33    2
    58    31    30    1
    59    82    83    1
    60    83    84    1
    61   133   132    2
    62    84    85    2
    63    22    21    2
    64   103   102    1
    65   132   131    1
    66    21    20    1
    67   136   134    1
    68   131   134    1
    69   131   130    1
    70   102    99    1
    71   135   134    1
    72   135   137    1
    73    15    14    2
    74    24    23    1
    75    20    23    1
    76    20    19    1
    77   118   117    1
    78    99    98    1
    79    99   100    1
    80    98    92   am
    81    14    19   am
    82    14    13    1
    83    23    25    1
    84    90    91    1
    85   100   101    2
    86    94    91    1
    87    94    95    1
    88   117   119    1
    89   117   116    1
    90    13    12    1
    91    13    16    1
    92    92    91    1
    93    92    93    2
    94    96    95   ar
    95    17    16    1
    96    95    97   ar
    97   123   122    2
    98   116   113    1
    99    16    18    1
   100   122   121    1
   101   110   109    1
   102   113   112    1
   103   113   114    1
   104   121   120    1
   105   121   124    1
   106   112   106   am
   107   108   109    1
   108   108   105    1
   109   126   128   ar
   110   126   125   ar
   111   128   129   ar
   112   115   114    2
   113   109   111    1
   114   104   105    1
   115   106   105    1
   116   106   107    2
   117   125   124    1
   118   125   127   ar
   119   129   127   ar
   120    10     9    1
   121     9     8    2
   122     9    11    1
   123     7     8    1
   124     7     6    1
   125     6     5    1
   126     5     2    1
   127     2     3    1
   128     2     1    1
   129     3     4    2
