@<TRIPOS>MOLECULE
tmp/3oduA03.pdb
 131 127 0 0 0
SMALL
GASTEIGER

@<TRIPOS>ATOM
      1  N         17.5980   -5.1130   57.2380 N.3    94  LEU94      -0.1245
      2  CA        16.1730   -5.4390   57.3040 C.3    94  LEU94       0.1561
      3  C         15.3640   -4.6130   56.2730 C.2    94  LEU94       0.2260
      4  O         14.4800   -5.1440   55.5830 O.2    94  LEU94      -0.2867
      5  CB        15.6010   -5.2020   58.7060 C.3    94  LEU94       0.0270
      6  CG        15.7720   -6.3090   59.7740 C.3    94  LEU94       0.0019
      7  CD1       14.5490   -6.3660   60.7240 C.3    94  LEU94       0.0001
      8  CD2       16.0300   -7.6840   59.1750 C.3    94  LEU94       0.0001
      9  N         14.1300   -6.3860   52.0450 N.3    98  VAL98      -0.1245
     10  CA        12.7020   -6.5300   51.7980 C.3    98  VAL98       0.1561
     11  C         12.2710   -5.5700   50.6960 C.2    98  VAL98       0.2260
     12  O         11.4930   -5.9410   49.8020 O.2    98  VAL98      -0.2867
     13  CB        11.8320   -6.3660   53.0970 C.3    98  VAL98       0.0252
     14  CG1       11.7640   -4.9110   53.5380 C.3    98  VAL98       0.0019
     15  CG2       10.4080   -7.0160   52.9130 C.3    98  VAL98       0.0019
     16  N          9.0940   -0.0230   67.3960 N.3   174  GLN174     -0.1245
     17  CA         8.7290   -1.3440   66.9560 C.3   174  GLN174      0.1566
     18  C          7.7090   -1.2400   65.8480 C.2   174  GLN174      0.2260
     19  O          7.7970   -1.9850   64.8690 O.2   174  GLN174     -0.2867
     20  CB         8.1690   -2.1890   68.0910 C.3   174  GLN174      0.0367
     21  CG         7.8510   -3.6430   67.6470 C.3   174  GLN174      0.0905
     22  CD         9.0960   -4.4720   67.2860 C.2   174  GLN174      0.2608
     23  OE1        9.7140   -5.0870   68.1470 O.2   174  GLN174     -0.2717
     24  NE2        9.4330   -4.5160   66.0080 N.am  174  GLN174     -0.0878
     25  N          9.3370   -0.5690   62.6930 N.3   177  HIS177     -0.1226
     26  CA        10.0120   -1.7520   62.1320 C.3   177  HIS177      0.1752
     27  C          9.0150   -2.6560   61.3690 C.2   177  HIS177      0.2595
     28  O          9.2960   -3.1180   60.2630 O.2   177  HIS177     -0.2718
     29  CB        10.8110   -2.5410   63.1980 C.3   177  HIS177      0.0759
     30  CG        12.2550   -2.1370   63.2820 C.ar  177  HIS177      0.0818
     31  ND1       12.7430   -1.2810   64.2570 N.ar  177  HIS177     -0.2268
     32  CD2       13.3150   -2.4480   62.4960 C.ar  177  HIS177      0.1154
     33  CE1       14.0400   -1.0940   64.0730 C.ar  177  HIS177      0.1986
     34  NE2       14.4140   -1.7960   63.0150 N.ar  177  HIS177     -0.2212
     35  N          7.8430   -2.8640   61.9590 N.am  178  ILE178     -0.1980
     36  CA         6.7960   -3.6580   61.3470 C.3   178  ILE178      0.1595
     37  C          6.2340   -2.9840   60.1050 C.2   178  ILE178      0.2287
     38  O          5.9420   -3.6480   59.1300 O.2   178  ILE178     -0.2864
     39  CB         5.6280   -3.8660   62.3210 C.3   178  ILE178      0.0276
     40  CG1        6.0710   -4.6630   63.5500 C.3   178  ILE178      0.0022
     41  CG2        4.4920   -4.5670   61.6300 C.3   178  ILE178      0.0022
     42  CD1        5.0930   -4.5640   64.7130 C.3   178  ILE178      0.0001
     43  N          9.3850   -2.4840   57.5270 N.3   181  GLY181     -0.1210
     44  CA         9.8130   -3.8340   57.4260 C.3   181  GLY181      0.1956
     45  C          8.9100   -4.8120   56.7880 C.2   181  GLY181      0.2612
     46  O          9.3600   -5.7000   56.1770 O.2   181  GLY181     -0.2717
     47  N          7.6260   -4.6980   57.0130 N.am  182  LEU182     -0.1965
     48  CA         6.7330   -5.6790   56.4970 C.3   182  LEU182      0.1728
     49  C          5.5270   -5.2430   55.6970 C.2   182  LEU182      0.2616
     50  O          5.2130   -5.7840   54.7020 O.2   182  LEU182     -0.2715
     51  CB         6.3920   -6.5780   57.6490 C.3   182  LEU182      0.0311
     52  CG         5.6110   -7.7740   57.3580 C.3   182  LEU182      0.0022
     53  CD1        6.3640   -8.5210   56.4740 C.3   182  LEU182      0.0001
     54  CD2        5.4430   -8.4410   58.6000 C.3   182  LEU182      0.0001
     55  N          4.8060   -4.2910   56.1800 N.am  183  ILE183     -0.1977
     56  CA         3.4470   -3.9740   55.8210 C.3   183  ILE183      0.1596
     57  C          3.4170   -3.0520   54.6730 C.2   183  ILE183      0.2287
     58  O          2.5700   -3.1380   53.8830 O.2   183  ILE183     -0.2864
     59  CB         2.7340   -3.2040   56.8470 C.3   183  ILE183      0.0276
     60  CG1        2.8010   -4.0020   58.1210 C.3   183  ILE183      0.0022
     61  CG2        1.3640   -2.9210   56.3930 C.3   183  ILE183      0.0022
     62  CD1        1.6160   -4.0710   58.8260 C.3   183  ILE183      0.0001
     63  N         11.5430  -15.9710   51.5280 N.3   386  PHE386     -0.1241
     64  CA        12.0120  -14.8780   52.3590 C.3   386  PHE386      0.1605
     65  C         10.9900  -14.7150   53.4590 C.2   386  PHE386      0.2264
     66  O         11.3280  -14.7410   54.6380 O.2   386  PHE386     -0.2867
     67  CB        12.1790  -13.5910   51.5410 C.3   386  PHE386      0.0534
     68  CG        12.5670  -12.3780   52.3530 C.ar  386  PHE386     -0.0203
     69  CD1       13.9170  -12.0410   52.5300 C.ar  386  PHE386     -0.0042
     70  CD2       11.5720  -11.5430   52.9120 C.ar  386  PHE386     -0.0042
     71  CE1       14.2670  -10.8960   53.2710 C.ar  386  PHE386     -0.0003
     72  CE2       11.9040  -10.3920   53.6660 C.ar  386  PHE386     -0.0003
     73  CZ        13.2390  -10.0570   53.8380 C.ar  386  PHE386     -0.0000
     74  N         11.0970  -15.4530   57.7830 N.3   390  TRP390     -0.1241
     75  CA        10.7440  -14.4180   58.7410 C.3   390  TRP390      0.1605
     76  C          9.4580  -14.6910   59.5050 C.2   390  TRP390      0.2264
     77  O          9.2110  -14.0410   60.5170 O.2   390  TRP390     -0.2867
     78  CB        10.6530  -13.0500   58.0430 C.3   390  TRP390      0.0550
     79  CG        11.9850  -12.4060   57.9070 C.ar  390  TRP390      0.0003
     80  CD1       12.7400  -12.2940   56.7740 C.ar  390  TRP390      0.0946
     81  CD2       12.7540  -11.8250   58.9590 C.ar  390  TRP390      0.0152
     82  NE1       13.9300  -11.6600   57.0510 N.ar  390  TRP390     -0.2442
     83  CE2       13.9680  -11.3650   58.3870 C.ar  390  TRP390      0.0810
     84  CE3       12.5400  -11.6470   60.3290 C.ar  390  TRP390      0.0012
     85  CZ2       14.9580  -10.7270   59.1380 C.ar  390  TRP390      0.0191
     86  CZ3       13.5450  -11.0050   61.0920 C.ar  390  TRP390      0.0001
     87  CH2       14.7320  -10.5540   60.4890 C.ar  390  TRP390      0.0015
     88  N          9.3590  -15.5970   63.4450 N.3   393  TYR393     -0.1227
     89  CA         9.7100  -14.3920   64.1840 C.3   393  TYR393      0.1736
     90  C          8.5660  -13.3720   64.2270 C.2   393  TYR393      0.2595
     91  O          8.3760  -12.7250   65.2490 O.2   393  TYR393     -0.2718
     92  CB        10.9700  -13.7570   63.5890 C.3   393  TYR393      0.0548
     93  CG        11.3140  -12.4060   64.1550 C.ar  393  TYR393     -0.0200
     94  CD1       11.9460  -12.2790   65.3870 C.ar  393  TYR393     -0.0009
     95  CD2       11.0020  -11.2470   63.4520 C.ar  393  TYR393     -0.0009
     96  CE1       12.2610  -11.0320   65.8970 C.ar  393  TYR393      0.0417
     97  CE2       11.3060   -9.9980   63.9600 C.ar  393  TYR393      0.0417
     98  CZ        11.9350   -9.8980   65.1710 C.ar  393  TYR393      0.1957
     99  OH        12.2240   -8.6390   65.6540 O.3   393  TYR393     -0.2866
    100  N          7.7980  -13.2090   63.1490 N.am  394  TYR394     -0.1976
    101  CA         6.6540  -12.2980   63.2350 C.3   394  TYR394      0.1639
    102  C          5.6340  -12.8160   64.2400 C.2   394  TYR394      0.2290
    103  O          4.9640  -12.0130   64.8870 O.2   394  TYR394     -0.2864
    104  CB         5.9290  -12.0800   61.9010 C.3   394  TYR394      0.0560
    105  CG         6.7610  -11.6340   60.7270 C.ar  394  TYR394     -0.0198
    106  CD1        7.8930  -10.8250   60.8790 C.ar  394  TYR394     -0.0009
    107  CD2        6.3860  -11.9990   59.4310 C.ar  394  TYR394     -0.0009
    108  CE1        8.6310  -10.4110   59.7670 C.ar  394  TYR394      0.0417
    109  CE2        7.1250  -11.5980   58.3210 C.ar  394  TYR394      0.0417
    110  CZ         8.2320  -10.8010   58.4990 C.ar  394  TYR394      0.1957
    111  OH         8.9160  -10.4000   57.3840 O.3   394  TYR394     -0.2866
    112  N          6.8230  -11.7950   67.7960 N.3   397  ILE397     -0.1231
    113  CA         6.6700  -10.3590   68.0310 C.3   397  ILE397      0.1692
    114  C          5.1960  -10.0010   68.2980 C.2   397  ILE397      0.2592
    115  O          4.8680   -9.1690   69.1550 O.2   397  ILE397     -0.2718
    116  CB         7.1710   -9.5710   66.7910 C.3   397  ILE397      0.0266
    117  CG1        8.6840   -9.7230   66.6290 C.3   397  ILE397      0.0019
    118  CG2        6.8370   -8.1080   66.9000 C.3   397  ILE397      0.0020
    119  CD1        9.4860   -9.1610   67.8110 C.3   397  ILE397      0.0001
    120  N          4.3200  -10.6510   67.5410 N.am  398  SER398     -0.1952
    121  CA         2.8700  -10.5210   67.7110 C.3   398  SER398      0.1924
    122  C          2.4410  -10.9960   69.0900 C.2   398  SER398      0.2314
    123  O          1.5560  -10.4120   69.6820 O.2   398  SER398     -0.2863
    124  CB         2.1400  -11.2700   66.5860 C.3   398  SER398      0.2116
    125  OG         2.5030  -10.7390   65.3080 O.3   398  SER398     -0.2180
    126  N          3.6180   -8.3040   71.4310 N.3   401  SER401     -0.1217
    127  CA         2.6380   -7.2140   71.2830 C.3   401  SER401      0.1889
    128  C          1.3790   -7.4600   72.1120 C.2   401  SER401      0.2288
    129  O          0.8780   -6.5550   72.7680 O.2   401  SER401     -0.2866
    130  CB         2.2550   -7.0410   69.8240 C.3   401  SER401      0.2089
    131  OG         3.4150   -6.7700   69.0570 O.3   401  SER401     -0.2183
@<TRIPOS>BOND
     1    12    11    2
     2    11    10    1
     3    63    64    1
     4    67    68    1
     5    67    64    1
     6    10     9    1
     7    10    13    1
     8    68    69   ar
     9    68    70   ar
    10    64    65    1
    11    69    71   ar
    12    70    72   ar
    13    15    13    1
    14    13    14    1
    15    71    73   ar
    16    65    66    2
    17    72    73   ar
    18    58    57    2
    19    57    56    1
    20    50    49    2
    21     4     3    2
    22    49    55   am
    23    49    48    1
    24    56    55    1
    25    56    59    1
    26    46    45    2
    27     3     2    1
    28    61    59    1
    29    53    52    1
    30    48    47    1
    31    48    51    1
    32    80    82   ar
    33    80    79   ar
    34    45    47   am
    35    45    44    1
    36    59    60    1
    37    82    83   ar
    38     1     2    1
    39     2     5    1
    40    52    51    1
    41    52    54    1
    42   111   110    1
    43    44    43    1
    44    74    75    1
    45    79    78    1
    46    79    81   ar
    47    78    75    1
    48    60    62    1
    49   109   110   ar
    50   109   107   ar
    51    83    81   ar
    52    83    85   ar
    53   110   108   ar
    54     5     6    1
    55    75    76    1
    56    81    84   ar
    57    38    37    2
    58    85    87   ar
    59     8     6    1
    60   107   105   ar
    61    76    77    2
    62   108   106   ar
    63     6     7    1
    64    37    36    1
    65    28    27    2
    66    84    86   ar
    67    87    86   ar
    68   105   106   ar
    69   105   104    1
    70    36    35    1
    71    36    39    1
    72    27    35   am
    73    27    26    1
    74    41    39    1
    75   104   101    1
    76    26    25    1
    77    26    29    1
    78    39    40    1
    79    32    34   ar
    80    32    30   ar
    81    34    33   ar
    82   100   101    1
    83   100    90   am
    84    29    30    1
    85   101   102    1
    86    30    31   ar
    87    88    89    1
    88    95    97   ar
    89    95    93   ar
    90    40    42    1
    91    92    93    1
    92    92    89    1
    93    97    98   ar
    94    33    31   ar
    95    93    94   ar
    96    89    90    1
    97    90    91    2
    98   102   103    2
    99    19    18    2
   100    98    99    1
   101    98    96   ar
   102   125   124    1
   103    94    96   ar
   104    18    17    1
   105    24    22   am
   106   124   121    1
   107   117   116    1
   108   117   119    1
   109   116   118    1
   110   116   113    1
   111    17    16    1
   112    17    20    1
   113    22    21    1
   114    22    23    2
   115   120   121    1
   116   120   114   am
   117    21    20    1
   118   121   122    1
   119   112   113    1
   120   113   114    1
   121   114   115    2
   122   131   130    1
   123   122   123    2
   124   130   127    1
   125   127   126    1
   126   127   128    1
   127   128   129    2
