@<TRIPOS>MOLECULE
tmp/3odzA01.pdb
 83 79 0 0 0
SMALL
GASTEIGER

@<TRIPOS>ATOM
      1  N         19.7860    5.8790    0.8250 N.3   108  ILE108     -0.1245
      2  CA        21.1650    5.7370    0.4080 C.3   108  ILE108      0.1561
      3  C         21.3000    4.5120   -0.4970 C.2   108  ILE108      0.2260
      4  O         22.0490    4.5260   -1.4520 O.2   108  ILE108     -0.2867
      5  CB        22.2220    5.7360    1.5800 C.3   108  ILE108      0.0252
      6  CG1       22.8600    4.3670    1.7420 C.3   108  ILE108      0.0019
      7  CG2       21.6830    6.3090    2.8740 C.3   108  ILE108      0.0019
      8  CD1       24.0790    4.2530    0.9370 C.3   108  ILE108      0.0001
      9  N         23.5810    5.0810   -3.7920 N.3   112  GLN112     -0.1231
     10  CA        25.0140    4.8540   -3.7160 C.3   112  GLN112      0.1698
     11  C         25.1890    3.3420   -3.7300 C.2   112  GLN112      0.2592
     12  O         24.3920    2.6280   -3.1180 O.2   112  GLN112     -0.2718
     13  CB        25.6250    5.4670   -2.4550 C.3   112  GLN112      0.0381
     14  CG        25.6770    7.0040   -2.4220 C.3   112  GLN112      0.0905
     15  CD        26.1360    7.5220   -1.0770 C.2   112  GLN112      0.2608
     16  OE1       25.4150    7.4290   -0.0970 O.2   112  GLN112     -0.2717
     17  NE2       27.3470    8.0380   -1.0190 N.am  112  GLN112     -0.0878
     18  N         26.2140    2.8670   -4.4380 N.am  113  LYS113     -0.1966
     19  CA        26.5130    1.4440   -4.5400 C.3   113  LYS113      0.1728
     20  C         27.4670    1.0580   -3.4130 C.2   113  LYS113      0.2616
     21  O         28.6360    1.4350   -3.3970 O.2   113  LYS113     -0.2715
     22  CB        27.1450    1.1220   -5.9000 C.3   113  LYS113      0.0311
     23  CG        26.9220   -0.3010   -6.3820 C.3   113  LYS113      0.0038
     24  CD        25.4430   -0.5430   -6.6650 C.3   113  LYS113      0.0206
     25  CE        25.2190   -1.7460   -7.5800 C.3   113  LYS113      0.1093
     26  NZ        25.7530   -3.0200   -7.0150 N.3   113  LYS113     -0.1314
     27  N         26.9650    0.2970   -2.4630 N.am  114  LEU114     -0.1963
     28  CA        27.7900   -0.0670   -1.3380 C.3   114  LEU114      0.1728
     29  C         28.7560   -1.2000   -1.6590 C.2   114  LEU114      0.2616
     30  O         28.5020   -2.0220   -2.5350 O.2   114  LEU114     -0.2715
     31  CB        26.9000   -0.3750   -0.1400 C.3   114  LEU114      0.0311
     32  CG        26.3010    0.9710    0.2210 C.3   114  LEU114      0.0022
     33  CD1       25.3140    0.8600    1.3290 C.3   114  LEU114      0.0001
     34  CD2       27.4560    1.8560    0.6120 C.3   114  LEU114      0.0001
     35  N         29.8980   -1.2010   -0.9850 N.am  115  THR115     -0.1951
     36  CA        30.8020   -2.3420   -1.0520 C.3   115  THR115      0.1897
     37  C         30.6530   -3.2640    0.1610 C.2   115  THR115      0.2313
     38  O         29.9860   -2.9310    1.1580 O.2   115  THR115     -0.2863
     39  CB        32.2660   -1.8970   -1.1710 C.3   115  THR115      0.1794
     40  OG1       32.5650   -0.9660   -0.1260 O.3   115  THR115     -0.2208
     41  CG2       32.4910   -1.2230   -2.5150 C.3   115  THR115      0.0378
     42  N         31.4330   -1.3250    3.2630 N.3   118  HIS118     -0.1241
     43  CA        30.3810   -0.4650    3.7840 C.3   118  HIS118      0.1621
     44  C         29.3690   -1.3220    4.5090 C.2   118  HIS118      0.2264
     45  O         28.9000   -0.9750    5.5870 O.2   118  HIS118     -0.2867
     46  CB        29.6550    0.2690    2.6690 C.3   118  HIS118      0.0745
     47  CG        30.5500    1.0390    1.7660 C.ar  118  HIS118      0.0817
     48  ND1       31.4940    1.9270    2.2360 N.ar  118  HIS118     -0.2268
     49  CD2       30.6300    1.0790    0.4180 C.ar  118  HIS118      0.1154
     50  CE1       32.1260    2.4670    1.2130 C.ar  118  HIS118      0.1986
     51  NE2       31.6210    1.9700    0.0980 N.ar  118  HIS118     -0.2212
     52  N         30.1140   -2.5520    7.9860 N.3   121  PHE121     -0.1227
     53  CA        30.0460   -1.4630    8.9340 C.3   121  PHE121      0.1736
     54  C         28.6210   -1.1760    9.3150 C.2   121  PHE121      0.2595
     55  O         28.2640   -1.1740   10.4800 O.2   121  PHE121     -0.2718
     56  CB        30.7180   -0.2340    8.3390 C.3   121  PHE121      0.0547
     57  CG        30.6900    0.9460    9.2320 C.ar  121  PHE121     -0.0202
     58  CD1       31.1700    0.8490   10.5250 C.ar  121  PHE121     -0.0042
     59  CD2       30.1810    2.1570    8.7850 C.ar  121  PHE121     -0.0042
     60  CE1       31.1590    1.9390   11.3670 C.ar  121  PHE121     -0.0003
     61  CE2       30.1690    3.2460    9.6030 C.ar  121  PHE121     -0.0003
     62  CZ        30.6600    3.1410   10.9090 C.ar  121  PHE121     -0.0000
     63  N         27.7950   -0.9830    8.3000 N.am  122  LEU122     -0.1980
     64  CA        26.3860   -0.7140    8.4830 C.3   122  LEU122      0.1596
     65  C         25.6440   -1.7050    9.3210 C.2   122  LEU122      0.2287
     66  O         24.8630   -1.3240   10.2020 O.2   122  LEU122     -0.2864
     67  CB        25.6950   -0.6210    7.1360 C.3   122  LEU122      0.0297
     68  CG        26.2300    0.6140    6.4240 C.3   122  LEU122      0.0022
     69  CD1       25.7490    0.6870    4.9790 C.3   122  LEU122      0.0001
     70  CD2       25.8520    1.8610    7.2360 C.3   122  LEU122      0.0001
     71  N         20.9170    7.4350    9.3110 N.3   150  VAL150     -0.1245
     72  CA        22.3640    7.6110    9.3430 C.3   150  VAL150      0.1561
     73  C         22.6860    9.1010    9.1700 C.2   150  VAL150      0.2260
     74  O         21.9270    9.8530    8.5400 O.2   150  VAL150     -0.2867
     75  CB        23.1290    6.7940    8.2480 C.3   150  VAL150      0.0252
     76  CG1       22.4650    5.4370    7.9520 C.3   150  VAL150      0.0019
     77  CG2       23.2780    7.6100    6.9830 C.3   150  VAL150      0.0019
     78  N         28.3710    8.7220    9.1570 N.3   154  CYS154     -0.1235
     79  CA        28.0710    7.3180    8.8970 C.3   154  CYS154      0.1677
     80  C         27.6690    6.5820   10.1750 C.2   154  CYS154      0.2270
     81  O         27.7210    5.3600   10.2480 O.2   154  CYS154     -0.2867
     82  CB        29.2560    6.6180    8.2210 C.3   154  CYS154      0.0956
     83  SG        29.9410    7.3810    6.6790 S.3   154  CYS154     -0.0801
@<TRIPOS>BOND
     1    25    26    1
     2    25    24    1
     3    24    23    1
     4    23    22    1
     5    22    19    1
     6    19    18    1
     7    19    20    1
     8    18    11   am
     9     9    10    1
    10    11    10    1
    11    11    12    2
    12    10    13    1
    13    20    21    2
    14    20    27   am
    15    30    29    2
    16    41    39    1
    17    27    28    1
    18    13    14    1
    19    14    15    1
    20    29    28    1
    21    29    35   am
    22     4     3    2
    23    28    31    1
    24    39    36    1
    25    39    40    1
    26    15    17   am
    27    15    16    2
    28    36    35    1
    29    36    37    1
    30     3     2    1
    31    31    32    1
    32    51    49   ar
    33    51    50   ar
    34    37    38    2
    35    32    34    1
    36    32    33    1
    37     2     1    1
    38     2     5    1
    39    49    47   ar
    40     8     6    1
    41    50    48   ar
    42     5     6    1
    43     5     7    1
    44    47    48   ar
    45    47    46    1
    46    46    43    1
    47    42    43    1
    48    43    44    1
    49    44    45    2
    50    69    68    1
    51    68    67    1
    52    68    70    1
    53    83    82    1
    54    77    75    1
    55    67    64    1
    56    76    75    1
    57    52    53    1
    58    82    79    1
    59    75    72    1
    60    63    64    1
    61    63    54   am
    62    56    53    1
    63    56    57    1
    64    64    65    1
    65    74    73    2
    66    59    57   ar
    67    59    61   ar
    68    79    78    1
    69    79    80    1
    70    53    54    1
    71    73    72    1
    72    57    58   ar
    73    71    72    1
    74    54    55    2
    75    65    66    2
    76    61    62   ar
    77    80    81    2
    78    58    60   ar
    79    62    60   ar
