@<TRIPOS>MOLECULE
tmp/3oe1B00.pdb
 75 71 0 0 0
SMALL
GASTEIGER

@<TRIPOS>ATOM
      1  N         -7.1660    4.0430   28.0780 N.3    23  VAL23      -0.1231
      2  CA        -7.5190    5.4570   28.0860 C.3    23  VAL23       0.1692
      3  C         -8.7950    5.6180   27.2660 C.2    23  VAL23       0.2592
      4  O         -8.8200    5.2910   26.0820 O.2    23  VAL23      -0.2718
      5  CB        -6.4130    6.3340   27.4740 C.3    23  VAL23       0.0266
      6  CG1       -6.7810    7.8080   27.5990 C.3    23  VAL23       0.0020
      7  CG2       -5.0730    6.0560   28.1430 C.3    23  VAL23       0.0020
      8  N         -9.8560    6.1060   27.8940 N.am   24  ALA24      -0.1966
      9  CA       -11.1490    6.2020   27.2190 C.3    24  ALA24       0.1728
     10  C        -11.1330    7.1720   26.0350 C.2    24  ALA24       0.2617
     11  O        -10.3380    8.1140   25.9910 O.2    24  ALA24      -0.2715
     12  CB       -12.2460    6.5910   28.2140 C.3    24  ALA24       0.0334
     13  N        -12.0200    6.9190   25.0780 N.am   25  GLY25      -0.1940
     14  CA       -12.2270    7.7890   23.9340 C.3    25  GLY25       0.2014
     15  C        -13.5210    7.3630   23.2630 C.2    25  GLY25       0.2638
     16  O        -13.8860    6.1950   23.3410 O.2    25  GLY25      -0.2714
     17  N        -14.2220    8.2890   22.6120 N.am   26  ASP26      -0.1971
     18  CA       -15.5340    7.9550   22.0520 C.3    26  ASP26       0.1709
     19  C        -15.5290    6.7560   21.0870 C.2    26  ASP26       0.2293
     20  O        -16.5640    6.1160   20.8840 O.2    26  ASP26      -0.2864
     21  CB       -16.2500    9.1850   21.4560 C.3    26  ASP26       0.1436
     22  CG       -15.5800    9.7290   20.2000 C.2    26  ASP26       0.3671
     23  OD1      -14.3770    9.4770   19.9790 O.co2  26  ASP26      -0.2456
     24  OD2      -16.2740   10.4420   19.4400 O.co2  26  ASP26      -0.2456
     25  N        -15.5330    3.5870   23.9480 N.3    29  LEU29      -0.1245
     26  CA       -16.3460    3.5650   25.1610 C.3    29  LEU29       0.1561
     27  C        -17.2090    2.3050   25.2690 C.2    29  LEU29       0.2260
     28  O        -17.2370    1.6560   26.3170 O.2    29  LEU29      -0.2867
     29  CB       -17.1920    4.8340   25.2690 C.3    29  LEU29       0.0270
     30  CG       -16.3810    6.1290   25.1820 C.3    29  LEU29       0.0019
     31  CD1      -17.2460    7.3350   25.4880 C.3    29  LEU29       0.0001
     32  CD2      -15.1890    6.0640   26.1270 C.3    29  LEU29       0.0001
     33  N         -1.5460    7.7460   26.5850 N.3    49  GLU49      -0.1245
     34  CA        -1.4720    6.4670   25.9000 C.3    49  GLU49       0.1567
     35  C         -0.0450    5.9130   25.8100 C.2    49  GLU49       0.2260
     36  O          0.1470    4.7010   25.7470 O.2    49  GLU49      -0.2867
     37  CB        -2.1400    6.5540   24.5190 C.3    49  GLU49       0.0388
     38  CG        -3.6580    6.7220   24.5770 C.3    49  GLU49       0.1160
     39  CD        -4.1060    8.1530   24.8700 C.2    49  GLU49       0.3649
     40  OE1       -3.2470    9.0360   25.1050 O.co2  49  GLU49      -0.2457
     41  OE2       -5.3350    8.3970   24.8520 O.co2  49  GLU49      -0.2457
     42  N         -7.9410    4.9130   22.0560 N.3    71  THR71      -0.1218
     43  CA        -8.8810    5.3610   21.0310 C.3    71  THR71       0.1862
     44  C         -8.1730    5.5290   19.6900 C.2    71  THR71       0.2287
     45  O         -6.9400    5.5380   19.6210 O.2    71  THR71      -0.2866
     46  CB        -9.5950    6.6720   21.4240 C.3    71  THR71       0.1770
     47  OG1      -10.7670    6.8350   20.6220 O.3    71  THR71      -0.2211
     48  CG2       -8.6780    7.8720   21.2400 C.3    71  THR71       0.0375
     49  N         -5.3770    9.3850   17.6940 N.3    74  VAL74      -0.1245
     50  CA        -4.8310   10.2350   18.7370 C.3    74  VAL74       0.1561
     51  C         -4.3750    9.3680   19.9080 C.2    74  VAL74       0.2260
     52  O         -3.4070    9.6930   20.5940 O.2    74  VAL74      -0.2867
     53  CB        -5.8240   11.3320   19.1880 C.3    74  VAL74       0.0252
     54  CG1       -6.1840   12.2250   18.0050 C.3    74  VAL74       0.0019
     55  CG2       -7.0790   10.7210   19.8110 C.3    74  VAL74       0.0019
     56  N        -13.2740   12.7010   12.9100 N.3   112  HIS112     -0.1226
     57  CA       -12.4200   13.2790   13.9440 C.3   112  HIS112      0.1752
     58  C        -11.3370   12.2990   14.3770 C.2   112  HIS112      0.2596
     59  O        -11.5160   11.0860   14.2930 O.2   112  HIS112     -0.2718
     60  CB       -13.2500   13.7140   15.1590 C.3   112  HIS112      0.0759
     61  CG       -13.7430   12.5780   15.9980 C.ar  112  HIS112      0.0818
     62  ND1      -14.7730   11.7510   15.6040 N.ar  112  HIS112     -0.2268
     63  CD2      -13.3530   12.1360   17.2170 C.ar  112  HIS112      0.1154
     64  CE1      -14.9930   10.8460   16.5410 C.ar  112  HIS112      0.1986
     65  NE2      -14.1450   11.0590   17.5320 N.ar  112  HIS112     -0.2212
     66  N        -10.2220   12.8450   14.8510 N.am  113  HIS113     -0.1975
     67  CA        -9.0760   12.0560   15.2970 C.3   113  HIS113      0.1656
     68  C         -8.2380   11.5290   14.1380 C.2   113  HIS113      0.2291
     69  O         -7.2730   10.8080   14.3520 O.2   113  HIS113     -0.2864
     70  CB        -9.5160   10.8990   16.2040 C.3   113  HIS113      0.0771
     71  CG        -9.9490   11.3330   17.5680 C.ar  113  HIS113      0.0820
     72  ND1       -9.8110   12.6280   18.0180 N.ar  113  HIS113     -0.2267
     73  CD2      -10.5280   10.6430   18.5800 C.ar  113  HIS113      0.1154
     74  CE1      -10.2760   12.7160   19.2520 C.ar  113  HIS113      0.1986
     75  NE2      -10.7190   11.5250   19.6150 N.ar  113  HIS113     -0.2212
@<TRIPOS>BOND
     1    56    57    1
     2    57    58    1
     3    57    60    1
     4    68    69    2
     5    68    67    1
     6    59    58    2
     7    58    66   am
     8    66    67    1
     9    60    61    1
    10    67    70    1
    11    62    61   ar
    12    62    64   ar
    13    61    63   ar
    14    70    71    1
    15    64    65   ar
    16    63    65   ar
    17    71    72   ar
    18    71    73   ar
    19    49    50    1
    20    54    53    1
    21    72    74   ar
    22    73    75   ar
    23    50    53    1
    24    50    51    1
    25    53    55    1
    26    74    75   ar
    27    24    22   ar
    28    45    44    2
    29    44    43    1
    30    51    52    2
    31    23    22   ar
    32    22    21    1
    33    47    46    1
    34    20    19    2
    35    43    46    1
    36    43    42    1
    37    19    18    1
    38    48    46    1
    39    21    18    1
    40    18    17    1
    41    17    15   am
    42    15    16    2
    43    15    14    1
    44    14    13    1
    45    25    26    1
    46    37    38    1
    47    37    34    1
    48    38    39    1
    49    41    39   ar
    50    39    40   ar
    51    13    10   am
    52    26    29    1
    53    26    27    1
    54    30    29    1
    55    30    31    1
    56    30    32    1
    57    27    28    2
    58    36    35    2
    59    35    34    1
    60    34    33    1
    61    11    10    2
    62    10     9    1
    63     4     3    2
    64     9     8    1
    65     9    12    1
    66     3     8   am
    67     3     2    1
    68     5     6    1
    69     5     2    1
    70     5     7    1
    71     1     2    1
