@<TRIPOS>MOLECULE
tmp/3oe1B01.pdb
 174 169 0 0 0
SMALL
GASTEIGER

@<TRIPOS>ATOM
      1  N          4.7310    3.7490   20.1870 N.3    81  ASP81      -0.1239
      2  CA         6.0730    3.8630   20.7330 C.3    81  ASP81       0.1674
      3  C          6.2780    2.7820   21.7810 C.2    81  ASP81       0.2266
      4  O          7.3120    2.1060   21.8030 O.2    81  ASP81      -0.2867
      5  CB         6.2570    5.2460   21.3550 C.3    81  ASP81       0.1410
      6  CG         7.7080    5.6020   21.5830 C.2    81  ASP81       0.3668
      7  OD1        8.5600    4.6960   21.6460 O.co2  81  ASP81      -0.2456
      8  OD2        8.0000    6.8020   21.7180 O.co2  81  ASP81      -0.2456
      9  N         25.0210   -1.6560   21.9770 N.3   289  TYR289     -0.1241
     10  CA        25.0740   -1.3310   23.3960 C.3   289  TYR289      0.1605
     11  C         25.5880   -2.4890   24.2460 C.2   289  TYR289      0.2264
     12  O         26.3540   -2.2770   25.1850 O.2   289  TYR289     -0.2867
     13  CB        23.7010   -0.8760   23.9040 C.3   289  TYR289      0.0534
     14  CG        23.4350    0.6070   23.7330 C.ar  289  TYR289     -0.0201
     15  CD1       24.1750    1.3690   22.8410 C.ar  289  TYR289     -0.0009
     16  CD2       22.4480    1.2430   24.4740 C.ar  289  TYR289     -0.0009
     17  CE1       23.9380    2.7240   22.6890 C.ar  289  TYR289      0.0417
     18  CE2       22.2070    2.5940   24.3320 C.ar  289  TYR289      0.0417
     19  CZ        22.9540    3.3300   23.4350 C.ar  289  TYR289      0.1957
     20  OH        22.7110    4.6790   23.2880 O.3   289  TYR289     -0.2866
     21  N         16.9820    3.6400   31.9280 N.3   382  THR382     -0.1203
     22  CA        18.1060    4.0480   31.0970 C.3   382  THR382      0.1994
     23  C         18.7340    5.3270   31.6320 C.2   382  THR382      0.2618
     24  O         18.0490    6.3260   31.8560 O.2   382  THR382     -0.2717
     25  CB        17.6660    4.2850   29.6430 C.3   382  THR382      0.1784
     26  OG1       17.2630    3.0410   29.0580 O.3   382  THR382     -0.2211
     27  CG2       18.8070    4.8770   28.8370 C.3   382  THR382      0.0376
     28  N         20.0500    5.2860   31.8070 N.am  383  GLY383     -0.1942
     29  CA        20.7950    6.3520   32.4440 C.3   383  GLY383      0.2014
     30  C         21.8710    5.6770   33.2710 C.2   383  GLY383      0.2639
     31  O         22.1590    4.4970   33.0720 O.2   383  GLY383     -0.2714
     32  N         22.4700    6.3990   34.2080 N.am  384  ASP384     -0.1957
     33  CA        23.4540    5.7590   35.0640 C.3   384  ASP384      0.1840
     34  C         22.8100    4.6820   35.9440 C.2   384  ASP384      0.2623
     35  O         23.4870    3.7680   36.3990 O.2   384  ASP384     -0.2715
     36  CB        24.2280    6.7790   35.8970 C.3   384  ASP384      0.1450
     37  CG        25.5870    6.2560   36.3180 C.2   384  ASP384      0.3671
     38  OD1       26.1210    5.3790   35.6080 O.co2 384  ASP384     -0.2456
     39  OD2       26.1120    6.7050   37.3560 O.co2 384  ASP384     -0.2456
     40  N         21.5010    4.7860   36.1650 N.am  385  SER385     -0.1936
     41  CA        20.7550    3.7510   36.8870 C.3   385  SER385      0.2055
     42  C         21.0060    2.3600   36.3130 C.2   385  SER385      0.2643
     43  O         21.0020    1.3740   37.0470 O.2   385  SER385     -0.2714
     44  CB        19.2490    4.0470   36.8670 C.3   385  SER385      0.2130
     45  OG        18.9370    5.1540   37.6920 O.3   385  SER385     -0.2179
     46  N         21.2030    2.2870   34.9960 N.am  386  TRP386     -0.1973
     47  CA        21.6040    1.0490   34.3420 C.3   386  TRP386      0.1640
     48  C         22.8330    0.4600   35.0050 C.2   386  TRP386      0.2290
     49  O         22.8880   -0.7310   35.3110 O.2   386  TRP386     -0.2864
     50  CB        21.9590    1.3130   32.8770 C.3   386  TRP386      0.0576
     51  CG        20.8300    1.1630   31.9060 C.ar  386  TRP386      0.0006
     52  CD1       19.5250    0.8870   32.1900 C.ar  386  TRP386      0.0946
     53  CD2       20.9150    1.2820   30.4820 C.ar  386  TRP386      0.0152
     54  NE1       18.7930    0.8300   31.0280 N.ar  386  TRP386     -0.2442
     55  CE2       19.6260    1.0680   29.9660 C.ar  386  TRP386      0.0810
     56  CE3       21.9590    1.5490   29.5930 C.ar  386  TRP386      0.0012
     57  CZ2       19.3540    1.1060   28.6020 C.ar  386  TRP386      0.0191
     58  CZ3       21.6840    1.5900   28.2380 C.ar  386  TRP386      0.0001
     59  CH2       20.3930    1.3720   27.7580 C.ar  386  TRP386      0.0015
     60  N         15.1740    1.1290   25.1710 N.3   407  GLY407     -0.1210
     61  CA        15.8700    2.2310   25.8160 C.3   407  GLY407      0.1956
     62  C         15.1390    3.5620   25.7700 C.2   407  GLY407      0.2612
     63  O         15.7560    4.6060   25.5570 O.2   407  GLY407     -0.2717
     64  N         13.8220    3.5210   25.9600 N.am  408  HIS408     -0.1961
     65  CA        12.9890    4.7220   25.9450 C.3   408  HIS408      0.1787
     66  C         12.9940    5.3570   27.3290 C.2   408  HIS408      0.2620
     67  O         12.3340    4.8610   28.2410 O.2   408  HIS408     -0.2715
     68  CB        11.5550    4.3560   25.5470 C.3   408  HIS408      0.0785
     69  CG        10.6370    5.5330   25.4080 C.ar  408  HIS408      0.0821
     70  ND1       10.3020    6.3450   26.4690 N.ar  408  HIS408     -0.2267
     71  CD2        9.9680    6.0210   24.3350 C.ar  408  HIS408      0.1154
     72  CE1        9.4760    7.2900   26.0540 C.ar  408  HIS408      0.1986
     73  NE2        9.2530    7.1120   24.7650 N.ar  408  HIS408     -0.2212
     74  N         13.7420    6.4420   27.5060 N.am  409  ILE409     -0.1977
     75  CA        13.7910    7.0630   28.8280 C.3   409  ILE409      0.1596
     76  C         12.3820    7.4760   29.2210 C.2   409  ILE409      0.2287
     77  O         11.6190    7.9780   28.3950 O.2   409  ILE409     -0.2864
     78  CB        14.7510    8.2660   28.8990 C.3   409  ILE409      0.0276
     79  CG1       14.2930    9.3730   27.9510 C.3   409  ILE409      0.0022
     80  CG2       16.1740    7.8320   28.5730 C.3   409  ILE409      0.0022
     81  CD1       14.8960   10.7060   28.2770 C.3   409  ILE409      0.0001
     82  N         16.3170    8.4100   36.9270 N.3   433  GLY433     -0.1210
     83  CA        16.9200    9.7300   36.9460 C.3   433  GLY433      0.1956
     84  C         15.9120   10.8340   36.6860 C.2   433  GLY433      0.2612
     85  O         14.8610   10.5960   36.0860 O.2   433  GLY433     -0.2717
     86  N         16.2300   12.0490   37.1320 N.am  434  ASP434     -0.1959
     87  CA        15.3430   13.1920   36.9100 C.3   434  ASP434      0.1840
     88  C         15.0340   13.4000   35.4270 C.2   434  ASP434      0.2623
     89  O         13.8940   13.6800   35.0580 O.2   434  ASP434     -0.2715
     90  CB        15.9140   14.4740   37.5240 C.3   434  ASP434      0.1450
     91  CG        17.3130   14.7920   37.0310 C.2   434  ASP434      0.3671
     92  OD1       18.0450   13.8490   36.6910 O.co2 434  ASP434     -0.2456
     93  OD2       17.6960   15.9810   37.0070 O.co2 434  ASP434     -0.2456
     94  N         16.0420   13.2550   34.5740 N.am  435  GLY435     -0.1940
     95  CA        15.8380   13.4440   33.1490 C.3   435  GLY435      0.2014
     96  C         14.7010   12.5770   32.6340 C.2   435  GLY435      0.2639
     97  O         13.7520   13.0800   32.0320 O.2   435  GLY435     -0.2714
     98  N         14.7990   11.2740   32.8910 N.am  436  SER436     -0.1949
     99  CA        13.8100   10.3030   32.4280 C.3   436  SER436      0.1924
    100  C         12.4510   10.5030   33.0840 C.2   436  SER436      0.2314
    101  O         11.4130   10.4140   32.4250 O.2   436  SER436     -0.2863
    102  CB        14.2970    8.8740   32.7100 C.3   436  SER436      0.2116
    103  OG        15.4610    8.5620   31.9620 O.3   436  SER436     -0.2180
    104  N          9.5380   12.6230   31.5060 N.3   439  LEU439     -0.1245
    105  CA         8.7700   12.2720   30.3100 C.3   439  LEU439      0.1561
    106  C          7.4100   11.6620   30.6490 C.2   439  LEU439      0.2260
    107  O          6.4740   11.7400   29.8580 O.2   439  LEU439     -0.2867
    108  CB         9.5490   11.3150   29.4040 C.3   439  LEU439      0.0270
    109  CG        10.7180   11.8800   28.6020 C.3   439  LEU439      0.0019
    110  CD1       12.0190   11.7320   29.3880 C.3   439  LEU439      0.0001
    111  CD2       10.8080   11.1870   27.2410 C.3   439  LEU439      0.0001
    112  N         16.8810   10.0990   40.9790 N.3   459  ILE459     -0.1245
    113  CA        18.2670   10.5360   41.0050 C.3   459  ILE459      0.1561
    114  C         18.3760   11.9270   40.3980 C.2   459  ILE459      0.2260
    115  O         18.4580   12.0860   39.1810 O.2   459  ILE459     -0.2867
    116  CB        19.2070    9.5610   40.2600 C.3   459  ILE459      0.0252
    117  CG1       18.9880    8.1170   40.7250 C.3   459  ILE459      0.0019
    118  CG2       20.6550    9.9660   40.4560 C.3   459  ILE459      0.0019
    119  CD1       19.1560    7.9050   42.2200 C.3   459  ILE459      0.0001
    120  N         20.5010   14.5790   39.5500 N.3   461  ASN461     -0.1240
    121  CA        21.8310   15.1100   39.2760 C.3   461  ASN461      0.1653
    122  C         21.7490   16.2380   38.2480 C.2   461  ASN461      0.2266
    123  O         22.7400   16.5820   37.5990 O.2   461  ASN461     -0.2867
    124  CB        22.7620   14.0000   38.7890 C.3   461  ASN461      0.1155
    125  CG        22.2910   13.3950   37.4970 C.2   461  ASN461      0.2627
    126  OD1       21.3710   13.9170   36.8810 O.2   461  ASN461     -0.2716
    127  ND2       22.9030   12.2950   37.0820 N.am  461  ASN461     -0.0877
    128  N         20.0810   16.9510   35.1310 N.3   463  GLY463     -0.1210
    129  CA        20.3010   16.8260   33.6960 C.3   463  GLY463      0.1956
    130  C         20.5230   15.3950   33.2490 C.2   463  GLY463      0.2612
    131  O         20.4680   14.4880   34.0660 O.2   463  GLY463     -0.2717
    132  N         20.7830   15.1930   31.9580 N.am  464  TYR464     -0.1962
    133  CA        21.0200   13.8560   31.4110 C.3   464  TYR464      0.1771
    134  C         22.4910   13.4490   31.4970 C.2   464  TYR464      0.2620
    135  O         23.2380   13.6060   30.5280 O.2   464  TYR464     -0.2715
    136  CB        20.6030   13.7930   29.9400 C.3   464  TYR464      0.0574
    137  CG        19.2120   14.2960   29.6320 C.ar  464  TYR464     -0.0198
    138  CD1       18.0940   13.7560   30.2530 C.ar  464  TYR464     -0.0009
    139  CD2       19.0170   15.2890   28.6840 C.ar  464  TYR464     -0.0009
    140  CE1       16.8200   14.2070   29.9490 C.ar  464  TYR464      0.0417
    141  CE2       17.7560   15.7450   28.3750 C.ar  464  TYR464      0.0417
    142  CZ        16.6610   15.2050   29.0080 C.ar  464  TYR464      0.1957
    143  OH        15.4110   15.6770   28.6880 O.3   464  TYR464     -0.2866
    144  N         22.9050   12.9120   32.6380 N.am  465  THR465     -0.1937
    145  CA        24.3160   12.5810   32.8400 C.3   465  THR465      0.2028
    146  C         24.8490   11.5570   31.8390 C.2   465  THR465      0.2642
    147  O         25.9520   11.7120   31.3180 O.2   465  THR465     -0.2714
    148  CB        24.5950   12.1110   34.2720 C.3   465  THR465      0.1808
    149  OG1       24.5800   13.2450   35.1410 O.3   465  THR465     -0.2208
    150  CG2       25.9690   11.4330   34.3610 C.3   465  THR465      0.0379
    151  N         24.0700   10.5160   31.5720 N.am  466  ILE466     -0.1963
    152  CA        24.4880    9.4890   30.6230 C.3   466  ILE466      0.1727
    153  C         24.8380   10.1010   29.2580 C.2   466  ILE466      0.2616
    154  O         25.7930    9.6760   28.6060 O.2   466  ILE466     -0.2715
    155  CB        23.4180    8.3850   30.4780 C.3   466  ILE466      0.0290
    156  CG1       23.8310    7.3580   29.4210 C.3   466  ILE466      0.0022
    157  CG2       22.0770    8.9930   30.1310 C.3   466  ILE466      0.0023
    158  CD1       22.9010    6.1590   29.3320 C.3   466  ILE466      0.0001
    159  N         24.0710   11.1080   28.8410 N.am  467  ASP467     -0.1971
    160  CA        24.3420   11.8150   27.5910 C.3   467  ASP467      0.1709
    161  C         25.5280   12.7660   27.7320 C.2   467  ASP467      0.2293
    162  O         26.2500   13.0160   26.7680 O.2   467  ASP467     -0.2864
    163  CB        23.1070   12.5830   27.1060 C.3   467  ASP467      0.1436
    164  CG        22.2450   11.7630   26.1670 C.2   467  ASP467      0.3671
    165  OD1       22.6960   10.6780   25.7430 O.co2 467  ASP467     -0.2456
    166  OD2       21.1250   12.2100   25.8360 O.co2 467  ASP467     -0.2456
    167  N         28.3600   10.7170   26.8760 N.3   470  ILE470     -0.1245
    168  CA        28.4550   10.2590   25.4970 C.3   470  ILE470      0.1561
    169  C         28.8830   11.4350   24.6350 C.2   470  ILE470      0.2260
    170  O         29.8560   11.3500   23.8870 O.2   470  ILE470     -0.2867
    171  CB        27.1220    9.6740   24.9790 C.3   470  ILE470      0.0252
    172  CG1       26.7670    8.3990   25.7440 C.3   470  ILE470      0.0019
    173  CG2       27.2080    9.3830   23.4780 C.3   470  ILE470      0.0019
    174  CD1       25.5580    7.6740   25.1950 C.3   470  ILE470      0.0001
@<TRIPOS>BOND
     1     1     2    1
     2     2     5    1
     3     2     3    1
     4     5     6    1
     5     6     7   ar
     6     6     8   ar
     7     3     4    2
     8     9    10    1
     9    17    15   ar
    10    17    19   ar
    11    15    14   ar
    12    20    19    1
    13    10    13    1
    14    10    11    1
    15    19    18   ar
    16   173   171    1
    17    14    13    1
    18    14    16   ar
    19   170   169    2
    20    11    12    2
    21    18    16   ar
    22    71    73   ar
    23    71    69   ar
    24   169   168    1
    25    73    72   ar
    26   171   168    1
    27   171   172    1
    28    60    61    1
    29   174   172    1
    30    69    68    1
    31    69    70   ar
    32   168   167    1
    33    68    65    1
    34    63    62    2
    35   165   164   ar
    36    62    61    1
    37    62    64   am
    38   166   164   ar
    39    65    64    1
    40    65    66    1
    41    72    70   ar
    42   164   163    1
    43   162   161    2
    44   163   160    1
    45   111   109    1
    46    66    74   am
    47    66    67    2
    48    74    75    1
    49   160   161    1
    50   160   159    1
    51    59    58   ar
    52    59    57   ar
    53    79    81    1
    54    79    78    1
    55    58    56   ar
    56   141   139   ar
    57   141   142   ar
    58    77    76    2
    59    80    78    1
    60   109   110    1
    61   109   108    1
    62    57    55   ar
    63   154   153    2
    64   139   137   ar
    65   143   142    1
    66    75    78    1
    67    75    76    1
    68    27    25    1
    69   159   153   am
    70   142   140   ar
    71    26    25    1
    72   153   152    1
    73   158   156    1
    74   108   105    1
    75   156   155    1
    76    56    53   ar
    77   137   136    1
    78   137   138   ar
    79    25    22    1
    80   107   106    2
    81   136   133    1
    82   140   138   ar
    83    55    53   ar
    84    55    54   ar
    85   157   155    1
    86   105   106    1
    87   105   104    1
    88   155   152    1
    89    53    51   ar
    90   135   134    2
    91   152   151    1
    92    54    52   ar
    93    22    23    1
    94    22    21    1
    95   147   146    2
    96   133   134    1
    97   133   132    1
    98   134   144   am
    99   151   146   am
   100    23    28   am
   101    23    24    2
   102    28    29    1
   103   146   145    1
   104    51    52   ar
   105    51    50    1
   106   132   130   am
   107   103   102    1
   108    97    96    2
   109   101   100    2
   110    99   102    1
   111    99    98    1
   112    99   100    1
   113    29    30    1
   114    96    98   am
   115    96    95    1
   116   144   145    1
   117   145   148    1
   118    50    47    1
   119    31    30    2
   120    95    94    1
   121   130   129    1
   122   130   131    2
   123    30    32   am
   124   129   128    1
   125    32    33    1
   126   148   150    1
   127   148   149    1
   128    47    46    1
   129    47    48    1
   130    94    88   am
   131    46    42   am
   132    48    49    2
   133    89    88    2
   134    33    36    1
   135    33    34    1
   136    88    87    1
   137    38    37   ar
   138    36    37    1
   139    34    40   am
   140    34    35    2
   141    85    84    2
   142    40    41    1
   143    42    41    1
   144    42    43    2
   145    37    39   ar
   146    84    83    1
   147    84    86   am
   148    92    91   ar
   149    44    41    1
   150    44    45    1
   151   126   125    2
   152    87    86    1
   153    87    90    1
   154    82    83    1
   155    93    91   ar
   156    91    90    1
   157   127   125   am
   158   125   124    1
   159   123   122    2
   160   122   121    1
   161   124   121    1
   162   115   114    2
   163   121   120    1
   164   116   118    1
   165   116   117    1
   166   116   113    1
   167   114   113    1
   168   117   119    1
   169   112   113    1
