@<TRIPOS>MOLECULE
tmp/3oe4A00.pdb
 199 194 0 0 0
SMALL
GASTEIGER

@<TRIPOS>ATOM
      1  N         35.2900  -29.0970   10.6460 N.3    36  TRP36      -0.1241
      2  CA        34.1240  -28.6260    9.8880 C.3    36  TRP36       0.1605
      3  C         32.8470  -28.9250   10.6370 C.2    36  TRP36       0.2264
      4  O         32.6590  -30.0090   11.1670 O.2    36  TRP36      -0.2867
      5  CB        34.0810  -29.2470    8.5010 C.3    36  TRP36       0.0550
      6  CG        33.0320  -28.5590    7.6100 C.ar   36  TRP36       0.0003
      7  CD1       33.2420  -27.4770    6.8090 C.ar   36  TRP36       0.0946
      8  CD2       31.6460  -28.8760    7.5030 C.ar   36  TRP36       0.0152
      9  NE1       32.0790  -27.1230    6.1600 N.ar   36  TRP36      -0.2442
     10  CE2       31.0780  -27.9520    6.5720 C.ar   36  TRP36       0.0810
     11  CE3       30.8390  -29.8530    8.0540 C.ar   36  TRP36       0.0012
     12  CZ2       29.7460  -27.9740    6.2100 C.ar   36  TRP36       0.0191
     13  CZ3       29.4460  -29.8870    7.6400 C.ar   36  TRP36       0.0001
     14  CH2       28.9440  -28.9230    6.7590 C.ar   36  TRP36       0.0015
     15  N         28.3550  -27.7840   10.3140 N.3    38  MET38      -0.1230
     16  CA        27.2720  -27.1480    9.5120 C.3    38  MET38       0.1702
     17  C         26.6490  -25.9080   10.1270 C.2    38  MET38       0.2592
     18  O         25.4380  -25.7360   10.1370 O.2    38  MET38      -0.2718
     19  CB        26.1790  -28.1950    9.2540 C.3    38  MET38       0.0401
     20  CG        25.4040  -28.6900   10.4830 C.3    38  MET38       0.0596
     21  SD        24.3010  -30.0440   10.0630 S.3    38  MET38      -0.1393
     22  CE        25.4040  -31.1240    9.1430 C.3    38  MET38       0.0692
     23  N         27.4570  -25.0400   10.6990 N.am   39  ASN39      -0.1974
     24  CA        26.9730  -23.7090   11.1260 C.3    39  ASN39       0.1688
     25  C         26.9070  -22.8280    9.8860 C.2    39  ASN39       0.2292
     26  O         27.7030  -22.9700    8.9540 O.2    39  ASN39      -0.2864
     27  CB        27.9650  -23.0610   12.1060 C.3    39  ASN39       0.1181
     28  CG        28.3510  -23.9730   13.2280 C.2    39  ASN39       0.2629
     29  OD1       29.5580  -24.2170   13.4270 O.2    39  ASN39      -0.2716
     30  ND2       27.3840  -24.4730   13.9520 N.am   39  ASN39      -0.0877
     31  N         15.9060  -25.8810   13.2270 N.3    64  GLY64      -0.1225
     32  CA        17.1650  -26.5250   13.2660 C.3    64  GLY64       0.1811
     33  C         18.2240  -25.7800   14.0230 C.2    64  GLY64       0.2280
     34  O         19.1390  -25.2420   13.3800 O.2    64  GLY64      -0.2866
     35  N         20.8390  -26.8560   15.9680 N.3    66  TYR66      -0.1241
     36  CA        22.1920  -27.4480   15.8820 C.3    66  TYR66       0.1605
     37  C         22.9530  -27.0670   17.1680 C.2    66  TYR66       0.2264
     38  O         22.5360  -27.4820   18.2650 O.2    66  TYR66      -0.2867
     39  CB        22.8810  -27.2420   14.5610 C.3    66  TYR66       0.0534
     40  CG        24.1710  -27.9920   14.3960 C.ar   66  TYR66      -0.0201
     41  CD1       24.2430  -29.3620   14.7580 C.ar   66  TYR66      -0.0009
     42  CD2       25.3380  -27.3940   13.9750 C.ar   66  TYR66      -0.0009
     43  CE1       25.4350  -30.0650   14.6470 C.ar   66  TYR66       0.0417
     44  CE2       26.5270  -28.1040   13.8240 C.ar   66  TYR66       0.0417
     45  CZ        26.5620  -29.4630   14.1720 C.ar   66  TYR66       0.1957
     46  OH        27.7810  -30.1330   14.0620 O.3    66  TYR66      -0.2866
     47  N         13.6520  -24.6700   17.1840 N.3    87  MET87      -0.1230
     48  CA        13.2380  -26.1040   17.2360 C.3    87  MET87       0.1702
     49  C         14.4330  -26.9750   16.9260 C.2    87  MET87       0.2592
     50  O         15.1500  -26.7870   15.9280 O.2    87  MET87      -0.2718
     51  CB        12.0720  -26.3390   16.2750 C.3    87  MET87       0.0401
     52  CG        10.8280  -25.5710   16.5200 C.3    87  MET87       0.0596
     53  SD         9.5340  -25.9200   15.3860 S.3    87  MET87      -0.1393
     54  CE         8.1930  -25.0200   16.1200 C.3    87  MET87       0.0692
     55  N         14.6610  -27.9930   17.7960 N.am   88  GLU88      -0.1966
     56  CA        15.7340  -28.9110   17.6210 C.3    88  GLU88       0.1733
     57  C         15.3160  -30.3260   18.0950 C.2    88  GLU88       0.2616
     58  O         14.9860  -30.4660   19.2450 O.2    88  GLU88      -0.2715
     59  CB        16.9200  -28.4530   18.4330 C.3    88  GLU88       0.0429
     60  CG        18.1410  -29.3610   18.4040 C.3    88  GLU88       0.1163
     61  CD        18.5570  -29.8120   17.0360 C.2    88  GLU88       0.3649
     62  OE1       18.9340  -28.9960   16.1850 O.co2  88  GLU88      -0.2457
     63  OE2       18.4830  -31.0110   16.7800 O.co2  88  GLU88      -0.2457
     64  N         15.4050  -31.2950   17.1940 N.am   89  ILE89      -0.1963
     65  CA        14.9050  -32.6850   17.4060 C.3    89  ILE89       0.1727
     66  C         15.9010  -33.4790   18.2580 C.2    89  ILE89       0.2616
     67  O         15.4820  -34.3250   19.0470 O.2    89  ILE89      -0.2715
     68  CB        14.5940  -33.3480   16.0310 C.3    89  ILE89       0.0290
     69  CG1       13.7330  -34.6250   16.2360 C.3    89  ILE89       0.0022
     70  CG2       15.8350  -33.6050   15.2680 C.3    89  ILE89       0.0023
     71  CD1       13.2550  -35.2620   14.9340 C.3    89  ILE89       0.0001
     72  N         17.1870  -33.1550   18.1820 N.am   90  ASN90      -0.1972
     73  CA        18.2140  -33.9270   18.8490 C.3    90  ASN90       0.1688
     74  C         18.4120  -33.3400   20.2450 C.2    90  ASN90       0.2292
     75  O         18.8040  -32.1880   20.4060 O.2    90  ASN90      -0.2864
     76  CB        19.4590  -33.9010   18.0150 C.3    90  ASN90       0.1181
     77  CG        20.5780  -34.7030   18.5980 C.2    90  ASN90       0.2629
     78  OD1       20.8660  -34.6140   19.7920 O.2    90  ASN90      -0.2716
     79  ND2       21.2830  -35.4140   17.7390 N.am   90  ASN90      -0.0877
     80  N         21.8590  -31.7880   20.9440 N.3    93  CYS93      -0.1235
     81  CA        21.9980  -30.4900   20.2660 C.3    93  CYS93       0.1677
     82  C         21.1860  -29.4260   20.9780 C.2    93  CYS93       0.2270
     83  O         21.6340  -28.2830   21.1230 O.2    93  CYS93      -0.2867
     84  CB        21.5710  -30.6460   18.8010 C.3    93  CYS93       0.0956
     85  SG        22.7940  -31.5400   17.7870 S.3    93  CYS93      -0.0801
     86  N         11.9840  -31.1930   19.8660 N.3   115  GLY115     -0.1210
     87  CA        11.0380  -32.0280   19.1870 C.3   115  GLY115      0.1956
     88  C         11.1870  -31.8110   17.6970 C.2   115  GLY115      0.2612
     89  O         12.0900  -31.0590   17.2570 O.2   115  GLY115     -0.2717
     90  N         10.4190  -32.5620   16.9350 N.am  116  ALA116     -0.1965
     91  CA        10.4290  -32.4910   15.4700 C.3   116  ALA116      0.1728
     92  C          9.5560  -31.3300   15.0980 C.2   116  ALA116      0.2616
     93  O          8.4180  -31.1660   15.6070 O.2   116  ALA116     -0.2715
     94  CB         9.8830  -33.8210   14.7840 C.3   116  ALA116      0.0334
     95  N         10.0380  -30.4750   14.1760 N.am  117  SER117     -0.1950
     96  CA         9.1900  -29.3510   13.7190 C.3   117  SER117      0.1924
     97  C          7.8040  -29.7280   13.2630 C.2   117  SER117      0.2314
     98  O          6.8690  -28.9920   13.4640 O.2   117  SER117     -0.2863
     99  CB         9.9690  -28.6430   12.6010 C.3   117  SER117      0.2116
    100  OG        10.3270  -29.5930   11.5510 O.3   117  SER117     -0.2180
    101  N         16.9350  -23.9970    8.3870 N.3   139  ASP139     -0.1225
    102  CA        18.2760  -24.5420    8.2330 C.3   139  ASP139      0.1805
    103  C         18.3390  -25.9380    8.8190 C.2   139  ASP139      0.2598
    104  O         19.3740  -26.3570    9.3240 O.2   139  ASP139     -0.2718
    105  CB        19.2900  -23.6640    8.9810 C.3   139  ASP139      0.1424
    106  CG        20.7150  -24.0010    8.6980 C.2   139  ASP139      0.3668
    107  OD1       21.0920  -24.4240    7.6090 O.co2 139  ASP139     -0.2456
    108  OD2       21.5340  -23.6190    9.6300 O.co2 139  ASP139     -0.2456
    109  N         17.2250  -26.6760    8.7540 N.am  140  HIS140     -0.1961
    110  CA        17.1280  -28.0790    9.2580 C.3   140  HIS140      0.1787
    111  C         17.3170  -29.0300    8.0720 C.2   140  HIS140      0.2620
    112  O         18.0770  -28.7560    7.1590 O.2   140  HIS140     -0.2715
    113  CB        15.8940  -28.2330   10.0830 C.3   140  HIS140      0.0785
    114  CG        14.6170  -27.9860    9.3720 C.ar  140  HIS140      0.0821
    115  ND1       14.4810  -27.0770    8.3470 N.ar  140  HIS140     -0.2267
    116  CD2       13.3700  -28.4840    9.6080 C.ar  140  HIS140      0.1154
    117  CE1       13.2160  -27.0550    7.9590 C.ar  140  HIS140      0.1986
    118  NE2       12.5230  -27.9150    8.7040 N.ar  140  HIS140     -0.2212
    119  N         16.8100  -30.2630    8.1620 N.am  141  TRP141     -0.1960
    120  CA        17.0390  -31.1900    7.0910 C.3   141  TRP141      0.1771
    121  C         16.3750  -30.6190    5.8250 C.2   141  TRP141      0.2619
    122  O         15.2370  -30.1070    5.8830 O.2   141  TRP141     -0.2715
    123  CB        16.4380  -32.5880    7.4350 C.3   141  TRP141      0.0590
    124  CG        17.1540  -33.2770    8.6320 C.ar  141  TRP141      0.0006
    125  CD1       18.5020  -33.2520    8.8840 C.ar  141  TRP141      0.0946
    126  CD2       16.5710  -34.0990    9.6950 C.ar  141  TRP141      0.0152
    127  NE1       18.7710  -33.9450   10.0470 N.ar  141  TRP141     -0.2442
    128  CE2       17.6160  -34.4700   10.5490 C.ar  141  TRP141      0.0810
    129  CE3       15.2730  -34.4840   10.0150 C.ar  141  TRP141      0.0012
    130  CZ2       17.4150  -35.2760   11.7010 C.ar  141  TRP141      0.0191
    131  CZ3       15.0660  -35.2780   11.1760 C.ar  141  TRP141      0.0001
    132  CH2       16.1350  -35.6580   11.9900 C.ar  141  TRP141      0.0015
    133  N         17.0950  -30.7130    4.7080 N.am  142  LYS142     -0.1977
    134  CA        16.7310  -29.9480    3.5250 C.3   142  LYS142      0.1596
    135  C         15.4150  -30.4190    2.9000 C.2   142  LYS142      0.2287
    136  O         14.6550  -29.6270    2.3380 O.2   142  LYS142     -0.2864
    137  CB        17.8850  -29.9090    2.5520 C.3   142  LYS142      0.0298
    138  CG        19.2100  -29.3900    3.0750 C.3   142  LYS142      0.0038
    139  CD        19.0650  -28.2120    4.0490 C.3   142  LYS142      0.0206
    140  CE        20.3160  -28.0660    4.8660 C.3   142  LYS142      0.1093
    141  NZ        20.1420  -27.0780    5.9750 N.3   142  LYS142     -0.1314
    142  N         12.8290  -31.1050    4.5530 N.3   144  ARG144     -0.1245
    143  CA        11.8050  -30.6320    5.4100 C.3   144  ARG144      0.1563
    144  C         11.4360  -29.1820    5.2260 C.2   144  ARG144      0.2260
    145  O         10.4110  -28.7170    5.7060 O.2   144  ARG144     -0.2867
    146  CB        12.1910  -30.8930    6.8890 C.3   144  ARG144      0.0307
    147  CG        12.5240  -32.4080    7.1440 C.3   144  ARG144      0.0489
    148  CD        11.2640  -33.2560    6.9190 C.3   144  ARG144      0.2205
    149  NE        10.0820  -32.6660    7.5430 N.pl3 144  ARG144     -0.0865
    150  CZ         8.8080  -33.0670    7.3490 C.cat 144  ARG144      0.5346
    151  NH1        8.5310  -34.0710    6.5620 N.pl3 144  ARG144      0.1354
    152  NH2        7.8160  -32.4120    7.9500 N.pl3 144  ARG144      0.1354
    153  N         18.6660  -21.2290    4.4270 N.3   167  ASP167     -0.1225
    154  CA        20.0550  -21.5560    4.1430 C.3   167  ASP167      0.1805
    155  C         20.1400  -22.6810    3.1150 C.2   167  ASP167      0.2597
    156  O         19.2240  -23.4940    3.0080 O.2   167  ASP167     -0.2718
    157  CB        20.7800  -21.9730    5.4630 C.3   167  ASP167      0.1424
    158  CG        22.2820  -21.9970    5.3140 C.2   167  ASP167      0.3668
    159  OD1       22.8130  -21.2650    4.4810 O.co2 167  ASP167     -0.2456
    160  OD2       22.9660  -22.7720    6.0590 O.co2 167  ASP167     -0.2456
    161  N         21.2560  -22.7520    2.4060 N.am  168  ASN168     -0.1974
    162  CA        21.6780  -23.9240    1.6640 C.3   168  ASN168      0.1688
    163  C         20.8470  -24.1620    0.4760 C.2   168  ASN168      0.2292
    164  O         20.6580  -25.3130    0.0410 O.2   168  ASN168     -0.2864
    165  CB        21.6700  -25.1750    2.5630 C.3   168  ASN168      0.1181
    166  CG        22.4920  -25.0360    3.8070 C.2   168  ASN168      0.2629
    167  OD1       22.0410  -25.1290    4.9030 O.2   168  ASN168     -0.2716
    168  ND2       23.8170  -24.8210    3.5500 N.am  168  ASN168     -0.0877
    169  N         23.7950  -25.3470   -2.0230 N.3   171  VAL171     -0.1231
    170  CA        24.5340  -26.5330   -1.5550 C.3   171  VAL171      0.1678
    171  C         24.2540  -26.6810   -0.0760 C.2   171  VAL171      0.2434
    172  O         24.4590  -25.7470    0.7590 O.2   171  VAL171     -0.2733
    173  CB        26.0380  -26.3610   -1.7830 C.3   171  VAL171      0.0265
    174  CG1       26.8220  -27.5680   -1.1210 C.3   171  VAL171      0.0020
    175  CG2       26.4000  -26.1890   -3.2510 C.3   171  VAL171      0.0020
    176  N         23.7690  -27.8410    0.3970 N.am  172  PRO172     -0.2729
    177  CA        23.4450  -29.0280   -0.4140 C.3   172  PRO172      0.1401
    178  C         22.2740  -28.9080   -1.3340 C.2   172  PRO172      0.2269
    179  O         22.0610  -29.7720   -2.1550 O.2   172  PRO172     -0.2865
    180  CB        23.1820  -30.1090    0.6140 C.3   172  PRO172      0.0296
    181  CG        23.9040  -29.6680    1.9130 C.3   172  PRO172      0.0237
    182  CD        23.7430  -28.1150    1.8350 C.3   172  PRO172      0.0939
    183  N         29.5250  -21.3950    0.9100 N.3   196  LEU196     -0.1231
    184  CA        29.3900  -22.4350    1.9080 C.3   196  LEU196      0.1693
    185  C         30.4430  -22.2260    3.0240 C.2   196  LEU196      0.2591
    186  O         31.6040  -21.8970    2.7420 O.2   196  LEU196     -0.2718
    187  CB        29.5230  -23.8260    1.2630 C.3   196  LEU196      0.0284
    188  CG        29.1110  -24.9690    2.1520 C.3   196  LEU196      0.0019
    189  CD1       27.5440  -24.9240    2.4690 C.3   196  LEU196      0.0001
    190  CD2       29.5220  -26.2780    1.3850 C.3   196  LEU196      0.0001
    191  N         30.0020  -22.5140    4.2100 N.am  197  GLU197     -0.1979
    192  CA        30.8040  -22.3650    5.4600 C.3   197  GLU197      0.1602
    193  C         32.0400  -23.3020    5.4800 C.2   197  GLU197      0.2287
    194  O         31.9420  -24.4380    5.0800 O.2   197  GLU197     -0.2864
    195  CB        29.9220  -22.5850    6.6990 C.3   197  GLU197      0.0415
    196  CG        29.2580  -24.0240    6.7350 C.3   197  GLU197      0.1163
    197  CD        27.8020  -24.0900    6.2700 C.2   197  GLU197      0.3649
    198  OE1       27.4240  -23.3340    5.3470 O.co2 197  GLU197     -0.2457
    199  OE2       27.0940  -24.9520    6.7950 O.co2 197  GLU197     -0.2457
@<TRIPOS>BOND
     1   175   173    1
     2   179   178    2
     3   169   170    1
     4   173   170    1
     5   173   174    1
     6   170   171    1
     7   178   177    1
     8   177   176    1
     9   177   180    1
    10   171   176   am
    11   171   172    2
    12   164   163    2
    13   176   182    1
    14   163   162    1
    15   180   181    1
    16   183   184    1
    17   187   184    1
    18   187   188    1
    19   190   188    1
    20   162   161    1
    21   162   165    1
    22   182   181    1
    23   184   185    1
    24   188   189    1
    25   136   135    2
    26   161   155   am
    27   137   138    1
    28   137   134    1
    29   165   166    1
    30   186   185    2
    31   135   134    1
    32   156   155    2
    33   185   191   am
    34   138   139    1
    35   155   154    1
    36   134   133    1
    37   168   166   am
    38   166   167    2
    39   139   140    1
    40   154   153    1
    41   154   157    1
    42   191   192    1
    43   159   158   ar
    44   142   143    1
    45   133   121   am
    46   140   141    1
    47   194   193    2
    48   144   143    1
    49   144   145    2
    50   158   157    1
    51   158   160   ar
    52   198   197   ar
    53   143   146    1
    54   192   193    1
    55   192   195    1
    56   121   122    2
    57   121   120    1
    58     9    10   ar
    59     9     7   ar
    60    12    10   ar
    61    12    14   ar
    62   197   196    1
    63   197   199   ar
    64   151   150    1
    65    10     8   ar
    66   195   196    1
    67    14    13   ar
    68     7     6   ar
    69   146   147    1
    70   148   147    1
    71   148   149    1
    72   120   123    1
    73   120   119    1
    74   112   111    2
    75   150   149    2
    76   150   152    1
    77   123   124    1
    78     8     6   ar
    79     8    11   ar
    80   107   106   ar
    81     6     5    1
    82    13    11   ar
    83   117   115   ar
    84   117   118   ar
    85   111   119   am
    86   111   110    1
    87   102   101    1
    88   102   103    1
    89   102   105    1
    90   115   114   ar
    91     5     2    1
    92   124   125   ar
    93   124   126   ar
    94   106   105    1
    95   106   108   ar
    96   118   116   ar
    97   109   103   am
    98   109   110    1
    99   103   104    2
   100   125   127   ar
   101    26    25    2
   102    22    21    1
   103    19    16    1
   104    19    20    1
   105   110   113    1
   106   114   116   ar
   107   114   113    1
   108    16    17    1
   109    16    15    1
   110   126   129   ar
   111   126   128   ar
   112    25    24    1
   113     2     3    1
   114     2     1    1
   115   129   131   ar
   116   127   128   ar
   117    21    20    1
   118    17    18    2
   119    17    23   am
   120   128   130   ar
   121     3     4    2
   122    23    24    1
   123    24    27    1
   124   131   132   ar
   125   100    99    1
   126   130   132   ar
   127    27    28    1
   128    99    96    1
   129    31    32    1
   130    28    29    2
   131    28    30   am
   132    97    98    2
   133    97    96    1
   134    32    33    1
   135    34    33    2
   136    96    95    1
   137    44    42   ar
   138    44    45   ar
   139    42    40   ar
   140    46    45    1
   141    45    43   ar
   142    95    92   am
   143    40    39    1
   144    40    41   ar
   145    39    36    1
   146    43    41   ar
   147    94    91    1
   148    71    69    1
   149    92    91    1
   150    92    93    2
   151    70    68    1
   152    53    54    1
   153    53    52    1
   154    91    90    1
   155    36    35    1
   156    36    37    1
   157    50    49    2
   158    68    69    1
   159    68    65    1
   160    62    61   ar
   161    51    52    1
   162    51    48    1
   163    63    61   ar
   164    49    48    1
   165    49    55   am
   166    90    88   am
   167    61    60    1
   168    37    38    2
   169    47    48    1
   170    64    65    1
   171    64    57   am
   172    89    88    2
   173    65    66    1
   174    56    55    1
   175    56    57    1
   176    56    59    1
   177    88    87    1
   178    79    77   am
   179    85    84    1
   180    76    77    1
   181    76    73    1
   182    57    58    2
   183    72    66   am
   184    72    73    1
   185    66    67    2
   186    60    59    1
   187    77    78    2
   188    84    81    1
   189    73    74    1
   190    87    86    1
   191    74    75    2
   192    81    80    1
   193    81    82    1
   194    82    83    2
