@<TRIPOS>MOLECULE
tmp/3oe5A00.pdb
 207 202 0 0 0
SMALL
GASTEIGER

@<TRIPOS>ATOM
      1  N         35.3600  -28.9670   10.5970 N.3    36  TRP36      -0.1241
      2  CA        34.1600  -28.5250    9.8590 C.3    36  TRP36       0.1605
      3  C         32.8990  -28.8420   10.6090 C.2    36  TRP36       0.2264
      4  O         32.7150  -29.9400   11.1470 O.2    36  TRP36      -0.2867
      5  CB        34.0540  -29.1900    8.4880 C.3    36  TRP36       0.0550
      6  CG        33.0030  -28.5300    7.6120 C.ar   36  TRP36       0.0003
      7  CD1       33.2020  -27.4640    6.7820 C.ar   36  TRP36       0.0946
      8  CD2       31.6210  -28.8850    7.4890 C.ar   36  TRP36       0.0152
      9  NE1       32.0250  -27.1250    6.1340 N.ar   36  TRP36      -0.2442
     10  CE2       31.0320  -27.9650    6.5650 C.ar   36  TRP36       0.0810
     11  CE3       30.8200  -29.8670    8.0610 C.ar   36  TRP36       0.0012
     12  CZ2       29.6860  -28.0300    6.1990 C.ar   36  TRP36       0.0191
     13  CZ3       29.4520  -29.9200    7.6870 C.ar   36  TRP36       0.0001
     14  CH2       28.9170  -29.0020    6.7840 C.ar   36  TRP36       0.0015
     15  N         28.3950  -27.7290   10.3140 N.3    38  MET38      -0.1230
     16  CA        27.3230  -27.0930    9.5040 C.3    38  MET38       0.1702
     17  C         26.6870  -25.8540   10.1480 C.2    38  MET38       0.2592
     18  O         25.4660  -25.6870   10.1600 O.2    38  MET38      -0.2718
     19  CB        26.2400  -28.1360    9.1850 C.3    38  MET38       0.0401
     20  CG        25.5440  -28.7050   10.4030 C.3    38  MET38       0.0596
     21  SD        24.3630  -29.9830    9.9700 S.3    38  MET38      -0.1393
     22  CE        25.4380  -31.0900    9.0870 C.3    38  MET38       0.0692
     23  N         27.4960  -24.9800   10.7210 N.am   39  ASN39      -0.1974
     24  CA        26.9950  -23.6810   11.1840 C.3    39  ASN39       0.1688
     25  C         26.8930  -22.8070    9.9450 C.2    39  ASN39       0.2292
     26  O         27.6810  -22.9540    9.0290 O.2    39  ASN39      -0.2864
     27  CB        27.9800  -23.0030   12.1550 C.3    39  ASN39       0.1181
     28  CG        28.4320  -23.8980   13.2650 C.2    39  ASN39       0.2629
     29  OD1       29.6380  -24.1640   13.3910 O.2    39  ASN39      -0.2716
     30  ND2       27.4950  -24.3640   14.0690 N.am   39  ASN39      -0.0877
     31  N         14.1380  -23.0360   12.4280 N.3    63  LEU63      -0.1231
     32  CA        14.0800  -24.4770   12.2810 C.3    63  LEU63       0.1693
     33  C         15.4870  -25.0260   12.1260 C.2    63  LEU63       0.2592
     34  O         16.1950  -24.7770   11.1370 O.2    63  LEU63      -0.2718
     35  CB        13.1890  -24.7700   11.0680 C.3    63  LEU63       0.0284
     36  CG        11.7890  -24.1950   10.9940 C.3    63  LEU63       0.0019
     37  CD1       11.0920  -24.5560    9.6760 C.3    63  LEU63       0.0001
     38  CD2       11.0210  -24.6260   12.2330 C.3    63  LEU63       0.0001
     39  N         15.9240  -25.7810   13.1570 N.am   64  GLY64      -0.1957
     40  CA        17.2100  -26.3510   13.2100 C.3    64  GLY64       0.1869
     41  C         18.1070  -25.4880   14.0830 C.2    64  GLY64       0.2309
     42  O         18.5370  -24.4450   13.6390 O.2    64  GLY64      -0.2863
     43  N         20.9760  -26.7990   15.9430 N.3    66  TYR66      -0.1241
     44  CA        22.3160  -27.3620   15.8570 C.3    66  TYR66       0.1605
     45  C         23.1080  -26.9790   17.1300 C.2    66  TYR66       0.2264
     46  O         22.7010  -27.3950   18.2270 O.2    66  TYR66      -0.2867
     47  CB        23.0410  -27.1090   14.5240 C.3    66  TYR66       0.0534
     48  CG        24.3470  -27.8960   14.3530 C.ar   66  TYR66      -0.0201
     49  CD1       24.4210  -29.2690   14.7000 C.ar   66  TYR66      -0.0009
     50  CD2       25.5040  -27.3010   13.9040 C.ar   66  TYR66      -0.0009
     51  CE1       25.5970  -29.9850   14.5430 C.ar   66  TYR66       0.0417
     52  CE2       26.6830  -28.0220   13.7310 C.ar   66  TYR66       0.0417
     53  CZ        26.7170  -29.3680   14.0620 C.ar   66  TYR66       0.1957
     54  OH        27.8820  -30.0670   13.9470 O.3    66  TYR66      -0.2866
     55  N         13.3930  -24.6390   17.0330 N.3    87  MET87      -0.1182
     56  CA        12.9940  -26.0560   17.0400 C.3    87  MET87       0.1917
     57  C         14.1400  -26.9750   16.7080 C.2    87  MET87       0.2635
     58  O         14.7810  -26.8210   15.6670 O.2    87  MET87      -0.2714
     59  CB        11.8480  -26.2740   16.0750 C.2    87  MET87       0.0083
     60  CG        10.5660  -25.5210   16.3560 C.2    87  MET87       0.0282
     61  SD         9.2180  -25.7310   15.2000 S.3    87  MET87      -0.1125
     62  CE         7.9120  -24.7820   15.9610 C.3    87  MET87       0.0742
     63  N         14.3720  -27.9830   17.5780 N.am   88  GLU88      -0.1963
     64  CA        15.4910  -28.8670   17.4400 C.3    88  GLU88       0.1733
     65  C         15.0810  -30.2830   17.8460 C.2    88  GLU88       0.2616
     66  O         14.6780  -30.5070   18.9840 O.2    88  GLU88      -0.2715
     67  CB        16.6080  -28.4060   18.3300 C.3    88  GLU88       0.0429
     68  CG        17.8630  -29.2700   18.2980 C.3    88  GLU88       0.1163
     69  CD        18.2790  -29.6610   16.9030 C.2    88  GLU88       0.3649
     70  OE1       18.5790  -28.7800   16.0690 O.co2  88  GLU88      -0.2457
     71  OE2       18.2820  -30.8580   16.6020 O.co2  88  GLU88      -0.2457
     72  N         15.2210  -31.1990   16.9040 N.am   89  ILE89      -0.1963
     73  CA        14.7410  -32.5880   17.1240 C.3    89  ILE89       0.1727
     74  C         15.7120  -33.4230   17.9740 C.2    89  ILE89       0.2616
     75  O         15.2710  -34.3710   18.6580 O.2    89  ILE89      -0.2715
     76  CB        14.4640  -33.2650   15.7630 C.3    89  ILE89       0.0290
     77  CG1       13.5700  -34.5050   15.9550 C.3    89  ILE89       0.0022
     78  CG2       15.7600  -33.5770   15.0260 C.3    89  ILE89       0.0023
     79  CD1       13.1790  -35.1580   14.6280 C.3    89  ILE89       0.0001
     80  N         16.9940  -33.0630   17.9670 N.am   90  ASN90      -0.1972
     81  CA        18.0290  -33.8120   18.6310 C.3    90  ASN90       0.1688
     82  C         18.2380  -33.2330   20.0320 C.2    90  ASN90       0.2292
     83  O         18.6510  -32.0890   20.1860 O.2    90  ASN90      -0.2864
     84  CB        19.3020  -33.7860   17.8190 C.3    90  ASN90       0.1181
     85  CG        20.3790  -34.6780   18.4050 C.2    90  ASN90       0.2629
     86  OD1       20.4860  -34.8020   19.6190 O.2    90  ASN90      -0.2716
     87  ND2       21.2060  -35.2760   17.5370 N.am   90  ASN90      -0.0877
     88  N         21.6940  -31.6840   20.6760 N.3    93  CYS93      -0.1235
     89  CA        21.8210  -30.3620   20.0240 C.3    93  CYS93       0.1677
     90  C         21.0630  -29.3190   20.8060 C.2    93  CYS93       0.2270
     91  O         21.5620  -28.1940   21.0240 O.2    93  CYS93      -0.2867
     92  CB        21.2810  -30.4300   18.5790 C.3    93  CYS93       0.0956
     93  SG        22.2610  -31.4080   17.4210 S.3    93  CYS93      -0.0801
     94  N         11.7930  -31.2220   19.7520 N.3   115  GLY115     -0.1210
     95  CA        10.8750  -32.0610   19.0380 C.3   115  GLY115      0.1956
     96  C         11.0530  -31.8250   17.5550 C.2   115  GLY115      0.2612
     97  O         11.9490  -31.0780   17.1490 O.2   115  GLY115     -0.2717
     98  N         10.2580  -32.5180   16.7730 N.am  116  ALA116     -0.1965
     99  CA        10.3320  -32.4070   15.3150 C.3   116  ALA116      0.1728
    100  C          9.4320  -31.2520   14.9680 C.2   116  ALA116      0.2616
    101  O          8.3010  -31.0890   15.4710 O.2   116  ALA116     -0.2715
    102  CB         9.8460  -33.7110   14.5980 C.3   116  ALA116      0.0334
    103  N          9.9150  -30.4190   14.0480 N.am  117  SER117     -0.1950
    104  CA         9.1030  -29.3060   13.5720 C.3   117  SER117      0.1924
    105  C          7.7060  -29.6790   13.1400 C.2   117  SER117      0.2314
    106  O          6.7850  -28.9390   13.3200 O.2   117  SER117     -0.2863
    107  CB         9.8240  -28.6040   12.4060 C.3   117  SER117      0.2116
    108  OG        10.2470  -29.5480   11.3990 O.3   117  SER117     -0.2180
    109  N         16.9500  -23.9690    8.4020 N.3   139  ASP139     -0.1225
    110  CA        18.2860  -24.4740    8.2780 C.3   139  ASP139      0.1805
    111  C         18.3410  -25.8390    8.9400 C.2   139  ASP139      0.2598
    112  O         19.3500  -26.2140    9.5650 O.2   139  ASP139     -0.2718
    113  CB        19.2590  -23.5380    9.0020 C.3   139  ASP139      0.1424
    114  CG        20.7010  -23.9010    8.7630 C.2   139  ASP139      0.3668
    115  OD1       21.0910  -24.3860    7.6880 O.co2 139  ASP139     -0.2456
    116  OD2       21.5220  -23.5420    9.6660 O.co2 139  ASP139     -0.2456
    117  N         17.2500  -26.5840    8.7860 N.am  140  HIS140     -0.1961
    118  CA        17.2010  -27.9690    9.3120 C.3   140  HIS140      0.1787
    119  C         17.3640  -28.9600    8.1300 C.2   140  HIS140      0.2620
    120  O         18.0680  -28.6770    7.1710 O.2   140  HIS140     -0.2715
    121  CB        15.9890  -28.1670   10.1870 C.3   140  HIS140      0.0785
    122  CG        14.6680  -27.9540    9.5120 C.ar  140  HIS140      0.0821
    123  ND1       14.4990  -27.1140    8.4300 N.ar  140  HIS140     -0.2267
    124  CD2       13.4260  -28.4080    9.8250 C.ar  140  HIS140      0.1154
    125  CE1       13.2270  -27.0890    8.0930 C.ar  140  HIS140      0.1986
    126  NE2       12.5530  -27.8820    8.9230 N.ar  140  HIS140     -0.2212
    127  N         16.8010  -30.1720    8.2340 N.am  141  TRP141     -0.1960
    128  CA        16.9380  -31.1260    7.1430 C.3   141  TRP141      0.1771
    129  C         16.3060  -30.5310    5.9050 C.2   141  TRP141      0.2619
    130  O         15.1900  -29.9910    5.9730 O.2   141  TRP141     -0.2715
    131  CB        16.2290  -32.4450    7.5190 C.3   141  TRP141      0.0590
    132  CG        16.8710  -33.1610    8.7100 C.ar  141  TRP141      0.0006
    133  CD1       18.1950  -33.1940    9.0330 C.ar  141  TRP141      0.0946
    134  CD2       16.2050  -34.0070    9.6720 C.ar  141  TRP141      0.0152
    135  NE1       18.3790  -33.9710   10.1540 N.ar  141  TRP141     -0.2442
    136  CE2       17.1830  -34.4720   10.5550 C.ar  141  TRP141      0.0810
    137  CE3       14.8740  -34.3770    9.8780 C.ar  141  TRP141      0.0012
    138  CZ2       16.8870  -35.3310   11.6350 C.ar  141  TRP141      0.0191
    139  CZ3       14.5710  -35.2430   10.9490 C.ar  141  TRP141      0.0001
    140  CH2       15.5790  -35.6920   11.8180 C.ar  141  TRP141      0.0015
    141  N         17.0370  -30.6270    4.7970 N.am  142  LYS142     -0.1977
    142  CA        16.6710  -29.8830    3.5920 C.3   142  LYS142      0.1596
    143  C         15.3570  -30.3730    3.0030 C.2   142  LYS142      0.2287
    144  O         14.6030  -29.5570    2.4280 O.2   142  LYS142     -0.2864
    145  CB        17.8110  -29.8490    2.5870 C.3   142  LYS142      0.0298
    146  CG        19.1480  -29.3640    3.1370 C.3   142  LYS142      0.0038
    147  CD        19.0070  -28.2010    4.1440 C.3   142  LYS142      0.0206
    148  CE        20.3060  -28.0240    4.9350 C.3   142  LYS142      0.1093
    149  NZ        20.1050  -27.0510    6.0370 N.3   142  LYS142     -0.1314
    150  N         12.7700  -30.9940    4.6480 N.3   144  ARG144     -0.1245
    151  CA        11.7300  -30.4800    5.4850 C.3   144  ARG144      0.1563
    152  C         11.3360  -29.0250    5.2070 C.2   144  ARG144      0.2260
    153  O         10.3110  -28.5540    5.6420 O.2   144  ARG144     -0.2867
    154  CB        12.0930  -30.6410    6.9680 C.3   144  ARG144      0.0307
    155  CG        12.1010  -32.0730    7.5130 C.3   144  ARG144      0.0489
    156  CD        10.7510  -32.8390    7.2970 C.3   144  ARG144      0.2205
    157  NE         9.5640  -32.0900    7.6810 N.pl3 144  ARG144     -0.0865
    158  CZ         8.3090  -32.4800    7.4350 C.cat 144  ARG144      0.5346
    159  NH1        8.1250  -33.6240    6.8030 N.pl3 144  ARG144      0.1354
    160  NH2        7.2570  -31.7220    7.7530 N.pl3 144  ARG144      0.1354
    161  N         18.6420  -21.1810    4.4500 N.3   167  ASP167     -0.1225
    162  CA        20.0240  -21.5210    4.1930 C.3   167  ASP167      0.1805
    163  C         20.1400  -22.6490    3.1790 C.2   167  ASP167      0.2597
    164  O         19.2110  -23.4470    3.0590 O.2   167  ASP167     -0.2718
    165  CB        20.7660  -21.8810    5.5240 C.3   167  ASP167      0.1424
    166  CG        22.2650  -21.9530    5.3650 C.2   167  ASP167      0.3668
    167  OD1       22.8230  -21.2350    4.5210 O.co2 167  ASP167     -0.2456
    168  OD2       22.9480  -22.7340    6.1010 O.co2 167  ASP167     -0.2456
    169  N         21.2620  -22.7390    2.4820 N.am  168  ASN168     -0.1974
    170  CA        21.6940  -23.9210    1.7400 C.3   168  ASN168      0.1688
    171  C         20.8320  -24.1850    0.5320 C.2   168  ASN168      0.2292
    172  O         20.6700  -25.3280    0.1090 O.2   168  ASN168     -0.2864
    173  CB        21.6550  -25.1430    2.6450 C.3   168  ASN168      0.1181
    174  CG        22.5060  -24.9940    3.8550 C.2   168  ASN168      0.2629
    175  OD1       22.0220  -25.0990    4.9780 O.2   168  ASN168     -0.2716
    176  ND2       23.7870  -24.7710    3.6260 N.am  168  ASN168     -0.0877
    177  N         23.7220  -25.3480   -2.0090 N.3   171  VAL171     -0.1231
    178  CA        24.4730  -26.4930   -1.5000 C.3   171  VAL171      0.1678
    179  C         24.2120  -26.6380    0.0040 C.2   171  VAL171      0.2434
    180  O         24.4180  -25.7010    0.8210 O.2   171  VAL171     -0.2733
    181  CB        25.9940  -26.3190   -1.7350 C.3   171  VAL171      0.0265
    182  CG1       26.7610  -27.4870   -1.0550 C.3   171  VAL171      0.0020
    183  CG2       26.3400  -26.1710   -3.2060 C.3   171  VAL171      0.0020
    184  N         23.7200  -27.8070    0.4560 N.am  172  PRO172     -0.2729
    185  CA        23.4260  -28.9850   -0.3540 C.3   172  PRO172      0.1401
    186  C         22.2330  -28.8760   -1.2730 C.2   172  PRO172      0.2269
    187  O         22.0490  -29.7420   -2.1000 O.2   172  PRO172     -0.2865
    188  CB        23.1950  -30.0710    0.6910 C.3   172  PRO172      0.0296
    189  CG        23.9070  -29.6220    1.9130 C.3   172  PRO172      0.0237
    190  CD        23.7350  -28.1200    1.8880 C.3   172  PRO172      0.0939
    191  N         29.4570  -21.3660    0.9580 N.3   196  LEU196     -0.1231
    192  CA        29.3460  -22.3990    1.9630 C.3   196  LEU196      0.1693
    193  C         30.4080  -22.2020    3.0580 C.2   196  LEU196      0.2591
    194  O         31.5710  -21.8400    2.7460 O.2   196  LEU196     -0.2718
    195  CB        29.4950  -23.7910    1.3270 C.3   196  LEU196      0.0284
    196  CG        29.0770  -24.9740    2.1620 C.3   196  LEU196      0.0019
    197  CD1       27.5480  -24.9440    2.4430 C.3   196  LEU196      0.0001
    198  CD2       29.4750  -26.2520    1.3910 C.3   196  LEU196      0.0001
    199  N         29.9940  -22.4740    4.2730 N.am  197  GLU197     -0.1979
    200  CA        30.7970  -22.2850    5.4960 C.3   197  GLU197      0.1602
    201  C         32.0260  -23.2090    5.5130 C.2   197  GLU197      0.2287
    202  O         31.8940  -24.3700    5.1430 O.2   197  GLU197     -0.2864
    203  CB        29.9340  -22.5610    6.7310 C.3   197  GLU197      0.0415
    204  CG        29.2570  -24.0040    6.7500 C.3   197  GLU197      0.1163
    205  CD        27.7890  -24.0560    6.2890 C.2   197  GLU197      0.3649
    206  OE1       27.4260  -23.2750    5.3710 O.co2 197  GLU197     -0.2457
    207  OE2       27.0540  -24.9040    6.8520 O.co2 197  GLU197     -0.2457
@<TRIPOS>BOND
     1   183   181    1
     2   187   186    2
     3   177   178    1
     4   181   178    1
     5   181   182    1
     6   178   179    1
     7   186   185    1
     8   185   184    1
     9   185   188    1
    10   179   184   am
    11   179   180    2
    12   172   171    2
    13   184   190    1
    14   171   170    1
    15   188   189    1
    16   191   192    1
    17   195   192    1
    18   195   196    1
    19   198   196    1
    20   170   169    1
    21   170   173    1
    22   190   189    1
    23   192   193    1
    24   196   197    1
    25   144   143    2
    26   169   163   am
    27   145   146    1
    28   145   142    1
    29   173   174    1
    30   194   193    2
    31   143   142    1
    32   193   199   am
    33   164   163    2
    34   146   147    1
    35   163   162    1
    36   142   141    1
    37   176   174   am
    38   174   175    2
    39   147   148    1
    40   162   161    1
    41   162   165    1
    42   199   200    1
    43   167   166   ar
    44   150   151    1
    45   141   129   am
    46   148   149    1
    47   202   201    2
    48   152   151    1
    49   152   153    2
    50   166   165    1
    51   166   168   ar
    52   206   205   ar
    53   151   154    1
    54   200   201    1
    55   200   203    1
    56   129   130    2
    57   129   128    1
    58     9    10   ar
    59     9     7   ar
    60    12    10   ar
    61    12    14   ar
    62   205   204    1
    63   205   207   ar
    64    10     8   ar
    65   203   204    1
    66     7     6   ar
    67    14    13   ar
    68   159   158    1
    69   154   155    1
    70   128   131    1
    71   128   127    1
    72   120   119    2
    73   156   155    1
    74   156   157    1
    75   158   157    2
    76   158   160    1
    77     8     6   ar
    78     8    11   ar
    79   131   132    1
    80     6     5    1
    81    13    11   ar
    82   115   114   ar
    83   125   123   ar
    84   125   126   ar
    85   119   127   am
    86   119   118    1
    87   110   109    1
    88   110   111    1
    89   110   113    1
    90   123   122   ar
    91     5     2    1
    92   132   133   ar
    93   132   134   ar
    94   114   113    1
    95   114   116   ar
    96   117   111   am
    97   117   118    1
    98   126   124   ar
    99   111   112    2
   100    26    25    2
   101   133   135   ar
   102    22    21    1
   103    19    16    1
   104    19    20    1
   105   118   121    1
   106    16    17    1
   107    16    15    1
   108   122   124   ar
   109   122   121    1
   110   134   137   ar
   111   134   136   ar
   112    37    36    1
   113     2     1    1
   114     2     3    1
   115   137   139   ar
   116    25    24    1
   117    21    20    1
   118    17    18    2
   119    17    23   am
   120   135   136   ar
   121   136   138   ar
   122     3     4    2
   123    23    24    1
   124   139   140   ar
   125    36    35    1
   126    36    38    1
   127    35    32    1
   128    34    33    2
   129    24    27    1
   130   108   107    1
   131   138   140   ar
   132    33    32    1
   133    33    39   am
   134    27    28    1
   135    32    31    1
   136   107   104    1
   137   105   106    2
   138   105   104    1
   139    39    40    1
   140    40    41    1
   141    28    29    2
   142    28    30   am
   143   104   103    1
   144    42    41    2
   145    52    50   ar
   146    52    53   ar
   147    50    48   ar
   148    54    53    1
   149   103   100   am
   150    53    51   ar
   151    48    47    1
   152    48    49   ar
   153    47    44    1
   154    51    49   ar
   155   102    99    1
   156    79    77    1
   157   100    99    1
   158   100   101    2
   159    78    76    1
   160    61    62    1
   161    61    60    1
   162    99    98    1
   163    58    57    2
   164    76    77    1
   165    76    73    1
   166    44    43    1
   167    44    45    1
   168    70    69   ar
   169    59    60    2
   170    59    56    1
   171    71    69   ar
   172    57    56    1
   173    57    63   am
   174    98    96   am
   175    69    68    1
   176    72    73    1
   177    72    65   am
   178    55    56    1
   179    73    74    1
   180    45    46    2
   181    97    96    2
   182    93    92    1
   183    64    63    1
   184    64    65    1
   185    64    67    1
   186    87    85   am
   187    96    95    1
   188    84    85    1
   189    84    81    1
   190    65    66    2
   191    80    74   am
   192    80    81    1
   193    74    75    2
   194    68    67    1
   195    85    86    2
   196    92    89    1
   197    81    82    1
   198    95    94    1
   199    89    88    1
   200    89    90    1
   201    82    83    2
   202    90    91    2
