@<TRIPOS>MOLECULE
tmp/3oehL00.pdb
 152 147 0 0 0
SMALL
GASTEIGER

@<TRIPOS>ATOM
      1  N        -27.8960 -128.2280   77.7040 N.3   127  LEU127     -0.1245
      2  CA       -28.2480 -127.1920   76.7560 C.3   127  LEU127      0.1561
      3  C        -28.2950 -127.7710   75.3430 C.2   127  LEU127      0.2260
      4  O        -27.2530 -128.0910   74.7560 O.2   127  LEU127     -0.2867
      5  CB       -27.2370 -126.0530   76.8350 C.3   127  LEU127      0.0270
      6  CG       -27.2210 -125.2380   78.1120 C.3   127  LEU127      0.0019
      7  CD1      -26.0490 -124.3160   78.0360 C.3   127  LEU127      0.0001
      8  CD2      -28.5090 -124.4580   78.2840 C.3   127  LEU127      0.0001
      9  N        -20.8170 -108.0550   78.1090 N.3   148  ARG148     -0.1231
     10  CA       -21.6310 -107.9620   79.3170 C.3   148  ARG148      0.1694
     11  C        -23.0870 -108.3250   79.0130 C.2   148  ARG148      0.2592
     12  O        -23.5960 -108.0050   77.9470 O.2   148  ARG148     -0.2718
     13  CB       -21.5390 -106.5510   79.9240 C.3   148  ARG148      0.0321
     14  CG       -21.8540 -105.4290   78.9520 C.3   148  ARG148      0.0489
     15  CD       -21.7570 -104.0360   79.5570 C.3   148  ARG148      0.2205
     16  NE       -21.9920 -103.0380   78.5090 N.pl3 148  ARG148     -0.0865
     17  CZ       -23.1930 -102.5910   78.1130 C.cat 148  ARG148      0.5346
     18  NH1      -24.3250 -103.0080   78.6960 N.pl3 148  ARG148      0.1354
     19  NH2      -23.2610 -101.6990   77.1260 N.pl3 148  ARG148      0.1354
     20  N        -23.7250 -109.0280   79.9410 N.am  149  GLN149     -0.1966
     21  CA       -25.1470 -109.3690   79.8510 C.3   149  GLN149      0.1733
     22  C        -25.5540 -110.0480   78.5400 C.2   149  GLN149      0.2617
     23  O        -26.5050 -109.6220   77.8670 O.2   149  GLN149     -0.2715
     24  CB       -26.0290 -108.1430   80.1380 C.3   149  GLN149      0.0408
     25  CG       -26.0050 -107.6830   81.6050 C.3   149  GLN149      0.0908
     26  CD       -26.8310 -108.5780   82.5400 C.2   149  GLN149      0.2608
     27  OE1      -26.2850 -109.1940   83.4640 O.2   149  GLN149     -0.2717
     28  NE2      -28.1610 -108.6360   82.3080 N.am  149  GLN149     -0.0878
     29  N        -24.8350 -111.1130   78.1980 N.am  150  THR150     -0.1937
     30  CA       -25.1550 -111.9060   77.0220 C.3   150  THR150      0.2028
     31  C        -25.5860 -113.3270   77.3740 C.2   150  THR150      0.2643
     32  O        -26.0830 -114.0580   76.5160 O.2   150  THR150     -0.2714
     33  CB       -23.9980 -111.9170   76.0030 C.3   150  THR150      0.1808
     34  OG1      -22.7850 -112.3040   76.6490 O.3   150  THR150     -0.2208
     35  CG2      -23.8020 -110.5520   75.4310 C.3   150  THR150      0.0379
     36  N        -25.4140 -113.7110   78.6320 N.am  151  GLY151     -0.1939
     37  CA       -25.8540 -115.0220   79.1020 C.3   151  GLY151      0.2014
     38  C        -24.7200 -115.9810   79.4040 C.2   151  GLY151      0.2639
     39  O        -24.9110 -117.2110   79.3820 O.2   151  GLY151     -0.2714
     40  N        -23.5460 -115.4150   79.6890 N.am  152  LYS152     -0.1963
     41  CA       -22.3140 -116.1770   79.8730 C.3   152  LYS152      0.1728
     42  C        -22.3800 -117.0370   81.1110 C.2   152  LYS152      0.2617
     43  O        -22.2250 -118.2520   81.0380 O.2   152  LYS152     -0.2715
     44  CB       -21.1090 -115.2410   79.9690 C.3   152  LYS152      0.0311
     45  CG       -20.6690 -114.6350   78.6580 C.3   152  LYS152      0.0038
     46  CD       -19.2880 -114.0400   78.7730 C.3   152  LYS152      0.0206
     47  CE       -19.2910 -112.8480   79.6470 C.3   152  LYS152      0.1093
     48  NZ       -20.2060 -111.8230   79.1040 N.3   152  LYS152     -0.1314
     49  N        -22.6110 -116.3950   82.2510 N.am  153  THR153     -0.1937
     50  CA       -22.6830 -117.0910   83.5350 C.3   153  THR153      0.2028
     51  C        -23.8300 -118.1310   83.5160 C.2   153  THR153      0.2642
     52  O        -23.6670 -119.2760   83.9480 O.2   153  THR153     -0.2714
     53  CB       -22.7940 -116.0680   84.7030 C.3   153  THR153      0.1808
     54  OG1      -21.6060 -115.2610   84.7420 O.3   153  THR153     -0.2208
     55  CG2      -22.9190 -116.7690   86.0250 C.3   153  THR153      0.0379
     56  N        -24.9710 -117.7160   82.9650 N.am  154  ALA154     -0.1977
     57  CA       -26.1140 -118.5820   82.7190 C.3   154  ALA154      0.1597
     58  C        -25.7290 -119.9080   82.0860 C.2   154  ALA154      0.2287
     59  O        -26.3010 -120.9390   82.4470 O.2   154  ALA154     -0.2864
     60  CB       -27.1140 -117.8750   81.8500 C.3   154  ALA154      0.0319
     61  N        -26.1940 -123.2630   84.2640 N.3   158  ASP158     -0.1239
     62  CA       -27.0900 -124.3300   83.8050 C.3   158  ASP158      0.1674
     63  C        -26.3670 -125.6760   83.6970 C.2   158  ASP158      0.2266
     64  O        -26.9260 -126.7140   84.0450 O.2   158  ASP158     -0.2867
     65  CB       -27.7790 -123.9610   82.4840 C.3   158  ASP158      0.1410
     66  CG       -28.9610 -122.9780   82.6750 C.2   158  ASP158      0.3668
     67  OD1      -29.6790 -123.0810   83.7050 O.co2 158  ASP158     -0.2456
     68  OD2      -29.1800 -122.1120   81.7790 O.co2 158  ASP158     -0.2456
     69  N        -14.8790 -117.1900   86.3610 N.3   246  ASP246     -0.1239
     70  CA       -15.7870 -116.0960   86.0100 C.3   246  ASP246      0.1674
     71  C        -15.3850 -114.7830   86.7190 C.2   246  ASP246      0.2266
     72  O        -15.8930 -114.4720   87.8090 O.2   246  ASP246     -0.2867
     73  CB       -17.2350 -116.4990   86.3380 C.3   246  ASP246      0.1410
     74  CG       -18.2710 -115.6800   85.5860 C.2   246  ASP246      0.3668
     75  OD1      -17.8870 -114.7500   84.8380 O.co2 246  ASP246     -0.2456
     76  OD2      -19.4840 -115.9650   85.7490 O.co2 246  ASP246     -0.2456
     77  N        -14.8640 -111.6010   78.9890 N.3   305  GLU305     -0.1245
     78  CA       -15.7730 -110.5430   78.5910 C.3   305  GLU305      0.1567
     79  C        -15.1070 -109.6640   77.5250 C.2   305  GLU305      0.2260
     80  O        -14.0050 -109.1580   77.7180 O.2   305  GLU305     -0.2867
     81  CB       -16.1690 -109.7360   79.8140 C.3   305  GLU305      0.0388
     82  CG       -17.1200 -108.6020   79.5590 C.3   305  GLU305      0.1160
     83  CD       -17.0280 -107.5530   80.6540 C.2   305  GLU305      0.3649
     84  OE1      -15.9160 -107.0020   80.8480 O.co2 305  GLU305     -0.2457
     85  OE2      -18.0540 -107.2860   81.3280 O.co2 305  GLU305     -0.2457
     86  N        -29.4620 -112.5090   71.0820 N.3   334  PHE334     -0.1241
     87  CA       -30.2340 -112.5430   72.3170 C.3   334  PHE334      0.1605
     88  C        -31.5890 -111.8750   72.1040 C.2   334  PHE334      0.2264
     89  O        -32.6290 -112.4890   72.3160 O.2   334  PHE334     -0.2867
     90  CB       -29.4670 -111.8440   73.4400 C.3   334  PHE334      0.0534
     91  CG       -30.1150 -111.9670   74.7930 C.ar  334  PHE334     -0.0203
     92  CD1      -29.5810 -112.8190   75.7530 C.ar  334  PHE334     -0.0042
     93  CD2      -31.2660 -111.2230   75.1120 C.ar  334  PHE334     -0.0042
     94  CE1      -30.1760 -112.9360   77.0170 C.ar  334  PHE334     -0.0003
     95  CE2      -31.8790 -111.3340   76.3670 C.ar  334  PHE334     -0.0003
     96  CZ       -31.3340 -112.1940   77.3230 C.ar  334  PHE334     -0.0000
     97  N        -31.7280 -117.8030   72.3400 N.3   339  ARG339     -0.1231
     98  CA       -31.2950 -117.8830   73.7270 C.3   339  ARG339      0.1679
     99  C        -31.0930 -119.3500   74.1300 C.2   339  ARG339      0.2434
    100  O        -32.0430 -120.1320   74.0820 O.2   339  ARG339     -0.2733
    101  CB       -32.3300 -117.2130   74.6390 C.3   339  ARG339      0.0321
    102  CG       -32.4720 -115.7110   74.4290 C.3   339  ARG339      0.0489
    103  CD       -33.3970 -115.0750   75.4540 C.3   339  ARG339      0.2205
    104  NE       -33.6930 -113.6810   75.1260 N.pl3 339  ARG339     -0.0865
    105  CZ       -34.7170 -112.9900   75.6220 C.cat 339  ARG339      0.5346
    106  NH1      -35.5660 -113.5560   76.4780 N.pl3 339  ARG339      0.1354
    107  NH2      -34.9000 -111.7280   75.2510 N.pl3 339  ARG339      0.1354
    108  N        -29.8610 -119.7370   74.5180 N.am  340  PRO340     -0.2729
    109  CA       -28.6170 -118.9690   74.5920 C.3   340  PRO340      0.1401
    110  C        -28.2650 -118.2940   73.2780 C.2   340  PRO340      0.2269
    111  O        -28.5220 -118.8520   72.2100 O.2   340  PRO340     -0.2865
    112  CB       -27.5590 -120.0320   74.9240 C.3   340  PRO340      0.0296
    113  CG       -28.2140 -121.3390   74.7310 C.3   340  PRO340      0.0237
    114  CD       -29.6570 -121.1060   75.0100 C.3   340  PRO340      0.0939
    115  N        -33.9890 -122.1880   74.3980 N.3   405  GLN405     -0.1231
    116  CA       -34.1020 -122.8400   75.6970 C.3   405  GLN405      0.1698
    117  C        -34.2210 -121.8290   76.8300 C.2   405  GLN405      0.2592
    118  O        -33.4260 -120.8900   76.9170 O.2   405  GLN405     -0.2718
    119  CB       -32.8690 -123.7140   75.9250 C.3   405  GLN405      0.0381
    120  CG       -33.0080 -124.7870   76.9810 C.3   405  GLN405      0.0905
    121  CD       -32.0930 -125.9680   76.7150 C.2   405  GLN405      0.2608
    122  OE1      -31.3890 -126.0130   75.6990 O.2   405  GLN405     -0.2717
    123  NE2      -32.0960 -126.9330   77.6250 N.am  405  GLN405     -0.0878
    124  N        -35.2040 -122.0380   77.7040 N.am  406  ASN406     -0.1960
    125  CA       -35.3280 -121.2620   78.9440 C.3   406  ASN406      0.1819
    126  C        -34.1410 -121.4670   79.8740 C.2   406  ASN406      0.2621
    127  O        -33.4750 -122.5060   79.8360 O.2   406  ASN406     -0.2715
    128  CB       -36.6040 -121.6430   79.6940 C.3   406  ASN406      0.1195
    129  CG       -37.8420 -120.9780   79.1310 C.2   406  ASN406      0.2630
    130  OD1      -37.8640 -120.5300   77.9890 O.2   406  ASN406     -0.2716
    131  ND2      -38.8850 -120.9150   79.9390 N.am  406  ASN406     -0.0877
    132  N        -33.8780 -120.4740   80.7120 N.am  407  GLN407     -0.1963
    133  CA       -32.8470 -120.5940   81.7340 C.3   407  GLN407      0.1733
    134  C        -33.2900 -121.5990   82.8040 C.2   407  GLN407      0.2616
    135  O        -34.4930 -121.8630   82.9660 O.2   407  GLN407     -0.2715
    136  CB       -32.5860 -119.2320   82.3660 C.3   407  GLN407      0.0408
    137  CG       -31.2040 -119.0810   82.9560 C.3   407  GLN407      0.0908
    138  CD       -30.8760 -117.6450   83.3200 C.2   407  GLN407      0.2608
    139  OE1      -31.7110 -116.7520   83.2000 O.2   407  GLN407     -0.2717
    140  NE2      -29.6540 -117.4200   83.7720 N.am  407  GLN407     -0.0878
    141  N        -32.3120 -122.1640   83.5130 N.am  408  TYR408     -0.1974
    142  CA       -32.5540 -123.0720   84.6490 C.3   408  TYR408      0.1639
    143  C        -33.3150 -124.3420   84.2840 C.2   408  TYR408      0.2290
    144  O        -33.8440 -125.0140   85.1660 O.2   408  TYR408     -0.2864
    145  CB       -33.2840 -122.3600   85.7940 C.3   408  TYR408      0.0560
    146  CG       -32.7170 -121.0210   86.1830 C.ar  408  TYR408     -0.0198
    147  CD1      -31.5190 -120.9240   86.8860 C.ar  408  TYR408     -0.0009
    148  CD2      -33.3930 -119.8500   85.8710 C.ar  408  TYR408     -0.0009
    149  CE1      -31.0010 -119.6880   87.2480 C.ar  408  TYR408      0.0417
    150  CE2      -32.8920 -118.6160   86.2310 C.ar  408  TYR408      0.0417
    151  CZ       -31.6940 -118.5390   86.9170 C.ar  408  TYR408      0.1957
    152  OH       -31.2010 -117.3100   87.2750 O.3   408  TYR408     -0.2866
@<TRIPOS>BOND
     1    86    87    1
     2    88    89    2
     3    88    87    1
     4   111   110    2
     5    87    90    1
     6    97    98    1
     7   110   109    1
     8    90    91    1
     9    98    99    1
    10    98   101    1
    11   100    99    2
    12    99   108   am
    13   115   116    1
    14   102   101    1
    15   102   103    1
    16   108   109    1
    17   108   114    1
    18   109   112    1
    19   113   112    1
    20   113   114    1
    21     4     3    2
    22    91    93   ar
    23    91    92   ar
    24    93    95   ar
    25   104   103    1
    26   104   105    2
    27   107   105    1
    28     3     2    1
    29    35    33    1
    30   105   106    1
    31   116   119    1
    32   116   117    1
    33   122   121    2
    34    92    94   ar
    35   119   120    1
    36    33    34    1
    37    33    30    1
    38    95    96   ar
    39    32    31    2
    40   121   120    1
    41   121   123   am
    42     2     5    1
    43     2     1    1
    44   117   118    2
    45   117   124   am
    46     5     6    1
    47    94    96   ar
    48    30    31    1
    49    30    29    1
    50    19    17    1
    51    31    36   am
    52    79    80    2
    53    79    78    1
    54   124   125    1
    55    23    22    2
    56    12    11    2
    57   130   129    2
    58     7     6    1
    59     9    10    1
    60     6     8    1
    61    17    16    2
    62    17    18    1
    63    29    22   am
    64    16    15    1
    65    22    21    1
    66    78    77    1
    67    78    81    1
    68    36    37    1
    69    45    46    1
    70    45    44    1
    71    46    47    1
    72   125   128    1
    73   125   126    1
    74    14    15    1
    75    14    13    1
    76    11    10    1
    77    11    20   am
    78    37    38    1
    79    48    47    1
    80   129   128    1
    81   129   131   am
    82    10    13    1
    83    39    38    2
    84    38    40   am
    85    82    81    1
    86    82    83    1
    87    40    41    1
    88   127   126    2
    89    21    20    1
    90    21    24    1
    91    41    44    1
    92    41    42    1
    93   126   132   am
    94    24    25    1
    95    83    84   ar
    96    83    85   ar
    97   132   133    1
    98    43    42    2
    99    42    49   am
   100    25    26    1
   101   133   136    1
   102   133   134    1
   103    68    66   ar
   104    60    57    1
   105    58    59    2
   106    58    57    1
   107    49    50    1
   108    28    26   am
   109   136   137    1
   110    65    66    1
   111    65    62    1
   112    26    27    2
   113    66    67   ar
   114    57    56    1
   115   134   135    2
   116   134   141   am
   117   137   138    1
   118    56    51   am
   119   139   138    2
   120   138   140   am
   121   141   142    1
   122    51    50    1
   123    51    52    2
   124    50    53    1
   125    63    62    1
   126    63    64    2
   127    62    61    1
   128   143   142    1
   129   143   144    2
   130   142   145    1
   131    53    54    1
   132    53    55    1
   133    75    74   ar
   134    74    76   ar
   135    74    73    1
   136   145   146    1
   137   148   146   ar
   138   148   150   ar
   139    70    73    1
   140    70    69    1
   141    70    71    1
   142   146   147   ar
   143   150   151   ar
   144    71    72    2
   145   147   149   ar
   146   151   149   ar
   147   151   152    1
