@<TRIPOS>MOLECULE
tmp/3oekA00.pdb
 114 110 0 0 0
SMALL
GASTEIGER

@<TRIPOS>ATOM
      1  N          4.7370   45.5970    4.8640 N.3    10  GLU10      -0.1245
      2  CA         5.7160   45.7640    5.9190 C.3    10  GLU10       0.1567
      3  C          6.8090   46.6640    5.3960 C.2    10  GLU10       0.2260
      4  O          7.7200   46.2110    4.7250 O.2    10  GLU10      -0.2867
      5  CB         6.3120   44.4260    6.3540 C.3    10  GLU10       0.0388
      6  CG         7.4350   44.6200    7.3720 C.3    10  GLU10       0.1160
      7  CD         7.4730   43.5490    8.4490 C.2    10  GLU10       0.3649
      8  OE1        7.6240   42.3620    8.1160 O.co2  10  GLU10      -0.2457
      9  OE2        7.3710   43.9010    9.6350 O.co2  10  GLU10      -0.2457
     10  N          2.3250   37.1970    8.5740 N.3    73  HIS73      -0.1241
     11  CA         3.3420   36.3660    7.9280 C.3    73  HIS73       0.1621
     12  C          2.9640   34.8910    7.9210 C.2    73  HIS73       0.2264
     13  O          2.9980   34.2300    6.8750 O.2    73  HIS73      -0.2867
     14  CB         4.7080   36.5640    8.5880 C.3    73  HIS73       0.0745
     15  CG         5.1220   37.9990    8.6730 C.ar   73  HIS73       0.0817
     16  ND1        6.0350   38.5670    7.8090 N.ar   73  HIS73      -0.2268
     17  CD2        4.7240   38.9890    9.5050 C.ar   73  HIS73       0.1154
     18  CE1        6.1920   39.8450    8.1190 C.ar   73  HIS73       0.1986
     19  NE2        5.4120   40.1230    9.1460 N.ar   73  HIS73      -0.2212
     20  N          8.5240   40.3660    3.5070 N.3    99  SER99      -0.1202
     21  CA         9.4830   40.2010    4.5890 C.3    99  SER99       0.2020
     22  C          9.1710   38.8880    5.3230 C.2    99  SER99       0.2619
     23  O          8.8690   38.8750    6.5120 O.2    99  SER99      -0.2717
     24  CB         9.3920   41.3990    5.5290 C.3    99  SER99       0.2103
     25  OG         8.0400   41.7900    5.6930 O.3    99  SER99      -0.2182
     26  N          9.2540   37.7830    4.5910 N.am  100  LEU100     -0.1965
     27  CA         8.8270   36.4870    5.1050 C.3   100  LEU100      0.1728
     28  C         10.0300   35.6470    5.5640 C.2   100  LEU100      0.2616
     29  O         10.8410   35.2170    4.7520 O.2   100  LEU100     -0.2715
     30  CB         8.0520   35.7470    4.0060 C.3   100  LEU100      0.0311
     31  CG         7.4410   34.3970    4.3810 C.3   100  LEU100      0.0022
     32  CD1        6.4740   34.5500    5.5370 C.3   100  LEU100      0.0001
     33  CD2        6.7370   33.7860    3.1530 C.3   100  LEU100      0.0001
     34  N         10.1320   35.4010    6.8630 N.am  101  THR101     -0.1951
     35  CA        11.3180   34.7660    7.4230 C.3   101  THR101      0.1897
     36  C         11.3010   33.2400    7.3160 C.2   101  THR101      0.2313
     37  O         10.3140   32.5850    7.6480 O.2   101  THR101     -0.2863
     38  CB        11.5120   35.1860    8.9010 C.3   101  THR101      0.1794
     39  OG1       11.6300   36.6140    8.9680 O.3   101  THR101     -0.2208
     40  CG2       12.7580   34.5470    9.4940 C.3   101  THR101      0.0378
     41  N          8.0930   26.4450    9.2480 N.3   106  ARG106     -0.1245
     42  CA         7.5300   26.7920    7.9470 C.3   106  ARG106      0.1563
     43  C          8.1600   25.9550    6.8250 C.2   106  ARG106      0.2260
     44  O          7.4680   25.5010    5.9200 O.2   106  ARG106     -0.2867
     45  CB         7.7320   28.2880    7.6770 C.3   106  ARG106      0.0307
     46  CG         6.9800   29.1800    8.6660 C.3   106  ARG106      0.0489
     47  CD         7.5150   30.6190    8.6650 C.3   106  ARG106      0.2205
     48  NE         6.6950   31.4950    9.4990 N.pl3 106  ARG106     -0.0865
     49  CZ         6.8470   32.8150    9.5760 C.cat 106  ARG106      0.5346
     50  NH1        7.8000   33.4080    8.8750 N.pl3 106  ARG106      0.1354
     51  NH2        6.0510   33.5330   10.3550 N.pl3 106  ARG106      0.1354
     52  N          6.0400   42.2110   18.1810 N.3   154  VAL154     -0.1231
     53  CA         4.7690   42.0400   17.4980 C.3   154  VAL154      0.1678
     54  C          4.5760   40.5400   17.4110 C.2   154  VAL154      0.2434
     55  O          5.3870   39.8500   16.8130 O.2   154  VAL154     -0.2733
     56  CB         4.8140   42.6070   16.0710 C.3   154  VAL154      0.0265
     57  CG1        3.4850   42.3070   15.3430 C.3   154  VAL154      0.0020
     58  CG2        5.0860   44.1100   16.1150 C.3   154  VAL154      0.0020
     59  N          3.5100   40.0240   18.0160 N.am  155  PRO155     -0.2729
     60  CA         3.3690   38.5690   18.1470 C.3   155  PRO155      0.1401
     61  C          2.9800   37.8870   16.8420 C.2   155  PRO155      0.2269
     62  O          2.6700   38.5770   15.8770 O.2   155  PRO155     -0.2865
     63  CB         2.2230   38.4240   19.1440 C.3   155  PRO155      0.0296
     64  CG         1.3940   39.6470   18.9310 C.3   155  PRO155      0.0237
     65  CD         2.3880   40.7550   18.6260 C.3   155  PRO155      0.0939
     66  N          4.6150   35.8900   14.6990 N.3   157  GLY157     -0.1210
     67  CA         5.5840   35.6520   13.6400 C.3   157  GLY157      0.1956
     68  C          6.8000   34.8630   14.0930 C.2   157  GLY157      0.2613
     69  O          6.7990   34.2620   15.1810 O.2   157  GLY157     -0.2717
     70  N          7.8430   34.8610   13.2620 N.am  158  SER158     -0.1938
     71  CA         9.0290   34.0530   13.5390 C.3   158  SER158      0.2055
     72  C          9.7580   34.5310   14.7830 C.2   158  SER158      0.2643
     73  O         10.3670   33.7290   15.4930 O.2   158  SER158     -0.2714
     74  CB         9.9910   34.0450   12.3510 C.3   158  SER158      0.2130
     75  OG        10.3530   35.3620   12.0110 O.3   158  SER158     -0.2179
     76  N          9.7020   35.8310   15.0490 N.am  159  THR159     -0.1950
     77  CA        10.3610   36.3500   16.2420 C.3   159  THR159      0.1897
     78  C          9.7370   35.7550   17.4980 C.2   159  THR159      0.2313
     79  O         10.4400   35.1570   18.3200 O.2   159  THR159     -0.2863
     80  CB        10.3290   37.8850   16.2990 C.3   159  THR159      0.1794
     81  OG1       11.0540   38.4060   15.1760 O.3   159  THR159     -0.2208
     82  CG2       11.0060   38.3660   17.5850 C.3   159  THR159      0.0378
     83  N         12.5080   42.4080   17.6310 N.3   199  TYR199     -0.1227
     84  CA        11.8290   42.1330   16.3650 C.3   199  TYR199      0.1736
     85  C         12.7940   41.7490   15.2630 C.2   199  TYR199      0.2595
     86  O         14.0130   41.6990   15.4680 O.2   199  TYR199     -0.2718
     87  CB        11.0020   43.3520   15.9430 C.3   199  TYR199      0.0548
     88  CG        10.0030   43.0680   14.8450 C.ar  199  TYR199     -0.0200
     89  CD1        9.0190   42.0950   15.0030 C.ar  199  TYR199     -0.0009
     90  CD2       10.0450   43.7720   13.6490 C.ar  199  TYR199     -0.0009
     91  CE1        8.1030   41.8300   13.9780 C.ar  199  TYR199      0.0417
     92  CE2        9.1430   43.5110   12.6320 C.ar  199  TYR199      0.0417
     93  CZ         8.1770   42.5460   12.8020 C.ar  199  TYR199      0.1957
     94  OH         7.2830   42.2870   11.7760 O.3   199  TYR199     -0.2866
     95  N         12.2250   41.4640   14.0910 N.am  200  ASP200     -0.1974
     96  CA        12.9840   41.1270   12.9060 C.3   200  ASP200      0.1709
     97  C         14.1240   42.1190   12.6900 C.2   200  ASP200      0.2293
     98  O         13.9200   43.3260   12.7360 O.2   200  ASP200     -0.2864
     99  CB        12.0450   41.1240   11.6930 C.3   200  ASP200      0.1436
    100  CG        12.7780   40.9060   10.3970 C.2   200  ASP200      0.3671
    101  OD1       13.1270   39.7480   10.1030 O.co2 200  ASP200     -0.2456
    102  OD2       12.9940   41.8900    9.6650 O.co2 200  ASP200     -0.2456
    103  N         15.0440   36.2280    4.5990 N.3   230  TYR230     -0.1241
    104  CA        13.7280   36.2490    3.9550 C.3   230  TYR230      0.1605
    105  C         13.8020   35.3250    2.7480 C.2   230  TYR230      0.2264
    106  O         14.8000   35.3260    2.0260 O.2   230  TYR230     -0.2867
    107  CB        13.3780   37.6440    3.4260 C.3   230  TYR230      0.0534
    108  CG        13.1070   38.7130    4.4710 C.ar  230  TYR230     -0.0201
    109  CD1       12.8170   38.3890    5.7910 C.ar  230  TYR230     -0.0009
    110  CD2       13.1230   40.0550    4.1130 C.ar  230  TYR230     -0.0009
    111  CE1       12.5670   39.4010    6.7450 C.ar  230  TYR230      0.0417
    112  CE2       12.8730   41.0410    5.0290 C.ar  230  TYR230      0.0417
    113  CZ        12.6000   40.7190    6.3380 C.ar  230  TYR230      0.1957
    114  OH        12.3540   41.7360    7.2210 O.3   230  TYR230     -0.2866
@<TRIPOS>BOND
     1   106   105    2
     2   105   104    1
     3    33    31    1
     4   107   104    1
     5   107   108    1
     6    20    21    1
     7   104   103    1
     8    30    31    1
     9    30    27    1
    10   110   108   ar
    11   110   112   ar
    12    31    32    1
    13   108   109   ar
    14    21    22    1
    15    21    24    1
    16    26    27    1
    17    26    22   am
    18     4     3    2
    19    29    28    2
    20     1     2    1
    21   112   113   ar
    22    27    28    1
    23    22    23    2
    24     3     2    1
    25    24    25    1
    26    28    34   am
    27   109   111   ar
    28     2     5    1
    29    44    43    2
    30   113   111   ar
    31   113   114    1
    32     5     6    1
    33    43    42    1
    34    34    35    1
    35    13    12    2
    36    36    35    1
    37    36    37    2
    38     6     7    1
    39    35    38    1
    40    45    42    1
    41    45    46    1
    42    16    18   ar
    43    16    15   ar
    44    12    11    1
    45    11    10    1
    46    11    14    1
    47    42    41    1
    48     8     7   ar
    49    18    19   ar
    50     7     9   ar
    51    14    15    1
    52    47    46    1
    53    47    48    1
    54    15    17   ar
    55    50    49    1
    56    38    39    1
    57    38    40    1
    58    19    17   ar
    59    48    49    2
    60    49    51    1
    61   102   100   ar
    62   101   100   ar
    63   100    99    1
    64    99    96    1
    65    94    93    1
    66    75    74    1
    67    74    71    1
    68    92    93   ar
    69    92    90   ar
    70    97    98    2
    71    97    96    1
    72    93    91   ar
    73    96    95    1
    74    70    71    1
    75    70    68   am
    76    71    72    1
    77    67    68    1
    78    67    66    1
    79    90    88   ar
    80    91    89   ar
    81    95    85   am
    82    68    69    2
    83    72    76   am
    84    72    73    2
    85    88    89   ar
    86    88    87    1
    87    76    77    1
    88    81    80    1
    89    85    86    2
    90    85    84    1
    91    57    56    1
    92    62    61    2
    93    87    84    1
    94    56    58    1
    95    56    53    1
    96    77    80    1
    97    77    78    1
    98    80    82    1
    99    84    83    1
   100    55    54    2
   101    61    60    1
   102    54    53    1
   103    54    59   am
   104    53    52    1
   105    78    79    2
   106    59    60    1
   107    59    65    1
   108    60    63    1
   109    65    64    1
   110    64    63    1
