@<TRIPOS>MOLECULE
tmp/3oelA00.pdb
 116 111 0 0 0
SMALL
GASTEIGER

@<TRIPOS>ATOM
      1  N          4.7010   45.6760    4.6780 N.3    10  GLU10      -0.1245
      2  CA         5.6900   45.8740    5.7300 C.3    10  GLU10       0.1567
      3  C          6.8070   46.7400    5.1800 C.2    10  GLU10       0.2260
      4  O          7.7340   46.2570    4.5360 O.2    10  GLU10      -0.2867
      5  CB         6.2560   44.5520    6.2560 C.3    10  GLU10       0.0388
      6  CG         7.3540   44.7950    7.2920 C.3    10  GLU10       0.1160
      7  CD         7.4950   43.6780    8.3130 C.2    10  GLU10       0.3649
      8  OE1        7.4820   43.9870    9.5230 O.co2  10  GLU10      -0.2457
      9  OE2        7.6290   42.5030    7.9130 O.co2  10  GLU10      -0.2457
     10  N          2.2970   37.2640    8.4790 N.3    68  HIS68      -0.1241
     11  CA         3.3410   36.4790    7.8350 C.3    68  HIS68       0.1621
     12  C          3.0050   34.9970    7.8440 C.2    68  HIS68       0.2264
     13  O          3.0920   34.3250    6.8190 O.2    68  HIS68      -0.2867
     14  CB         4.6930   36.7190    8.5040 C.3    68  HIS68       0.0745
     15  CG         5.0480   38.1670    8.6160 C.ar   68  HIS68       0.0817
     16  ND1        5.8330   38.8190    7.6890 N.ar   68  HIS68      -0.2268
     17  CD2        4.7120   39.0930    9.5460 C.ar   68  HIS68       0.1154
     18  CE1        5.9670   40.0860    8.0440 C.ar   68  HIS68       0.1986
     19  NE2        5.3010   40.2760    9.1700 N.ar   68  HIS68      -0.2212
     20  N          8.5310   40.3730    3.3070 N.3    94  SER94      -0.1202
     21  CA         9.4880   40.2170    4.4000 C.3    94  SER94       0.2020
     22  C          9.1310   38.9450    5.1610 C.2    94  SER94       0.2619
     23  O          8.7140   38.9900    6.3090 O.2    94  SER94      -0.2717
     24  CB         9.4210   41.4280    5.3250 C.3    94  SER94       0.2103
     25  OG         8.0810   41.8780    5.4390 O.3    94  SER94      -0.2182
     26  N          9.2790   37.8080    4.4920 N.am   95  LEU95      -0.1965
     27  CA         8.8250   36.5390    5.0360 C.3    95  LEU95       0.1728
     28  C         10.0140   35.7060    5.5150 C.2    95  LEU95       0.2616
     29  O         10.8580   35.3030    4.7190 O.2    95  LEU95      -0.2715
     30  CB         8.0510   35.7850    3.9560 C.3    95  LEU95       0.0311
     31  CG         7.4470   34.4340    4.3300 C.3    95  LEU95       0.0022
     32  CD1        6.4100   34.6200    5.4070 C.3    95  LEU95       0.0001
     33  CD2        6.8250   33.7990    3.0880 C.3    95  LEU95       0.0001
     34  N         10.0700   35.4370    6.8150 N.am   96  THR96      -0.1951
     35  CA        11.2390   34.7970    7.4070 C.3    96  THR96       0.1897
     36  C         11.2570   33.2720    7.2780 C.2    96  THR96       0.2313
     37  O         10.2760   32.5940    7.5750 O.2    96  THR96      -0.2863
     38  CB        11.3560   35.1620    8.9000 C.3    96  THR96       0.1794
     39  OG1       11.5090   36.5810    9.0260 O.3    96  THR96      -0.2208
     40  CG2       12.5450   34.4610    9.5340 C.3    96  THR96       0.0378
     41  N          8.0820   26.4750    9.2220 N.3   101  ARG101     -0.1245
     42  CA         7.5140   26.8290    7.9260 C.3   101  ARG101      0.1563
     43  C          8.1370   25.9800    6.8180 C.2   101  ARG101      0.2260
     44  O          7.4480   25.5210    5.9150 O.2   101  ARG101     -0.2867
     45  CB         7.7130   28.3230    7.6540 C.3   101  ARG101      0.0307
     46  CG         6.9480   29.2210    8.6400 C.3   101  ARG101      0.0489
     47  CD         7.4340   30.6740    8.6020 C.3   101  ARG101      0.2205
     48  NE         6.6390   31.5520    9.4620 N.pl3 101  ARG101     -0.0865
     49  CZ         6.8270   32.8690    9.5650 C.cat 101  ARG101      0.5346
     50  NH1        7.7920   33.4540    8.8750 N.pl3 101  ARG101      0.1354
     51  NH2        6.0580   33.5980   10.3620 N.pl3 101  ARG101      0.1354
     52  N          5.9570   42.2200   18.2180 N.3   149  VAL149     -0.1245
     53  CA         4.6580   42.0380   17.5950 C.3   149  VAL149      0.1561
     54  C          4.4620   40.5340   17.4850 C.2   149  VAL149      0.2260
     55  O          5.2440   39.8620   16.8240 O.2   149  VAL149     -0.2867
     56  CB         4.6230   42.6350   16.1810 C.3   149  VAL149      0.0252
     57  CG1        3.2620   42.3480   15.5280 C.3   149  VAL149      0.0019
     58  CG2        4.9160   44.1280   16.2310 C.3   149  VAL149      0.0019
     59  N          4.6190   36.1520   14.6830 N.3   152  GLY152     -0.1210
     60  CA         5.6350   35.9950   13.6550 C.3   152  GLY152      0.1956
     61  C          6.7960   35.1150   14.0680 C.2   152  GLY152      0.2613
     62  O          6.7660   34.4800   15.1280 O.2   152  GLY152     -0.2717
     63  N          7.8330   35.0800   13.2370 N.am  153  SER153     -0.1938
     64  CA         8.9710   34.2050   13.5060 C.3   153  SER153      0.2055
     65  C          9.7130   34.6100   14.7740 C.2   153  SER153      0.2644
     66  O         10.3580   33.7790   15.4160 O.2   153  SER153     -0.2714
     67  CB         9.9330   34.1900   12.3210 C.3   153  SER153      0.2130
     68  OG        10.3660   35.4980   12.0360 O.3   153  SER153     -0.2179
     69  N          9.6460   35.8860   15.1330 N.am  154  THR154     -0.1936
     70  CA        10.3310   36.3210   16.3510 C.3   154  THR154      0.2028
     71  C          9.7110   35.7040   17.6000 C.2   154  THR154      0.2642
     72  O         10.4160   35.0870   18.4060 O.2   154  THR154     -0.2714
     73  CB        10.4110   37.8470   16.4560 C.3   154  THR154      0.1808
     74  OG1       11.2760   38.3250   15.4190 O.3   154  THR154     -0.2208
     75  CG2       10.9880   38.2670   17.8100 C.3   154  THR154      0.0379
     76  N          8.3990   35.8520   17.7630 N.am  155  GLU155     -0.1976
     77  CA         7.7420   35.2610   18.9230 C.3   155  GLU155      0.1602
     78  C          7.9110   33.7440   18.9330 C.2   155  GLU155      0.2287
     79  O          8.1200   33.1380   19.9820 O.2   155  GLU155     -0.2864
     80  CB         6.2570   35.6110   18.9890 C.3   155  GLU155      0.0415
     81  CG         5.6410   35.1140   20.2950 C.3   155  GLU155      0.1163
     82  CD         4.1310   35.1560   20.3270 C.2   155  GLU155      0.3649
     83  OE1        3.4910   35.2440   19.2570 O.co2 155  GLU155     -0.2457
     84  OE2        3.5810   35.0890   21.4470 O.co2 155  GLU155     -0.2457
     85  N         12.4230   42.4080   17.5340 N.3   194  TYR194     -0.1227
     86  CA        11.7560   42.2130   16.2530 C.3   194  TYR194      0.1736
     87  C         12.7260   41.8390   15.1440 C.2   194  TYR194      0.2595
     88  O         13.9420   41.8630   15.3270 O.2   194  TYR194     -0.2718
     89  CB        10.9890   43.4910   15.8730 C.3   194  TYR194      0.0548
     90  CG         9.9640   43.2930   14.7740 C.ar  194  TYR194     -0.0200
     91  CD1        8.7900   42.5870   15.0100 C.ar  194  TYR194     -0.0009
     92  CD2       10.1710   43.8170   13.5030 C.ar  194  TYR194     -0.0009
     93  CE1        7.8510   42.3990   14.0010 C.ar  194  TYR194      0.0417
     94  CE2        9.2450   43.6320   12.4960 C.ar  194  TYR194      0.0417
     95  CZ         8.0870   42.9310   12.7530 C.ar  194  TYR194      0.1957
     96  OH         7.1610   42.7480   11.7490 O.3   194  TYR194     -0.2866
     97  N         12.1600   41.4880   13.9910 N.am  195  ASP195     -0.1974
     98  CA        12.9140   41.1910   12.7840 C.3   195  ASP195      0.1709
     99  C         14.0670   42.1720   12.5780 C.2   195  ASP195      0.2293
    100  O         13.8700   43.3800   12.5930 O.2   195  ASP195     -0.2864
    101  CB        11.9660   41.2440   11.5760 C.3   195  ASP195      0.1436
    102  CG        12.6790   41.0080   10.2610 C.2   195  ASP195      0.3671
    103  OD1       13.0800   39.8580   10.0180 O.co2 195  ASP195     -0.2456
    104  OD2       12.8220   41.9660    9.4680 O.co2 195  ASP195     -0.2456
    105  N         15.0110   36.2450    4.5380 N.3   225  TYR225     -0.1241
    106  CA        13.7080   36.2470    3.8760 C.3   225  TYR225      0.1605
    107  C         13.7860   35.2980    2.6960 C.2   225  TYR225      0.2264
    108  O         14.7720   35.3020    1.9540 O.2   225  TYR225     -0.2867
    109  CB        13.3470   37.6280    3.3160 C.3   225  TYR225      0.0534
    110  CG        13.1080   38.7240    4.3320 C.ar  225  TYR225     -0.0201
    111  CD1       12.8220   38.4380    5.6620 C.ar  225  TYR225     -0.0009
    112  CD2       13.1250   40.0530    3.9380 C.ar  225  TYR225     -0.0009
    113  CE1       12.5960   39.4610    6.5810 C.ar  225  TYR225      0.0417
    114  CE2       12.8940   41.0680    4.8330 C.ar  225  TYR225      0.0417
    115  CZ        12.6350   40.7720    6.1520 C.ar  225  TYR225      0.1957
    116  OH        12.4080   41.8050    7.0230 O.3   225  TYR225     -0.2866
@<TRIPOS>BOND
     1   108   107    2
     2   107   106    1
     3    33    31    1
     4    20    21    1
     5   109   106    1
     6   109   110    1
     7   106   105    1
     8   112   110   ar
     9   112   114   ar
    10    30    31    1
    11    30    27    1
    12    31    32    1
    13   110   111   ar
    14    21    22    1
    15    21    24    1
    16    26    27    1
    17    26    22   am
    18     4     3    2
    19     1     2    1
    20    29    28    2
    21   114   115   ar
    22    27    28    1
    23    22    23    2
    24     3     2    1
    25    24    25    1
    26    28    34   am
    27   111   113   ar
    28     2     5    1
    29    44    43    2
    30   115   113   ar
    31   115   116    1
    32     5     6    1
    33    34    35    1
    34    43    42    1
    35    13    12    2
    36    36    35    1
    37    36    37    2
    38     6     7    1
    39    35    38    1
    40    45    42    1
    41    45    46    1
    42    16    18   ar
    43    16    15   ar
    44    11    12    1
    45    11    10    1
    46    11    14    1
    47     9     7   ar
    48    42    41    1
    49    18    19   ar
    50     7     8   ar
    51    14    15    1
    52    47    46    1
    53    47    48    1
    54    15    17   ar
    55    50    49    1
    56    38    39    1
    57    38    40    1
    58    19    17   ar
    59    48    49    2
    60   104   102   ar
    61    49    51    1
    62   103   102   ar
    63   102   101    1
    64   101    98    1
    65    96    95    1
    66    68    67    1
    67    67    64    1
    68    94    95   ar
    69    94    92   ar
    70    99   100    2
    71    99    98    1
    72    95    93   ar
    73    98    97    1
    74    63    64    1
    75    63    61   am
    76    92    90   ar
    77    64    65    1
    78    60    61    1
    79    60    59    1
    80    97    87   am
    81    93    91   ar
    82    61    62    2
    83    65    69   am
    84    65    66    2
    85    90    91   ar
    86    90    89    1
    87    69    70    1
    88    87    88    2
    89    87    86    1
    90    74    73    1
    91    57    56    1
    92    89    86    1
    93    56    58    1
    94    56    53    1
    95    86    85    1
    96    70    73    1
    97    70    71    1
    98    73    75    1
    99    55    54    2
   100    54    53    1
   101    53    52    1
   102    71    76   am
   103    71    72    2
   104    76    77    1
   105    77    78    1
   106    77    80    1
   107    78    79    2
   108    80    81    1
   109    83    82   ar
   110    81    82    1
   111    82    84   ar
