@<TRIPOS>MOLECULE
tmp/3oemA00.pdb
 99 93 0 0 0
SMALL
GASTEIGER

@<TRIPOS>ATOM
      1  N          4.8110   45.5830    4.8760 N.3    10  GLU10      -0.1245
      2  CA         5.8290   45.7170    5.9060 C.3    10  GLU10       0.1567
      3  C          6.9300   46.6000    5.3490 C.2    10  GLU10       0.2260
      4  O          7.8240   46.1290    4.6560 O.2    10  GLU10      -0.2867
      5  CB         6.4030   44.3620    6.3240 C.3    10  GLU10       0.0388
      6  CG         7.5630   44.5100    7.3190 C.3    10  GLU10       0.1160
      7  CD         7.4550   43.5760    8.5170 C.2    10  GLU10       0.3649
      8  OE1        7.4190   42.3400    8.3270 O.co2  10  GLU10      -0.2457
      9  OE2        7.4230   44.0830    9.6540 O.co2  10  GLU10      -0.2457
     10  N          2.2340   37.1090    8.5150 N.3    71  HIS71      -0.1241
     11  CA         3.2470   36.2790    7.8570 C.3    71  HIS71       0.1621
     12  C          2.9230   34.7910    7.8680 C.2    71  HIS71       0.2264
     13  O          3.0230   34.1060    6.8450 O.2    71  HIS71      -0.2867
     14  CB         4.6210   36.5260    8.4690 C.3    71  HIS71       0.0745
     15  CG         5.0850   37.9360    8.3230 C.ar   71  HIS71       0.0817
     16  ND1        4.6980   38.9370    9.1930 N.ar   71  HIS71      -0.2268
     17  CD2        5.8820   38.5230    7.3990 C.ar   71  HIS71       0.1154
     18  CE1        5.2560   40.0760    8.8200 C.ar   71  HIS71       0.1986
     19  NE2        5.9750   39.8530    7.7330 N.ar   71  HIS71      -0.2212
     20  N          8.5810   40.3220    3.6560 N.3    97  SER97      -0.1217
     21  CA         9.5470   40.1210    4.7260 C.3    97  SER97       0.1889
     22  C          9.2390   38.8000    5.4230 C.2    97  SER97       0.2288
     23  O          8.9700   38.7510    6.6180 O.2    97  SER97      -0.2866
     24  CB         9.4470   41.2880    5.7050 C.3    97  SER97       0.2089
     25  OG         8.0810   41.5870    5.9360 O.3    97  SER97      -0.2183
     26  N         10.2340   35.4260    6.9190 N.3    99  THR99      -0.1218
     27  CA        11.4250   34.8150    7.4940 C.3    99  THR99       0.1862
     28  C         11.3980   33.2900    7.3840 C.2    99  THR99       0.2287
     29  O         10.4010   32.6430    7.7050 O.2    99  THR99      -0.2866
     30  CB        11.5920   35.2320    8.9890 C.3    99  THR99       0.1770
     31  OG1       11.6750   36.6570    9.0740 O.3    99  THR99      -0.2211
     32  CG2       12.8510   34.6230    9.5920 C.3    99  THR99       0.0375
     33  N          8.1850   26.4660    9.2300 N.3   104  ARG104     -0.1245
     34  CA         7.6340   26.7950    7.9200 C.3   104  ARG104      0.1563
     35  C          8.2830   25.9520    6.8230 C.2   104  ARG104      0.2260
     36  O          7.6000   25.4730    5.9210 O.2   104  ARG104     -0.2867
     37  CB         7.8130   28.2870    7.6260 C.3   104  ARG104      0.0307
     38  CG         6.9930   29.1870    8.5620 C.3   104  ARG104      0.0489
     39  CD         7.5220   30.6190    8.5760 C.3   104  ARG104      0.2205
     40  NE         6.6840   31.4800    9.4090 N.pl3 104  ARG104     -0.0865
     41  CZ         6.8390   32.7960    9.5230 C.cat 104  ARG104      0.5346
     42  NH1        7.8090   33.4030    8.8540 N.pl3 104  ARG104      0.1354
     43  NH2        6.0210   33.4990   10.3070 N.pl3 104  ARG104      0.1354
     44  N          6.1000   42.1210   18.1630 N.3   152  VAL152     -0.1245
     45  CA         4.8370   41.9460   17.4650 C.3   152  VAL152      0.1561
     46  C          4.6470   40.4370   17.3750 C.2   152  VAL152      0.2260
     47  O          5.4760   39.7470   16.8020 O.2   152  VAL152     -0.2867
     48  CB         4.8940   42.5420   16.0430 C.3   152  VAL152      0.0252
     49  CG1        3.5920   42.2260   15.2840 C.3   152  VAL152      0.0019
     50  CG2        5.1280   44.0430   16.1140 C.3   152  VAL152      0.0019
     51  N          4.5770   35.8310   14.6020 N.3   155  GLY155     -0.1210
     52  CA         5.5250   35.6190   13.5250 C.3   155  GLY155      0.1956
     53  C          6.7460   34.8350   13.9730 C.2   155  GLY155      0.2613
     54  O          6.7470   34.2270   15.0480 O.2   155  GLY155     -0.2717
     55  N          7.7950   34.8540   13.1570 N.am  156  SER156     -0.1938
     56  CA         8.9780   34.0450   13.4370 C.3   156  SER156      0.2055
     57  C          9.7200   34.5270   14.6770 C.2   156  SER156      0.2643
     58  O         10.3900   33.7340   15.3500 O.2   156  SER156     -0.2714
     59  CB         9.9290   34.0440   12.2430 C.3   156  SER156      0.2130
     60  OG        10.3040   35.3730   11.9450 O.3   156  SER156     -0.2179
     61  N          9.6240   35.8220   14.9760 N.am  157  THR157     -0.1950
     62  CA        10.3020   36.3450   16.1610 C.3   157  THR157      0.1897
     63  C          9.7190   35.7360   17.4270 C.2   157  THR157      0.2313
     64  O         10.4480   35.1520   18.2270 O.2   157  THR157     -0.2863
     65  CB        10.2420   37.8860   16.2570 C.3   157  THR157      0.1794
     66  OG1       10.8890   38.4430   15.1100 O.3   157  THR157     -0.2208
     67  CG2       10.9690   38.3550   17.5200 C.3   157  THR157      0.0378
     68  N         12.5910   42.3830   17.6250 N.3   197  TYR197     -0.1227
     69  CA        11.9480   42.1040   16.3450 C.3   197  TYR197      0.1736
     70  C         12.9450   41.7160   15.2660 C.2   197  TYR197      0.2595
     71  O         14.1450   41.5990   15.5100 O.2   197  TYR197     -0.2718
     72  CB        11.1150   43.3160   15.9000 C.3   197  TYR197      0.0548
     73  CG        10.1090   43.0070   14.8020 C.ar  197  TYR197     -0.0200
     74  CD1        9.1010   42.0720   14.9980 C.ar  197  TYR197     -0.0009
     75  CD2       10.1700   43.6550   13.5760 C.ar  197  TYR197     -0.0009
     76  CE1        8.1820   41.7840   13.9840 C.ar  197  TYR197      0.0417
     77  CE2        9.2640   43.3710   12.5660 C.ar  197  TYR197      0.0417
     78  CZ         8.2700   42.4410   12.7810 C.ar  197  TYR197      0.1957
     79  OH         7.3650   42.1520   11.7740 O.3   197  TYR197     -0.2866
     80  N         12.4170   41.5110   14.0660 N.am  198  ASP198     -0.1974
     81  CA        13.2030   41.1560   12.9060 C.3   198  ASP198      0.1709
     82  C         14.3410   42.1540   12.7170 C.2   198  ASP198      0.2293
     83  O         14.1170   43.3540   12.7150 O.2   198  ASP198     -0.2864
     84  CB        12.2930   41.1750   11.6720 C.3   198  ASP198      0.1436
     85  CG        13.0470   40.9260   10.3980 C.2   198  ASP198      0.3671
     86  OD1       13.4090   39.7560   10.1570 O.co2 198  ASP198     -0.2456
     87  OD2       13.2610   41.8910    9.6330 O.co2 198  ASP198     -0.2456
     88  N         15.0990   36.2690    4.6460 N.3   228  TYR228     -0.1241
     89  CA        13.7980   36.2690    3.9870 C.3   228  TYR228      0.1605
     90  C         13.8730   35.3580    2.7760 C.2   228  TYR228      0.2264
     91  O         14.8560   35.3800    2.0360 O.2   228  TYR228     -0.2867
     92  CB        13.4150   37.6470    3.4570 C.3   228  TYR228      0.0534
     93  CG        13.2040   38.7350    4.4820 C.ar  228  TYR228     -0.0201
     94  CD1       13.0190   38.4460    5.8240 C.ar  228  TYR228     -0.0009
     95  CD2       13.1550   40.0610    4.0790 C.ar  228  TYR228     -0.0009
     96  CE1       12.8150   39.4680    6.7460 C.ar  228  TYR228      0.0417
     97  CE2       12.9460   41.0690    4.9730 C.ar  228  TYR228      0.0417
     98  CZ        12.7870   40.7710    6.3050 C.ar  228  TYR228      0.1957
     99  OH        12.5800   41.8030    7.1770 O.3   228  TYR228     -0.2866
@<TRIPOS>BOND
     1    91    90    2
     2    90    89    1
     3    92    89    1
     4    92    93    1
     5    20    21    1
     6    89    88    1
     7    95    93   ar
     8    95    97   ar
     9    93    94   ar
    10     4     3    2
    11    21    22    1
    12    21    24    1
    13     1     2    1
    14    97    98   ar
    15     3     2    1
    16    22    23    2
    17    24    25    1
    18    94    96   ar
    19     2     5    1
    20    36    35    2
    21    98    96   ar
    22    98    99    1
    23     5     6    1
    24    35    34    1
    25    13    12    2
    26    26    27    1
    27     6     7    1
    28    28    27    1
    29    28    29    2
    30    17    19   ar
    31    17    15   ar
    32    27    30    1
    33    37    34    1
    34    37    38    1
    35    19    18   ar
    36    11    12    1
    37    11    14    1
    38    11    10    1
    39    34    33    1
    40    15    14    1
    41    15    16   ar
    42     8     7   ar
    43     7     9   ar
    44    38    39    1
    45    39    40    1
    46    18    16   ar
    47    42    41    1
    48    30    31    1
    49    30    32    1
    50    40    41    2
    51    41    43    1
    52    87    85   ar
    53    86    85   ar
    54    85    84    1
    55    84    81    1
    56    79    78    1
    57    60    59    1
    58    59    56    1
    59    77    78   ar
    60    77    75   ar
    61    83    82    2
    62    82    81    1
    63    78    76   ar
    64    81    80    1
    65    55    56    1
    66    55    53   am
    67    56    57    1
    68    52    53    1
    69    52    51    1
    70    75    73   ar
    71    53    54    2
    72    76    74   ar
    73    80    70   am
    74    57    61   am
    75    57    58    2
    76    73    74   ar
    77    73    72    1
    78    61    62    1
    79    66    65    1
    80    70    71    2
    81    70    69    1
    82    49    48    1
    83    72    69    1
    84    48    50    1
    85    48    45    1
    86    62    65    1
    87    62    63    1
    88    65    67    1
    89    69    68    1
    90    47    46    2
    91    46    45    1
    92    63    64    2
    93    45    44    1
