@<TRIPOS>MOLECULE
tmp/3oenA00.pdb
 107 102 0 0 0
SMALL
GASTEIGER

@<TRIPOS>ATOM
      1  N          4.7660   45.4500    4.7230 N.3    11  GLU11      -0.1245
      2  CA         5.7650   45.6710    5.7610 C.3    11  GLU11       0.1567
      3  C          6.8680   46.5760    5.2270 C.2    11  GLU11       0.2260
      4  O          7.7920   46.1270    4.5660 O.2    11  GLU11      -0.2867
      5  CB         6.3680   44.3570    6.2610 C.3    11  GLU11       0.0388
      6  CG         7.5230   44.6160    7.2430 C.3    11  GLU11       0.1160
      7  CD         7.5740   43.6380    8.4070 C.2    11  GLU11       0.3649
      8  OE1        7.6310   42.4150    8.1760 O.co2  11  GLU11      -0.2457
      9  OE2        7.5990   44.1080    9.5550 O.co2  11  GLU11      -0.2457
     10  N          2.2050   37.1050    8.5100 N.3    73  HIS73      -0.1241
     11  CA         3.2440   36.3210    7.8510 C.3    73  HIS73       0.1621
     12  C          2.9470   34.8280    7.8490 C.2    73  HIS73       0.2264
     13  O          3.0510   34.1690    6.8160 O.2    73  HIS73      -0.2867
     14  CB         4.6250   36.5960    8.4510 C.3    73  HIS73       0.0745
     15  CG         4.9860   38.0440    8.4590 C.ar   73  HIS73       0.0817
     16  ND1        4.5100   38.9160    9.4140 N.ar   73  HIS73      -0.2268
     17  CD2        5.7560   38.7780    7.6220 C.ar   73  HIS73       0.1154
     18  CE1        4.9750   40.1290    9.1660 C.ar   73  HIS73       0.1986
     19  NE2        5.7360   40.0710    8.0900 N.ar   73  HIS73      -0.2212
     20  N          8.5380   40.1960    3.4830 N.3    99  SER99      -0.1202
     21  CA         9.4770   40.0430    4.5960 C.3    99  SER99       0.2020
     22  C          9.1300   38.7530    5.3310 C.2    99  SER99       0.2619
     23  O          8.7730   38.7420    6.5140 O.2    99  SER99      -0.2717
     24  CB         9.3150   41.2390    5.5210 C.3    99  SER99       0.2103
     25  OG         7.9340   41.4880    5.7080 O.3    99  SER99      -0.2182
     26  N          9.2430   37.6510    4.6130 N.am  100  LEU100     -0.1965
     27  CA         8.8150   36.3590    5.1350 C.3   100  LEU100      0.1728
     28  C         10.0260   35.5460    5.5900 C.2   100  LEU100      0.2616
     29  O         10.8360   35.1000    4.7760 O.2   100  LEU100     -0.2715
     30  CB         8.0570   35.6120    4.0210 C.3   100  LEU100      0.0311
     31  CG         7.4210   34.2710    4.3650 C.3   100  LEU100      0.0022
     32  CD1        6.4050   34.4460    5.4590 C.3   100  LEU100      0.0001
     33  CD2        6.7770   33.6430    3.1010 C.3   100  LEU100      0.0001
     34  N         10.1310   35.3310    6.8960 N.am  101  THR101     -0.1951
     35  CA        11.3000   34.6620    7.4630 C.3   101  THR101      0.1897
     36  C         11.3020   33.1360    7.3470 C.2   101  THR101      0.2313
     37  O         10.3160   32.4670    7.6430 O.2   101  THR101     -0.2863
     38  CB        11.4310   35.0500    8.9400 C.3   101  THR101      0.1794
     39  OG1       11.5740   36.4740    9.0250 O.3   101  THR101     -0.2208
     40  CG2       12.6490   34.3760    9.5770 C.3   101  THR101      0.0378
     41  N          8.0530   26.3190    9.2440 N.3   106  ARG106     -0.1245
     42  CA         7.5160   26.6570    7.9370 C.3   106  ARG106      0.1563
     43  C          8.1510   25.8040    6.8480 C.2   106  ARG106      0.2260
     44  O          7.4700   25.3510    5.9410 O.2   106  ARG106     -0.2867
     45  CB         7.7430   28.1370    7.6460 C.3   106  ARG106      0.0307
     46  CG         6.9540   29.0360    8.5930 C.3   106  ARG106      0.0489
     47  CD         7.4950   30.4680    8.5790 C.3   106  ARG106      0.2205
     48  NE         6.6890   31.3450    9.4220 N.pl3 106  ARG106     -0.0865
     49  CZ         6.8380   32.6650    9.4950 C.cat 106  ARG106      0.5346
     50  NH1        7.7590   33.2760    8.7670 N.pl3 106  ARG106      0.1354
     51  NH2        6.0550   33.3760   10.2960 N.pl3 106  ARG106      0.1354
     52  N          5.9770   42.0710   18.2190 N.3   134  VAL134     -0.1245
     53  CA         4.6870   41.9170   17.5650 C.3   134  VAL134      0.1561
     54  C          4.4730   40.4210   17.4470 C.2   134  VAL134      0.2260
     55  O          5.2760   39.7310   16.8220 O.2   134  VAL134     -0.2867
     56  CB         4.6920   42.5410   16.1570 C.3   134  VAL134      0.0252
     57  CG1        3.3730   42.2380   15.4470 C.3   134  VAL134      0.0019
     58  CG2        4.9180   44.0500   16.2710 C.3   134  VAL134      0.0019
     59  N          4.5960   35.9470   14.6850 N.3   137  GLY137     -0.1210
     60  CA         5.5760   35.7120   13.6430 C.3   137  GLY137      0.1956
     61  C          6.7810   34.9050   14.0970 C.2   137  GLY137      0.2613
     62  O          6.7650   34.2950   15.1780 O.2   137  GLY137     -0.2717
     63  N          7.8310   34.9170   13.2750 N.am  138  SER138     -0.1938
     64  CA         9.0080   34.0930   13.5270 C.3   138  SER138      0.2055
     65  C          9.7060   34.4890   14.8140 C.2   138  SER138      0.2643
     66  O         10.2630   33.6310   15.4990 O.2   138  SER138     -0.2714
     67  CB         9.9910   34.1440   12.3530 C.3   138  SER138      0.2130
     68  OG        10.3810   35.4730   12.0510 O.3   138  SER138     -0.2179
     69  N          9.6950   35.7800   15.1360 N.am  139  THR139     -0.1950
     70  CA        10.3750   36.2310   16.3490 C.3   139  THR139      0.1897
     71  C          9.7290   35.6310   17.5930 C.2   139  THR139      0.2313
     72  O         10.4140   35.0060   18.4090 O.2   139  THR139     -0.2863
     73  CB        10.4590   37.7550   16.4290 C.3   139  THR139      0.1794
     74  OG1       11.2770   38.2170   15.3440 O.3   139  THR139     -0.2208
     75  CG2       11.0860   38.2100   17.7610 C.3   139  THR139      0.0378
     76  N         12.4670   42.2440   17.5530 N.3   179  TYR179     -0.1227
     77  CA        11.8040   42.0650   16.2640 C.3   179  TYR179      0.1736
     78  C         12.7790   41.6670   15.1720 C.2   179  TYR179      0.2595
     79  O         13.9860   41.6450   15.3840 O.2   179  TYR179     -0.2718
     80  CB        11.0970   43.3710   15.8780 C.3   179  TYR179      0.0548
     81  CG        10.0410   43.2290   14.7990 C.ar  179  TYR179     -0.0200
     82  CD1        8.8530   42.5470   15.0480 C.ar  179  TYR179     -0.0009
     83  CD2       10.2250   43.7960   13.5440 C.ar  179  TYR179     -0.0009
     84  CE1        7.8830   42.4240   14.0570 C.ar  179  TYR179      0.0417
     85  CE2        9.2630   43.6710   12.5500 C.ar  179  TYR179      0.0417
     86  CZ         8.0920   42.9970   12.8230 C.ar  179  TYR179      0.1957
     87  OH         7.1310   42.8830   11.8380 O.3   179  TYR179     -0.2866
     88  N         12.2300   41.3600   13.9970 N.am  180  ASP180     -0.1974
     89  CA        13.0020   41.0420   12.8140 C.3   180  ASP180      0.1709
     90  C         14.1370   42.0330   12.6200 C.2   180  ASP180      0.2293
     91  O         13.9170   43.2410   12.6090 O.2   180  ASP180     -0.2864
     92  CB        12.0810   41.1390   11.5960 C.3   180  ASP180      0.1436
     93  CG        12.8200   40.9280   10.2940 C.2   180  ASP180      0.3671
     94  OD1       13.2220   39.7830   10.0350 O.co2 180  ASP180     -0.2456
     95  OD2       13.0070   41.9070    9.5330 O.co2 180  ASP180     -0.2456
     96  N         15.0670   36.0950    4.6050 N.3   210  TYR210     -0.1241
     97  CA        13.7470   36.0880    3.9730 C.3   210  TYR210      0.1605
     98  C         13.8070   35.1670    2.7630 C.2   210  TYR210      0.2264
     99  O         14.7970   35.1560    2.0280 O.2   210  TYR210     -0.2867
    100  CB        13.3520   37.4630    3.4440 C.3   210  TYR210      0.0534
    101  CG        13.1210   38.5590    4.4540 C.ar  210  TYR210     -0.0201
    102  CD1       12.8150   38.2820    5.7890 C.ar  210  TYR210     -0.0009
    103  CD2       13.1660   39.8890    4.0470 C.ar  210  TYR210     -0.0009
    104  CE1       12.5930   39.3300    6.6950 C.ar  210  TYR210      0.0417
    105  CE2       12.9450   40.9110    4.9290 C.ar  210  TYR210      0.0417
    106  CZ        12.6620   40.6300    6.2440 C.ar  210  TYR210      0.1957
    107  OH        12.4370   41.6820    7.1000 O.3   210  TYR210     -0.2866
@<TRIPOS>BOND
     1    99    98    2
     2    98    97    1
     3    33    31    1
     4   100    97    1
     5   100   101    1
     6    20    21    1
     7    97    96    1
     8    30    31    1
     9    30    27    1
    10   103   101   ar
    11   103   105   ar
    12    31    32    1
    13   101   102   ar
    14     4     3    2
    15    21    22    1
    16    21    24    1
    17    26    27    1
    18    26    22   am
    19     1     2    1
    20    29    28    2
    21   105   106   ar
    22    27    28    1
    23     3     2    1
    24    22    23    2
    25    24    25    1
    26    28    34   am
    27     2     5    1
    28   102   104   ar
    29    44    43    2
    30   106   104   ar
    31   106   107    1
    32     5     6    1
    33    13    12    2
    34    43    42    1
    35    34    35    1
    36     6     7    1
    37    36    35    1
    38    36    37    2
    39    35    38    1
    40    17    19   ar
    41    17    15   ar
    42    45    42    1
    43    45    46    1
    44    12    11    1
    45    11    14    1
    46    11    10    1
    47    42    41    1
    48    19    18   ar
    49     8     7   ar
    50     7     9   ar
    51    14    15    1
    52    15    16   ar
    53    47    46    1
    54    47    48    1
    55    50    49    1
    56    38    39    1
    57    38    40    1
    58    18    16   ar
    59    48    49    2
    60    49    51    1
    61    95    93   ar
    62    94    93   ar
    63    93    92    1
    64    92    89    1
    65    87    86    1
    66    68    67    1
    67    67    64    1
    68    85    86   ar
    69    85    83   ar
    70    91    90    2
    71    90    89    1
    72    89    88    1
    73    86    84   ar
    74    63    64    1
    75    63    61   am
    76    64    65    1
    77    83    81   ar
    78    60    61    1
    79    60    59    1
    80    88    78   am
    81    84    82   ar
    82    61    62    2
    83    81    82   ar
    84    81    80    1
    85    65    69   am
    86    65    66    2
    87    69    70    1
    88    78    79    2
    89    78    77    1
    90    74    73    1
    91    57    56    1
    92    80    77    1
    93    56    58    1
    94    56    53    1
    95    77    76    1
    96    70    73    1
    97    70    71    1
    98    73    75    1
    99    55    54    2
   100    54    53    1
   101    53    52    1
   102    71    72    2
