@<TRIPOS>MOLECULE
tmp/3oesA00.pdb
 180 176 0 0 0
SMALL
GASTEIGER

@<TRIPOS>ATOM
      1  N        -14.1520   22.3220    5.7560 N.3    11  ARG11      -0.1231
      2  CA       -15.2850   23.0840    6.2040 C.3    11  ARG11       0.1694
      3  C        -15.1830   24.5670    5.8210 C.2    11  ARG11       0.2592
      4  O        -14.0940   25.1070    5.6800 O.2    11  ARG11      -0.2718
      5  CB       -15.5730   22.8900    7.6990 C.3    11  ARG11       0.0321
      6  CG       -14.4260   22.5550    8.5410 C.3    11  ARG11       0.0489
      7  CD       -14.7960   22.6030   10.0700 C.3    11  ARG11       0.2205
      8  NE       -13.6080   23.0430   10.7990 N.pl3  11  ARG11      -0.0865
      9  CZ       -12.4940   22.3230   10.8970 C.cat  11  ARG11       0.5346
     10  NH1      -12.4110   21.1010   10.3500 N.pl3  11  ARG11       0.1354
     11  NH2      -11.4590   22.8160   11.5560 N.pl3  11  ARG11       0.1354
     12  N        -16.3440   25.1780    5.6100 N.am   12  CYS12      -0.1956
     13  CA       -16.4780   26.6060    5.3350 C.3    12  CYS12       0.1843
     14  C        -16.0190   27.0790    3.9370 C.2    12  CYS12       0.2625
     15  O        -15.9520   28.3090    3.6750 O.2    12  CYS12      -0.2714
     16  CB       -15.7680   27.3980    6.4250 C.3    12  CYS12       0.0997
     17  SG       -16.3950   26.9870    8.0860 S.3    12  CYS12      -0.0797
     18  N        -15.7400   26.1300    3.0420 N.am   13  VAL13      -0.1963
     19  CA       -15.3570   26.4550    1.6340 C.3    13  VAL13       0.1727
     20  C        -16.5480   26.8150    0.7310 C.2    13  VAL13       0.2617
     21  O        -16.3590   27.3680   -0.3580 O.2    13  VAL13      -0.2715
     22  CB       -14.4980   25.3360    0.9780 C.3    13  VAL13       0.0290
     23  CG1      -13.2410   25.0840    1.8000 C.3    13  VAL13       0.0023
     24  CG2      -15.2960   24.0300    0.8110 C.3    13  VAL13       0.0023
     25  N        -17.7700   26.5350    1.1840 N.am   14  GLY14      -0.1940
     26  CA       -18.9750   26.9230    0.4560 C.3    14  GLY14       0.2014
     27  C        -19.7090   25.7800   -0.2310 C.2    14  GLY14       0.2639
     28  O        -20.4350   26.0080   -1.1920 O.2    14  GLY14      -0.2714
     29  N        -19.5430   24.5550    0.2730 N.am   15  LYS15      -0.1963
     30  CA       -20.1930   23.3820   -0.3210 C.3    15  LYS15       0.1728
     31  C        -21.7080   23.5770   -0.3300 C.2    15  LYS15       0.2617
     32  O        -22.3350   23.5850   -1.3990 O.2    15  LYS15      -0.2715
     33  CB       -19.8440   22.1070    0.4430 C.3    15  LYS15       0.0311
     34  CG       -18.3220   21.7780    0.4740 C.3    15  LYS15       0.0038
     35  CD       -17.9850   20.5700    1.3960 C.3    15  LYS15       0.0206
     36  CE       -18.2510   20.8410    2.9400 C.3    15  LYS15       0.1093
     37  NZ       -17.1730   21.5970    3.6300 N.3    15  LYS15      -0.1314
     38  N        -22.2810   23.7570    0.8580 N.am   16  THR16      -0.1937
     39  CA       -23.7130   23.9810    1.0040 C.3    16  THR16       0.2028
     40  C        -24.1870   25.1880    0.2130 C.2    16  THR16       0.2642
     41  O        -25.2600   25.1260   -0.4240 O.2    16  THR16      -0.2714
     42  CB       -24.1460   24.1940    2.5050 C.3    16  THR16       0.1808
     43  OG1      -23.7790   23.0380    3.2850 O.3    16  THR16      -0.2208
     44  CG2      -25.6630   24.4230    2.5900 C.3    16  THR16       0.0379
     45  N        -23.4330   26.2850    0.2520 N.am   17  SER17      -0.1949
     46  CA       -23.8390   27.4710   -0.5310 C.3    17  SER17       0.1924
     47  C        -23.8250   27.1840   -2.0390 C.2    17  SER17       0.2314
     48  O        -24.7100   27.6130   -2.7660 O.2    17  SER17      -0.2863
     49  CB       -22.9790   28.6840   -0.2130 C.3    17  SER17       0.2116
     50  OG       -22.9540   28.9020    1.1670 O.3    17  SER17      -0.2180
     51  N        -28.5870   32.7550   -2.2240 N.3    27  PHE27      -0.1227
     52  CA       -27.4000   32.7260   -1.4010 C.3    27  PHE27       0.1736
     53  C        -27.6570   33.3830   -0.0110 C.2    27  PHE27       0.2596
     54  O        -28.1890   34.4870    0.0800 O.2    27  PHE27      -0.2718
     55  CB       -26.2590   33.4190   -2.1390 C.3    27  PHE27       0.0547
     56  CG       -25.0520   33.6570   -1.2960 C.ar   27  PHE27      -0.0202
     57  CD1      -24.1050   32.6620   -1.1210 C.ar   27  PHE27      -0.0042
     58  CD2      -24.8520   34.8690   -0.6940 C.ar   27  PHE27      -0.0042
     59  CE1      -22.9830   32.8860   -0.3590 C.ar   27  PHE27      -0.0003
     60  CE2      -23.7320   35.0990    0.0850 C.ar   27  PHE27      -0.0003
     61  CZ       -22.8010   34.1010    0.2580 C.ar   27  PHE27      -0.0000
     62  N        -27.2430   32.6820    1.0470 N.am   28  SER28      -0.1938
     63  CA       -27.3510   33.1500    2.4460 C.3    28  SER28       0.2055
     64  C        -25.9730   33.5480    2.9810 C.2    28  SER28       0.2643
     65  O        -24.9730   32.7950    2.8020 O.2    28  SER28      -0.2714
     66  CB       -27.9630   32.0360    3.3200 C.3    28  SER28       0.2130
     67  OG       -27.9020   32.2990    4.7180 O.3    28  SER28      -0.2179
     68  N        -25.9150   34.7150    3.6400 N.am   29  GLU29      -0.1963
     69  CA       -24.6990   35.1240    4.3620 C.3    29  GLU29       0.1733
     70  C        -24.5370   34.4210    5.7350 C.2    29  GLU29       0.2617
     71  O        -23.5080   34.6390    6.4400 O.2    29  GLU29      -0.2715
     72  CB       -24.6530   36.6340    4.5910 C.3    29  GLU29       0.0429
     73  CG       -24.8890   37.4960    3.3600 C.3    29  GLU29       0.1163
     74  CD       -26.2830   38.1310    3.3690 C.2    29  GLU29       0.3649
     75  OE1      -26.3590   39.3900    3.2810 O.co2  29  GLU29      -0.2457
     76  OE2      -27.2890   37.3680    3.4850 O.co2  29  GLU29      -0.2457
     77  N        -25.5370   33.6160    6.1200 N.am   30  GLY30      -0.1940
     78  CA       -25.4880   32.8300    7.3500 C.3    30  GLY30       0.2014
     79  C        -24.5540   31.6410    7.2410 C.2    30  GLY30       0.2639
     80  O        -23.9040   31.4360    6.2170 O.2    30  GLY30      -0.2714
     81  N        -24.4710   30.8680    8.3070 N.am   31  TYR31      -0.1959
     82  CA       -23.6150   29.6970    8.3620 C.3    31  TYR31       0.1771
     83  C        -24.2700   28.6400    9.2380 C.2    31  TYR31       0.2620
     84  O        -24.6760   28.9220   10.3660 O.2    31  TYR31      -0.2715
     85  CB       -22.2240   30.0310    8.9280 C.3    31  TYR31       0.0574
     86  CG       -21.3650   28.7920    9.1430 C.ar   31  TYR31      -0.0198
     87  CD1      -21.2150   27.8710    8.1360 C.ar   31  TYR31      -0.0009
     88  CD2      -20.7210   28.5280   10.3680 C.ar   31  TYR31      -0.0009
     89  CE1      -20.4590   26.7230    8.2970 C.ar   31  TYR31       0.0417
     90  CE2      -19.9440   27.3510   10.5440 C.ar   31  TYR31       0.0417
     91  CZ       -19.8250   26.4610    9.4800 C.ar   31  TYR31       0.1957
     92  OH       -19.0890   25.2940    9.5490 O.3    31  TYR31      -0.2866
     93  N        -24.3500   27.4250    8.7160 N.am   32  ASP32      -0.1958
     94  CA       -24.8440   26.3010    9.4810 C.3    32  ASP32       0.1825
     95  C        -24.0110   25.0830    9.1260 C.2    32  ASP32       0.2464
     96  O        -24.0620   24.6150    7.9830 O.2    32  ASP32      -0.2730
     97  CB       -26.3230   26.0740    9.1720 C.3    32  ASP32       0.1450
     98  CG       -26.9940   25.1350   10.1710 C.2    32  ASP32       0.3671
     99  OD1      -26.5030   25.0050   11.3240 O.co2  32  ASP32      -0.2456
    100  OD2      -28.0300   24.5160    9.8020 O.co2  32  ASP32      -0.2456
    101  N        -23.2060   24.5820   10.0810 N.am   33  PRO33      -0.2715
    102  CA       -22.3530   23.4250    9.7880 C.3    33  PRO33       0.1536
    103  C        -23.1780   22.2090    9.4050 C.2    33  PRO33       0.2599
    104  O        -24.1250   21.8540   10.1010 O.2    33  PRO33      -0.2715
    105  CB       -21.5970   23.1680   11.1030 C.3    33  PRO33       0.0310
    106  CG       -22.4040   23.7890   12.1310 C.3    33  PRO33       0.0237
    107  CD       -23.1230   24.9660   11.4920 C.3    33  PRO33       0.0939
    108  N        -22.8170   21.6010    8.2900 N.am   34  THR34      -0.1951
    109  CA       -23.6060   20.5610    7.6920 C.3    34  THR34       0.1897
    110  C        -23.2840   19.2610    8.4040 C.2    34  THR34       0.2313
    111  O        -22.1230   19.0120    8.7600 O.2    34  THR34      -0.2863
    112  CB       -23.3010   20.4610    6.1780 C.3    34  THR34       0.1794
    113  OG1      -23.6490   21.7100    5.5660 O.3    34  THR34      -0.2208
    114  CG2      -24.0610   19.3010    5.5020 C.3    34  THR34       0.0378
    115  N        -21.9090   17.0980    2.0050 N.3    53  THR53      -0.1218
    116  CA       -21.2910   16.4820    3.1870 C.3    53  THR53       0.1862
    117  C        -20.7590   17.4850    4.2220 C.2    53  THR53       0.2287
    118  O        -20.5470   18.6880    3.9230 O.2    53  THR53      -0.2866
    119  CB       -20.1410   15.5290    2.7870 C.3    53  THR53       0.1770
    120  OG1      -19.0880   16.2700    2.1660 O.3    53  THR53      -0.2211
    121  CG2      -20.6400   14.4010    1.8240 C.3    53  THR53       0.0375
    122  N        -18.0550   19.2310    6.3880 N.3    55  GLY55      -0.1225
    123  CA       -16.6810   19.6010    6.0970 C.3    55  GLY55       0.1811
    124  C        -15.7080   18.6190    6.7310 C.2    55  GLY55       0.2280
    125  O        -15.9570   18.0760    7.8130 O.2    55  GLY55      -0.2866
    126  N        -13.7070   27.8140   -4.8700 N.3   106  ASN106     -0.1225
    127  CA       -14.8890   28.6420   -4.6730 C.3   106  ASN106      0.1785
    128  C        -14.5390   29.9970   -4.0730 C.2   106  ASN106      0.2597
    129  O        -13.4140   30.2280   -3.7440 O.2   106  ASN106     -0.2718
    130  CB       -15.8810   27.9200   -3.7850 C.3   106  ASN106      0.1169
    131  CG       -17.2150   28.6270   -3.7050 C.2   106  ASN106      0.2627
    132  OD1      -17.7570   29.1140   -4.7180 O.2   106  ASN106     -0.2716
    133  ND2      -17.7570   28.7080   -2.4910 N.am  106  ASN106     -0.0877
    134  N        -15.5260   30.8770   -3.9560 N.am  107  LYS107     -0.1980
    135  CA       -15.3390   32.2140   -3.4010 C.3   107  LYS107      0.1596
    136  C        -14.3700   33.0550   -4.2220 C.2   107  LYS107      0.2287
    137  O        -13.7020   33.9460   -3.6860 O.2   107  LYS107     -0.2864
    138  CB       -14.8660   32.1960   -1.9250 C.3   107  LYS107      0.0298
    139  CG       -15.5470   31.1980   -0.9990 C.3   107  LYS107      0.0038
    140  CD       -15.2890   31.5840    0.5110 C.3   107  LYS107      0.0206
    141  CE       -15.8300   30.5460    1.4730 C.3   107  LYS107      0.1093
    142  NZ       -15.7040   30.9570    2.8890 N.3   107  LYS107     -0.1314
    143  N        -15.2280   35.4110   -5.9340 N.3   109  ASP109     -0.1225
    144  CA       -15.6820   36.8210   -5.8170 C.3   109  ASP109      0.1805
    145  C        -14.8170   37.6520   -4.8490 C.2   109  ASP109      0.2597
    146  O        -14.6760   38.8540   -5.0210 O.2   109  ASP109     -0.2718
    147  CB       -17.1600   36.9090   -5.4080 C.3   109  ASP109      0.1424
    148  CG       -17.4540   36.2100   -4.0880 C.2   109  ASP109      0.3668
    149  OD1      -17.7980   36.9130   -3.1250 O.co2 109  ASP109     -0.2456
    150  OD2      -17.3440   34.9720   -4.0210 O.co2 109  ASP109     -0.2456
    151  N        -14.2100   36.9710   -3.8730 N.am  110  LEU110     -0.1979
    152  CA       -13.4190   37.5920   -2.8160 C.3   110  LEU110      0.1596
    153  C        -11.9700   37.7300   -3.2420 C.2   110  LEU110      0.2287
    154  O        -11.0530   37.1970   -2.6060 O.2   110  LEU110     -0.2864
    155  CB       -13.5180   36.7700   -1.5300 C.3   110  LEU110      0.0297
    156  CG       -14.8980   36.6290   -0.9090 C.3   110  LEU110      0.0022
    157  CD1      -14.7610   35.7510    0.3650 C.3   110  LEU110      0.0001
    158  CD2      -15.4780   37.9970   -0.6040 C.3   110  LEU110      0.0001
    159  N        -18.3730   31.1120   -7.5620 N.3   136  SER136     -0.1202
    160  CA       -18.8420   31.8620   -6.4450 C.3   136  SER136      0.2020
    161  C        -20.2730   31.4530   -6.2490 C.2   136  SER136      0.2619
    162  O        -21.0590   31.5120   -7.2070 O.2   136  SER136     -0.2717
    163  CB       -18.8120   33.3820   -6.7170 C.3   136  SER136      0.2103
    164  OG       -19.4770   34.0800   -5.6570 O.3   136  SER136     -0.2182
    165  N        -20.6230   31.0730   -5.0190 N.am  137  ALA137     -0.1965
    166  CA       -21.9900   30.6990   -4.6690 C.3   137  ALA137      0.1728
    167  C        -22.9300   31.9030   -4.6500 C.2   137  ALA137      0.2616
    168  O        -24.1310   31.7250   -4.5650 O.2   137  ALA137     -0.2715
    169  CB       -22.0140   29.9560   -3.3100 C.3   137  ALA137      0.0334
    170  N        -22.3610   33.1110   -4.7350 N.am  138  ARG138     -0.1977
    171  CA       -23.1080   34.3450   -4.8810 C.3   138  ARG138      0.1597
    172  C        -23.5810   34.6290   -6.3080 C.2   138  ARG138      0.2287
    173  O        -24.3420   35.5540   -6.4930 O.2   138  ARG138     -0.2864
    174  CB       -22.2460   35.5440   -4.4330 C.3   138  ARG138      0.0334
    175  CG       -21.8750   35.5330   -2.9690 C.3   138  ARG138      0.0492
    176  CD       -20.9180   36.6310   -2.6080 C.3   138  ARG138      0.2205
    177  NE       -21.6050   37.9090   -2.4500 N.pl3 138  ARG138     -0.0865
    178  CZ       -21.4240   38.9970   -3.2200 C.cat 138  ARG138      0.5346
    179  NH1      -22.1400   40.0960   -2.9590 N.pl3 138  ARG138      0.1354
    180  NH2      -20.5420   39.0180   -4.2450 N.pl3 138  ARG138      0.1354
@<TRIPOS>BOND
     1   159   160    1
     2   162   161    2
     3   163   160    1
     4   163   164    1
     5   173   172    2
     6   160   161    1
     7   172   171    1
     8   161   165   am
     9   143   144    1
    10   144   147    1
    11   144   145    1
    12   147   148    1
    13   146   145    2
    14   165   166    1
    15   171   170    1
    16   171   174    1
    17   126   127    1
    18   145   151   am
    19   170   167   am
    20   132   131    2
    21   127   128    1
    22   127   130    1
    23   166   167    1
    24   166   169    1
    25   167   168    2
    26   174   175    1
    27   180   178    1
    28   136   137    2
    29   136   135    1
    30   148   150   ar
    31   148   149   ar
    32   128   134   am
    33   128   129    2
    34   134   135    1
    35   151   152    1
    36   130   131    1
    37   131   133   am
    38   135   138    1
    39   153   152    1
    40   153   154    2
    41   178   179    1
    42   178   177    2
    43   175   176    1
    44   152   155    1
    45    48    47    2
    46   176   177    1
    47    51    52    1
    48    55    52    1
    49    55    56    1
    50    47    46    1
    51   138   139    1
    52   155   156    1
    53    52    53    1
    54    32    31    2
    55    56    57   ar
    56    56    58   ar
    57    28    27    2
    58    57    59   ar
    59   139   140    1
    60   156   158    1
    61   156   157    1
    62    58    60   ar
    63    46    49    1
    64    46    45    1
    65    41    40    2
    66    59    61   ar
    67    21    20    2
    68    31    30    1
    69    31    38   am
    70    30    29    1
    71    30    33    1
    72    27    29   am
    73    27    26    1
    74    49    50    1
    75    53    54    2
    76    53    62   am
    77    60    61   ar
    78    40    45   am
    79    40    39    1
    80    33    34    1
    81    26    25    1
    82    34    35    1
    83   140   141    1
    84    20    25   am
    85    20    19    1
    86    24    22    1
    87    38    39    1
    88    22    19    1
    89    22    23    1
    90    39    42    1
    91    62    63    1
    92    35    36    1
    93   141   142    1
    94    19    18    1
    95   121   119    1
    96   115   116    1
    97   120   119    1
    98    63    64    1
    99    63    66    1
   100    42    44    1
   101    42    43    1
   102   119   116    1
   103    65    64    2
   104    36    37    1
   105    64    68   am
   106    18    14   am
   107   116   117    1
   108    75    74   ar
   109    66    67    1
   110    73    74    1
   111    73    72    1
   112    74    76   ar
   113    68    69    1
   114    15    14    2
   115   118   117    2
   116    14    13    1
   117    69    72    1
   118    69    70    1
   119    13    12    1
   120    13    16    1
   121   114   112    1
   122   113   112    1
   123    12     3   am
   124     4     3    2
   125    70    77   am
   126    70    71    2
   127     1     2    1
   128     3     2    1
   129   123   122    1
   130   123   124    1
   131    77    78    1
   132   112   109    1
   133     2     5    1
   134    80    79    2
   135    16    17    1
   136   124   125    2
   137    79    78    1
   138    79    81   am
   139   109   108    1
   140   109   110    1
   141     5     6    1
   142    96    95    2
   143    87    89   ar
   144    87    86   ar
   145   108   103   am
   146    89    91   ar
   147    81    82    1
   148    82    85    1
   149    82    83    1
   150   110   111    2
   151     6     7    1
   152    93    83   am
   153    93    94    1
   154    85    86    1
   155    95    94    1
   156    95   101   am
   157    86    88   ar
   158    97    94    1
   159    97    98    1
   160    83    84    2
   161   103   102    1
   162   103   104    2
   163    91    92    1
   164    91    90   ar
   165   102   101    1
   166   102   105    1
   167   100    98   ar
   168     7     8    1
   169   101   107    1
   170    98    99   ar
   171    10     9    1
   172    88    90   ar
   173     8     9    2
   174     9    11    1
   175   105   106    1
   176   107   106    1
