@<TRIPOS>MOLECULE
tmp/3oeuK00.pdb
 129 123 0 0 0
SMALL
GASTEIGER

@<TRIPOS>ATOM
      1  N         11.7470 -140.2980    9.4230 N.3     1  THR1       -0.1218
      2  CA        11.4590 -139.1380    8.5270 C.3     1  THR1        0.1862
      3  C         12.0570 -139.2970    7.1310 C.2     1  THR1        0.2287
      4  O         13.1860 -139.7820    6.9680 O.2     1  THR1       -0.2866
      5  CB        11.9890 -137.8180    9.1360 C.3     1  THR1        0.1770
      6  OG1       11.2760 -137.5310   10.3450 O.3     1  THR1       -0.2211
      7  CG2       11.8250 -136.6550    8.1710 C.3     1  THR1        0.0375
      8  N          5.3440 -138.7120    9.6800 N.3    19  ARG19      -0.1231
      9  CA         5.4570 -139.6050   10.8320 C.3    19  ARG19       0.1694
     10  C          6.3980 -139.0620   11.9050 C.2    19  ARG19       0.2592
     11  O          7.5080 -138.6250   11.6160 O.2    19  ARG19      -0.2718
     12  CB         5.8760 -141.0170   10.4060 C.3    19  ARG19       0.0321
     13  CG         6.1860 -141.9440   11.5780 C.3    19  ARG19       0.0489
     14  CD         6.3390 -143.3770   11.1460 C.3    19  ARG19       0.2205
     15  NE         5.0560 -143.9380   10.7310 N.pl3  19  ARG19      -0.0865
     16  CZ         4.8250 -145.2310   10.5490 C.cat  19  ARG19       0.5346
     17  NH1        5.7920 -146.1180   10.7480 N.pl3  19  ARG19       0.1354
     18  NH2        3.6200 -145.6330   10.1680 N.pl3  19  ARG19       0.1354
     19  N          5.9230 -139.0800   13.1420 N.am   20  ALA20      -0.1966
     20  CA         6.7520 -138.7700   14.2900 C.3    20  ALA20       0.1728
     21  C          6.9210 -140.0440   15.1180 C.2    20  ALA20       0.2617
     22  O          5.9440 -140.7620   15.3600 O.2    20  ALA20      -0.2715
     23  CB         6.1100 -137.6630   15.1220 C.3    20  ALA20       0.0334
     24  N          8.1510 -140.3230   15.5440 N.am   21  THR21      -0.1937
     25  CA         8.4320 -141.4820   16.4060 C.3    21  THR21       0.2028
     26  C          9.2270 -141.1380   17.6730 C.2    21  THR21       0.2642
     27  O          9.9540 -140.1350   17.7240 O.2    21  THR21      -0.2714
     28  CB         9.2000 -142.6060   15.6490 C.3    21  THR21       0.1808
     29  OG1       10.3990 -142.0760   15.0670 O.3    21  THR21      -0.2208
     30  CG2        8.3380 -143.2410   14.5610 C.3    21  THR21       0.0379
     31  N          9.0740 -141.9800   18.6920 N.am   22  ALA22      -0.1963
     32  CA         9.9220 -141.9510   19.8870 C.3    22  ALA22       0.1728
     33  C         10.3260 -143.3970   20.1720 C.2    22  ALA22       0.2616
     34  O          9.5330 -144.1860   20.7140 O.2    22  ALA22      -0.2715
     35  CB         9.1800 -141.3510   21.0640 C.3    22  ALA22       0.0334
     36  N         11.5480 -143.7530   19.7910 N.am   23  GLY23      -0.1955
     37  CA        11.9350 -145.1570   19.7750 C.3    23  GLY23       0.1869
     38  C         11.1470 -145.8720   18.6830 C.2    23  GLY23       0.2309
     39  O         11.1690 -145.4510   17.5280 O.2    23  GLY23      -0.2863
     40  N          4.4380 -141.8190   17.4140 N.3    27  ALA27      -0.1245
     41  CA         3.9190 -140.7100   18.2210 C.3    27  ALA27       0.1562
     42  C          2.7490 -140.0070   17.5320 C.2    27  ALA27       0.2260
     43  O          1.7510 -139.6660   18.1770 O.2    27  ALA27      -0.2867
     44  CB         5.0280 -139.7140   18.5220 C.3    27  ALA27       0.0290
     45  N          1.9180 -135.0690   11.2950 N.3    31  VAL31      -0.1231
     46  CA         2.7860 -133.9710   11.7040 C.3    31  VAL31       0.1692
     47  C          3.2150 -133.0980   10.5050 C.2    31  VAL31       0.2592
     48  O          3.3570 -133.6010    9.3870 O.2    31  VAL31      -0.2718
     49  CB         3.9870 -134.5450   12.5180 C.3    31  VAL31       0.0266
     50  CG1        5.2710 -133.8870   12.1530 C.3    31  VAL31       0.0020
     51  CG2        3.7160 -134.4490   14.0160 C.3    31  VAL31       0.0020
     52  N          3.4100 -131.7970   10.7410 N.am   32  LYS32      -0.1966
     53  CA         3.8190 -130.8600    9.6770 C.3    32  LYS32       0.1728
     54  C          5.3310 -130.6590    9.5720 C.2    32  LYS32       0.2616
     55  O          5.9230 -129.9470   10.3700 O.2    32  LYS32      -0.2715
     56  CB         3.1310 -129.5040    9.8590 C.3    32  LYS32       0.0311
     57  CG         1.9730 -129.2510    8.9090 C.3    32  LYS32       0.0038
     58  CD         0.7500 -130.1380    9.1990 C.3    32  LYS32       0.0206
     59  CE        -0.3370 -129.9430    8.1260 C.3    32  LYS32       0.1093
     60  NZ        -1.4050 -130.9820    8.2130 N.3    32  LYS32      -0.1314
     61  N          5.9500 -131.2660    8.5710 N.am   33  LYS33      -0.1977
     62  CA         7.4030 -131.2280    8.4590 C.3    33  LYS33       0.1596
     63  C          7.8990 -130.1390    7.5130 C.2    33  LYS33       0.2287
     64  O          9.0950 -130.0280    7.2440 O.2    33  LYS33      -0.2864
     65  CB         7.9520 -132.6050    8.0740 C.3    33  LYS33       0.0298
     66  CG         7.7430 -133.6590    9.1630 C.3    33  LYS33       0.0038
     67  CD         8.3750 -134.9780    8.7720 C.3    33  LYS33       0.0206
     68  CE         8.2220 -135.9840    9.8770 C.3    33  LYS33       0.1093
     69  NZ         8.5920 -137.3390    9.4280 N.3    33  LYS33      -0.1314
     70  N         11.8890 -130.3390    7.7120 N.3    45  MET45      -0.1230
     71  CA        12.3710 -130.7920    9.0120 C.3    45  MET45       0.1702
     72  C         12.7020 -132.2910    9.0700 C.2    45  MET45       0.2592
     73  O         11.9230 -133.1290    8.6110 O.2    45  MET45      -0.2718
     74  CB        11.3500 -130.4360   10.0970 C.3    45  MET45       0.0401
     75  CG        11.0970 -128.9450   10.2690 C.3    45  MET45       0.0596
     76  SD         9.7380 -128.6610   11.4190 S.3    45  MET45      -0.1393
     77  CE         9.4650 -126.9080   11.1880 C.3    45  MET45       0.0692
     78  N         13.8630 -132.6120    9.6390 N.am   46  ALA46      -0.1966
     79  CA        14.2490 -133.9910    9.9340 C.3    46  ALA46       0.1728
     80  C         15.1780 -134.0240   11.1460 C.2    46  ALA46       0.2617
     81  O         16.0870 -133.1870   11.2720 O.2    46  ALA46      -0.2715
     82  CB        14.9200 -134.6280    8.7420 C.3    46  ALA46       0.0334
     83  N         14.9480 -134.9980   12.0250 N.am   47  GLY47      -0.1940
     84  CA        15.7320 -135.1710   13.2410 C.3    47  GLY47       0.2014
     85  C         14.8970 -134.8790   14.4670 C.2    47  GLY47       0.2639
     86  O         13.7710 -135.3670   14.5930 O.2    47  GLY47      -0.2714
     87  N         15.4530 -134.0790   15.3740 N.am   48  GLY48      -0.1939
     88  CA        14.7470 -133.6540   16.5760 C.3    48  GLY48       0.2014
     89  C         13.6060 -132.7200   16.2220 C.2    48  GLY48       0.2639
     90  O         13.8180 -131.6660   15.6140 O.2    48  GLY48      -0.2714
     91  N         12.3920 -133.1260   16.5900 N.am   49  ALA49      -0.1963
     92  CA        11.1940 -132.3620   16.2630 C.3    49  ALA49       0.1728
     93  C         11.2460 -130.9760   16.8820 C.2    49  ALA49       0.2616
     94  O         11.0530 -129.9840   16.1890 O.2    49  ALA49      -0.2715
     95  CB         9.9470 -133.1050   16.7060 C.3    49  ALA49       0.0334
     96  N         11.5190 -130.9100   18.1800 N.am   50  ALA50      -0.1963
     97  CA        11.6420 -129.6340   18.8810 C.3    50  ALA50       0.1728
     98  C         12.7330 -128.7500   18.2560 C.2    50  ALA50       0.2616
     99  O         12.4600 -127.6290   17.8590 O.2    50  ALA50      -0.2715
    100  CB        11.9120 -129.8710   20.3570 C.3    50  ALA50       0.0334
    101  N         13.9540 -129.2720   18.1500 N.am   51  ASP51      -0.1957
    102  CA        15.0680 -128.5390   17.5580 C.3    51  ASP51       0.1840
    103  C         14.6890 -127.9330   16.2220 C.2    51  ASP51       0.2622
    104  O         14.9480 -126.7550   15.9850 O.2    51  ASP51      -0.2715
    105  CB        16.2940 -129.4360   17.3760 C.3    51  ASP51       0.1450
    106  CG        16.9530 -129.8050   18.6830 C.2    51  ASP51       0.3671
    107  OD1       17.7670 -130.7570   18.6750 O.co2  51  ASP51      -0.2456
    108  OD2       16.6690 -129.1530   19.7160 O.co2  51  ASP51      -0.2456
    109  N         14.0730 -128.7380   15.3600 N.am   52  CYS52      -0.1954
    110  CA        13.6440 -128.2870   14.0350 C.3    52  CYS52       0.1843
    111  C         12.5380 -127.2220   14.1100 C.2    52  CYS52       0.2625
    112  O         12.7070 -126.1080   13.6090 O.2    52  CYS52      -0.2714
    113  CB        13.2050 -129.4740   13.1900 C.3    52  CYS52       0.0997
    114  SG        14.5830 -130.4460   12.5730 S.3    52  CYS52      -0.0797
    115  N         11.4300 -127.5680   14.7580 N.am   53  GLN53      -0.1977
    116  CA        10.2950 -126.6710   14.9350 C.3    53  GLN53       0.1601
    117  C         10.7460 -125.3270   15.4790 C.2    53  GLN53       0.2287
    118  O         10.4940 -124.2870   14.8720 O.2    53  GLN53      -0.2864
    119  CB         9.2960 -127.2930   15.9050 C.3    53  GLN53       0.0394
    120  CG         7.8580 -127.1970   15.4810 C.3    53  GLN53       0.0908
    121  CD         6.9920 -128.2000   16.2190 C.2    53  GLN53       0.2608
    122  OE1        6.6900 -128.0320   17.4040 O.2    53  GLN53      -0.2717
    123  NE2        6.5910 -129.2510   15.5220 N.am   53  GLN53      -0.0878
    124  N         19.9790 -131.7890   16.9410 N.3    96  SER96      -0.1217
    125  CA        19.8190 -132.8580   15.9630 C.3    96  SER96       0.1889
    126  C         18.8310 -132.4350   14.8820 C.2    96  SER96       0.2288
    127  O         17.6110 -132.5160   15.0690 O.2    96  SER96      -0.2866
    128  CB        19.3630 -134.1460   16.6540 C.3    96  SER96       0.2089
    129  OG        19.7010 -135.2820   15.8800 O.3    96  SER96      -0.2183
@<TRIPOS>BOND
     1     4     3    2
     2     3     2    1
     3    64    63    2
     4    63    62    1
     5    70    71    1
     6    65    62    1
     7    65    66    1
     8    59    60    1
     9    59    58    1
    10     7     5    1
    11    62    61    1
    12     2     5    1
    13     2     1    1
    14    61    54   am
    15    73    72    2
    16    82    79    1
    17    67    66    1
    18    67    68    1
    19    57    58    1
    20    57    56    1
    21    71    72    1
    22    71    74    1
    23    72    78   am
    24     5     6    1
    25    48    47    2
    26    69    68    1
    27    54    53    1
    28    54    55    2
    29    78    79    1
    30    53    56    1
    31    53    52    1
    32     8     9    1
    33    79    80    1
    34    74    75    1
    35    18    16    1
    36    75    76    1
    37    12     9    1
    38    12    13    1
    39    47    52   am
    40    47    46    1
    41    16    15    2
    42    16    17    1
    43    15    14    1
    44     9    10    1
    45    80    81    2
    46    80    83   am
    47    14    13    1
    48    77    76    1
    49    45    46    1
    50    11    10    2
    51    46    49    1
    52    10    19   am
    53    83    84    1
    54    50    49    1
    55    49    51    1
    56   114   113    1
    57    19    20    1
    58   113   110    1
    59    84    85    1
    60   112   111    2
    61   110   111    1
    62   110   109    1
    63   111   115   am
    64    20    21    1
    65    20    23    1
    66    85    86    2
    67    85    87   am
    68    30    28    1
    69   115   116    1
    70   118   117    2
    71   126   127    2
    72   126   125    1
    73   116   117    1
    74   116   119    1
    75    29    28    1
    76    21    22    2
    77    21    24   am
    78   109   103   am
    79    87    88    1
    80   120   119    1
    81   120   121    1
    82   123   121   am
    83    24    25    1
    84    90    89    2
    85    28    25    1
    86   129   128    1
    87   125   128    1
    88   125   124    1
    89   104   103    2
    90    94    93    2
    91   121   122    2
    92    89    88    1
    93    89    91   am
    94   103   102    1
    95    92    91    1
    96    92    95    1
    97    92    93    1
    98    25    26    1
    99    93    96   am
   100   105   102    1
   101   105   106    1
   102    40    41    1
   103    39    38    2
   104    42    43    2
   105    42    41    1
   106   102   101    1
   107    26    27    2
   108    26    31   am
   109    99    98    2
   110   101    98   am
   111    96    97    1
   112    41    44    1
   113    98    97    1
   114   107   106   ar
   115    38    37    1
   116   106   108   ar
   117    31    32    1
   118    97   100    1
   119    37    36    1
   120    36    33   am
   121    32    33    1
   122    32    35    1
   123    33    34    2
