@<TRIPOS>MOLECULE
tmp/3oeyA01.pdb
 88 80 0 0 0
SMALL
GASTEIGER

@<TRIPOS>ATOM
      1  N          3.4780  -31.1470   16.5320 N.3    94  GLY94      -0.1225
      2  CA         4.7630  -30.5820   16.1730 C.3    94  GLY94       0.1811
      3  C          4.5650  -29.4590   15.1880 C.2    94  GLY94       0.2280
      4  O          3.6460  -29.4930   14.3750 O.2    94  GLY94      -0.2866
      5  N         13.2520  -24.0140    8.9600 N.3   101  MET101     -0.1245
      6  CA        13.4710  -25.2560    8.2330 C.3   101  MET101      0.1570
      7  C         13.8180  -25.0100    6.7690 C.2   101  MET101      0.2261
      8  O         13.7750  -23.8800    6.2850 O.2   101  MET101     -0.2867
      9  CB        12.2320  -26.1440    8.3010 C.3   101  MET101      0.0387
     10  CG        11.8250  -26.5550    9.7020 C.3   101  MET101      0.0595
     11  SD        10.5990  -27.8630    9.6390 S.3   101  MET101     -0.1393
     12  CE        11.5840  -29.2290    9.0370 C.3   101  MET101      0.0692
     13  N         11.4700  -37.4990   16.3540 N.3   147  PHE147     -0.1241
     14  CA        12.2650  -37.8250   15.1550 C.3   147  PHE147      0.1605
     15  C         13.7260  -37.7140   15.5740 C.2   147  PHE147      0.2264
     16  O         14.1840  -36.6300   15.9500 O.2   147  PHE147     -0.2867
     17  CB        11.9510  -36.8760   13.9950 C.3   147  PHE147      0.0534
     18  CG        12.5960  -37.2770   12.6760 C.ar  147  PHE147     -0.0203
     19  CD1       12.2710  -38.4820   12.0590 C.ar  147  PHE147     -0.0042
     20  CD2       13.5230  -36.4460   12.0620 C.ar  147  PHE147     -0.0042
     21  CE1       12.8620  -38.8600   10.8410 C.ar  147  PHE147     -0.0003
     22  CE2       14.1160  -36.8110   10.8460 C.ar  147  PHE147     -0.0003
     23  CZ        13.7820  -38.0150   10.2390 C.ar  147  PHE147     -0.0000
     24  N         15.9730  -30.2390    8.2270 N.3   156  TYR156     -0.1241
     25  CA        15.1800  -30.3020    9.4570 C.3   156  TYR156      0.1605
     26  C         15.5510  -29.1790   10.4250 C.2   156  TYR156      0.2264
     27  O         14.7070  -28.7130   11.1900 O.2   156  TYR156     -0.2867
     28  CB        15.3130  -31.6730   10.1370 C.3   156  TYR156      0.0534
     29  CG        14.5780  -32.7760    9.4010 C.ar  156  TYR156     -0.0201
     30  CD1       15.2220  -33.5570    8.4350 C.ar  156  TYR156     -0.0009
     31  CD2       13.2380  -33.0290    9.6590 C.ar  156  TYR156     -0.0009
     32  CE1       14.5370  -34.5710    7.7560 C.ar  156  TYR156      0.0417
     33  CE2       12.5500  -34.0290    8.9920 C.ar  156  TYR156      0.0417
     34  CZ        13.1930  -34.7910    8.0450 C.ar  156  TYR156      0.1957
     35  OH        12.4900  -35.7770    7.3990 O.3   156  TYR156     -0.2866
     36  N         13.7880  -27.6980   13.7030 N.3   159  MET159     -0.1245
     37  CA        12.8970  -28.7630   14.1650 C.3   159  MET159      0.1570
     38  C         13.6890  -29.8960   14.8340 C.2   159  MET159      0.2261
     39  O         13.2280  -30.5110   15.7900 O.2   159  MET159     -0.2867
     40  CB        12.0490  -29.3280   13.0270 C.3   159  MET159      0.0387
     41  CG        11.0630  -30.3750   13.4960 C.3   159  MET159      0.0595
     42  SD         9.8700  -29.6820   14.6680 S.3   159  MET159     -0.1393
     43  CE         9.2150  -31.1600   15.4000 C.3   159  MET159      0.0692
     44  N         13.2580  -31.2710   18.6120 N.3   163  LYS163     -0.1245
     45  CA        13.1870  -32.6730   19.0390 C.3   163  LYS163      0.1561
     46  C         14.2180  -33.0040   20.1190 C.2   163  LYS163      0.2260
     47  O         13.9450  -33.8070   21.0200 O.2   163  LYS163     -0.2867
     48  CB        13.3480  -33.6460   17.8780 C.3   163  LYS163      0.0271
     49  CG        12.1940  -33.6350   16.8440 C.3   163  LYS163      0.0035
     50  CD        10.8450  -33.9080   17.5260 C.3   163  LYS163      0.0206
     51  CE         9.7300  -34.1370   16.4740 C.3   163  LYS163      0.1093
     52  NZ         8.4080  -34.3040   17.1510 N.3   163  LYS163     -0.1314
     53  N          7.6560  -40.2330    7.5650 N.3   192  ILE192     -0.1245
     54  CA         6.3420  -40.6780    7.1380 C.3   192  ILE192      0.1561
     55  C          5.7780  -39.6360    6.1860 C.2   192  ILE192      0.2260
     56  O          5.8370  -38.4350    6.4700 O.2   192  ILE192     -0.2867
     57  CB         5.3700  -40.8290    8.3380 C.3   192  ILE192      0.0252
     58  CG1        5.7730  -42.0100    9.2380 C.3   192  ILE192      0.0019
     59  CG2        3.9280  -40.9810    7.8320 C.3   192  ILE192      0.0019
     60  CD1        5.7570  -43.3570    8.5330 C.3   192  ILE192      0.0001
     61  N          3.3800  -37.6590    5.3980 N.3   194  THR194     -0.1218
     62  CA         2.2110  -36.8680    5.7380 C.3   194  THR194      0.1862
     63  C          2.0470  -35.8300    4.6520 C.2   194  THR194      0.2287
     64  O          2.9030  -35.6900    3.7710 O.2   194  THR194     -0.2866
     65  CB         2.4230  -36.0960    7.0320 C.3   194  THR194      0.1770
     66  OG1        3.5870  -35.2690    6.8850 O.3   194  THR194     -0.2211
     67  CG2        2.5970  -37.0480    8.2130 C.3   194  THR194      0.0375
     68  N          2.3940  -32.6330    4.9310 N.3   196  ALA196     -0.1231
     69  CA         3.5090  -31.6920    5.0240 C.3   196  ALA196      0.1694
     70  C          4.7900  -32.2550    4.4320 C.2   196  ALA196      0.2591
     71  O          5.4970  -31.5680    3.6920 O.2   196  ALA196     -0.2718
     72  CB         3.7300  -31.2620    6.4650 C.3   196  ALA196      0.0304
     73  N          5.0830  -33.5100    4.7480 N.am  197  MET197     -0.1979
     74  CA         6.2610  -34.1730    4.2100 C.3   197  MET197      0.1605
     75  C          6.2350  -34.2330    2.6740 C.2   197  MET197      0.2287
     76  O          7.2460  -34.0030    2.0140 O.2   197  MET197     -0.2864
     77  CB         6.3860  -35.5770    4.8110 C.3   197  MET197      0.0413
     78  CG         7.2320  -36.5400    3.9940 C.3   197  MET197      0.0598
     79  SD         8.9010  -36.7580    4.6230 S.3   197  MET197     -0.1393
     80  CE         9.3270  -35.0440    4.9410 C.3   197  MET197      0.0692
     81  N          7.0290  -30.8520    1.2020 N.3   200  ILE200     -0.1245
     82  CA         8.4640  -30.5750    1.2760 C.3   200  ILE200      0.1561
     83  C          9.2590  -31.3410    0.2120 C.2   200  ILE200      0.2260
     84  O         10.1430  -30.7790   -0.4490 O.2   200  ILE200     -0.2867
     85  CB         9.0320  -30.8930    2.6820 C.3   200  ILE200      0.0252
     86  CG1        8.3400  -30.0350    3.7400 C.3   200  ILE200      0.0019
     87  CG2       10.5400  -30.6920    2.7090 C.3   200  ILE200      0.0019
     88  CD1        8.7170  -30.4040    5.1650 C.3   200  ILE200      0.0001
@<TRIPOS>BOND
     1    84    83    2
     2    83    82    1
     3    81    82    1
     4    82    85    1
     5    76    75    2
     6    75    74    1
     7    85    87    1
     8    85    86    1
     9    71    70    2
    10    86    88    1
    11    64    63    2
    12    78    79    1
    13    78    77    1
    14    74    73    1
    15    74    77    1
    16    70    73   am
    17    70    69    1
    18    79    80    1
    19    63    62    1
    20    68    69    1
    21    69    72    1
    22    61    62    1
    23    62    65    1
    24    55    56    2
    25    55    54    1
    26     8     7    2
    27     7     6    1
    28    66    65    1
    29    65    67    1
    30    54    53    1
    31    54    57    1
    32    35    34    1
    33    32    34   ar
    34    32    30   ar
    35    59    57    1
    36    34    33   ar
    37    24    25    1
    38     6     9    1
    39     6     5    1
    40     9    10    1
    41    57    58    1
    42    30    29   ar
    43    60    58    1
    44    33    31   ar
    45    12    11    1
    46    29    31   ar
    47    29    28    1
    48    25    28    1
    49    25    26    1
    50    11    10    1
    51    23    21   ar
    52    23    22   ar
    53    26    27    2
    54    21    19   ar
    55    22    20   ar
    56    19    18   ar
    57    20    18   ar
    58    18    17    1
    59    40    41    1
    60    40    37    1
    61    41    42    1
    62    36    37    1
    63    17    14    1
    64    37    38    1
    65     4     3    2
    66    42    43    1
    67    38    39    2
    68    14    15    1
    69    14    13    1
    70     3     2    1
    71    15    16    2
    72     2     1    1
    73    51    52    1
    74    51    50    1
    75    49    50    1
    76    49    48    1
    77    48    45    1
    78    44    45    1
    79    45    46    1
    80    46    47    2
