@<TRIPOS>MOLECULE
tmp/3oezA00.pdb
 210 201 0 0 0
SMALL
GASTEIGER

@<TRIPOS>ATOM
      1  N        -10.0610   45.2550   -7.3860 N.3    17  LEU17      -0.1245
      2  CA        -9.9000   44.6390   -6.0710 C.3    17  LEU17       0.1561
      3  C         -8.5830   45.0090   -5.3850 C.2    17  LEU17       0.2260
      4  O         -8.4700   44.9000   -4.1570 O.2    17  LEU17      -0.2867
      5  CB       -10.0680   43.1200   -6.1600 C.3    17  LEU17       0.0270
      6  CG       -11.4760   42.6490   -6.5530 C.3    17  LEU17       0.0019
      7  CD1      -11.5300   41.1330   -6.6660 C.3    17  LEU17       0.0001
      8  CD2      -12.5210   43.1460   -5.5670 C.3    17  LEU17       0.0001
      9  N         -5.9710   43.7150   -9.8630 N.3    25  VAL25      -0.1245
     10  CA        -6.8460   42.5650   -9.7220 C.3    25  VAL25       0.1561
     11  C         -8.2820   43.0230   -9.7770 C.2    25  VAL25       0.2260
     12  O         -8.6320   44.0500   -9.2030 O.2    25  VAL25      -0.2867
     13  CB        -6.6060   41.8130   -8.4050 C.3    25  VAL25       0.0252
     14  CG1       -7.6430   40.7160   -8.2380 C.3    25  VAL25       0.0019
     15  CG2       -5.1780   41.2360   -8.3760 C.3    25  VAL25       0.0019
     16  N        -12.0980   36.0250  -10.9640 N.3    37  ALA37      -0.1231
     17  CA       -11.0640   36.9550  -10.5440 C.3    37  ALA37       0.1694
     18  C        -10.0980   37.0920  -11.7090 C.2    37  ALA37       0.2592
     19  O         -9.8270   36.1190  -12.4160 O.2    37  ALA37      -0.2718
     20  CB       -10.3410   36.4560   -9.2900 C.3    37  ALA37       0.0304
     21  N         -9.5650   38.2960  -11.8860 N.am   38  ILE38      -0.1966
     22  CA        -8.7100   38.6030  -13.0170 C.3    38  ILE38       0.1727
     23  C         -7.4390   39.3400  -12.5790 C.2    38  ILE38       0.2616
     24  O         -7.4910   40.2940  -11.8080 O.2    38  ILE38      -0.2715
     25  CB        -9.4690   39.4490  -14.0570 C.3    38  ILE38       0.0290
     26  CG1      -10.7450   38.7330  -14.5060 C.3    38  ILE38       0.0022
     27  CG2       -8.5820   39.7350  -15.2500 C.3    38  ILE38       0.0023
     28  CD1      -11.7770   39.6560  -15.1290 C.3    38  ILE38       0.0001
     29  N         -6.2940   38.8820  -13.0650 N.am   39  LYS39      -0.1977
     30  CA        -5.0320   39.5140  -12.7290 C.3    39  LYS39       0.1596
     31  C         -4.4130   40.0890  -13.9960 C.2    39  LYS39       0.2287
     32  O         -4.2250   39.3710  -14.9740 O.2    39  LYS39      -0.2864
     33  CB        -4.0890   38.5000  -12.0870 C.3    39  LYS39       0.0298
     34  CG        -2.8960   39.1110  -11.3900 C.3    39  LYS39       0.0038
     35  CD        -1.9450   38.0320  -10.9000 C.3    39  LYS39       0.0206
     36  CE        -0.6330   38.6370  -10.4070 C.3    39  LYS39       0.1093
     37  NZ         0.4040   37.5990  -10.0990 N.3    39  LYS39      -0.1314
     38  N          3.7270   32.1550  -14.0080 N.3    54  GLU54      -0.1245
     39  CA         2.7150   31.8080  -13.0270 C.3    54  GLU54       0.1567
     40  C          1.5770   31.0240  -13.6730 C.2    54  GLU54       0.2260
     41  O          1.0870   30.0430  -13.1140 O.2    54  GLU54      -0.2867
     42  CB         2.1710   33.0740  -12.3690 C.3    54  GLU54       0.0388
     43  CG         0.9890   32.8300  -11.4520 C.3    54  GLU54       0.1160
     44  CD         0.4850   34.1050  -10.8210 C.2    54  GLU54       0.3649
     45  OE1        0.8660   35.1940  -11.2990 O.co2  54  GLU54      -0.2457
     46  OE2       -0.2900   34.0140   -9.8440 O.co2  54  GLU54      -0.2457
     47  N          2.6580   27.4290  -14.4600 N.3    57  VAL57      -0.1231
     48  CA         2.5460   26.6180  -13.2560 C.3    57  VAL57       0.1692
     49  C          1.0950   26.2110  -13.0160 C.2    57  VAL57       0.2591
     50  O          0.8000   25.0380  -12.7960 O.2    57  VAL57      -0.2718
     51  CB         3.0440   27.3830  -12.0090 C.3    57  VAL57       0.0266
     52  CG1        2.8480   26.5430  -10.7610 C.3    57  VAL57       0.0020
     53  CG2        4.5000   27.7780  -12.1670 C.3    57  VAL57       0.0020
     54  N          0.1940   27.1880  -13.0750 N.am   58  MET58      -0.1979
     55  CA        -1.2100   26.9690  -12.7370 C.3    58  MET58       0.1605
     56  C         -1.9260   26.0250  -13.7090 C.2    58  MET58       0.2287
     57  O         -2.9930   25.5020  -13.4020 O.2    58  MET58      -0.2864
     58  CB        -1.9460   28.3080  -12.6220 C.3    58  MET58       0.0413
     59  CG        -1.4550   29.1800  -11.4760 C.3    58  MET58       0.0598
     60  SD        -2.3440   30.7390  -11.3090 S.3    58  MET58      -0.1393
     61  CE        -3.8600   30.1880  -10.5230 C.3    58  MET58       0.0692
     62  N         -1.5310   22.3790  -12.1970 N.3    61  ILE61      -0.1245
     63  CA        -2.0780   22.1650  -10.8620 C.3    61  ILE61       0.1561
     64  C         -3.5830   22.0350  -10.9110 C.2    61  ILE61       0.2260
     65  O         -4.2580   22.8930  -11.4680 O.2    61  ILE61      -0.2867
     66  CB        -1.8370   23.3660   -9.9450 C.3    61  ILE61       0.0252
     67  CG1       -0.3680   23.7440   -9.8740 C.3    61  ILE61       0.0019
     68  CG2       -2.3650   23.0740   -8.5510 C.3    61  ILE61       0.0019
     69  CD1       -0.1900   25.1030   -9.2490 C.3    61  ILE61       0.0001
     70  N         -7.3400   24.1810   -4.2520 N.3    66  LEU66      -0.1231
     71  CA        -6.4410   25.1380   -4.8620 C.3    66  LEU66       0.1693
     72  C         -7.2380   26.0190   -5.7900 C.2    66  LEU66       0.2591
     73  O         -8.1030   25.5300   -6.5120 O.2    66  LEU66      -0.2718
     74  CB        -5.3430   24.4260   -5.6340 C.3    66  LEU66       0.0284
     75  CG        -4.0600   24.3080   -4.8140 C.3    66  LEU66       0.0019
     76  CD1       -3.3170   23.0180   -5.1140 C.3    66  LEU66       0.0001
     77  CD2       -3.1750   25.5310   -5.0520 C.3    66  LEU66       0.0001
     78  N         -6.9710   27.3180   -5.7410 N.am   67  VAL67      -0.1980
     79  CA        -7.6630   28.2610   -6.6080 C.3    67  VAL67       0.1595
     80  C         -7.4130   27.8100   -8.0490 C.2    67  VAL67       0.2287
     81  O         -6.2790   27.5400   -8.4360 O.2    67  VAL67      -0.2864
     82  CB        -7.1750   29.7260   -6.3780 C.3    67  VAL67       0.0276
     83  CG1       -5.6860   29.8650   -6.7350 C.3    67  VAL67       0.0022
     84  CG2       -8.0130   30.7150   -7.1900 C.3    67  VAL67       0.0022
     85  N         -4.7750   36.9440  -16.5210 N.3    80  ILE80      -0.1245
     86  CA        -4.9210   35.6220  -15.9210 C.3    80  ILE80       0.1561
     87  C         -6.2970   35.5190  -15.2490 C.2    80  ILE80       0.2260
     88  O         -6.7080   36.4030  -14.4840 O.2    80  ILE80      -0.2867
     89  CB        -3.8000   35.3490  -14.9080 C.3    80  ILE80       0.0252
     90  CG1       -2.4330   35.5640  -15.5690 C.3    80  ILE80       0.0019
     91  CG2       -3.9150   33.9390  -14.3230 C.3    80  ILE80       0.0019
     92  CD1       -1.2480   35.2200  -14.6790 C.3    80  ILE80       0.0001
     93  N         -9.1200   33.2180  -13.0160 N.3    82  THR82      -0.1203
     94  CA        -9.3830   32.0720  -12.1520 C.3    82  THR82       0.1994
     95  C        -10.8210   32.0600  -11.6770 C.2    82  THR82       0.2618
     96  O        -11.5910   32.9930  -11.9450 O.2    82  THR82      -0.2717
     97  CB        -8.4960   32.1000  -10.8930 C.3    82  THR82       0.1784
     98  OG1       -8.8560   33.2240  -10.0770 O.3    82  THR82      -0.2211
     99  CG2       -7.0300   32.1960  -11.2670 C.3    82  THR82       0.0376
    100  N        -11.1770   31.0120  -10.9390 N.am   83  GLU83      -0.1965
    101  CA       -12.4700   30.9760  -10.2570 C.3    83  GLU83       0.1733
    102  C        -12.5540   32.1250   -9.2580 C.2    83  GLU83       0.2616
    103  O        -11.5300   32.6080   -8.7790 O.2    83  GLU83      -0.2715
    104  CB       -12.6710   29.6380   -9.5460 C.3    83  GLU83       0.0429
    105  CG       -11.7030   29.3830   -8.3960 C.3    83  GLU83       0.1163
    106  CD       -11.9260   28.0290   -7.7590 C.2    83  GLU83       0.3649
    107  OE1      -13.0820   27.7210   -7.4040 O.co2  83  GLU83      -0.2457
    108  OE2      -10.9520   27.2600   -7.6340 O.co2  83  GLU83      -0.2457
    109  N        -13.7730   32.5680   -8.9710 N.am   84  TYR84      -0.1960
    110  CA       -14.0210   33.6200   -7.9940 C.3    84  TYR84       0.1771
    111  C        -14.4550   33.0040   -6.6570 C.2    84  TYR84       0.2619
    112  O        -15.2210   32.0380   -6.6310 O.2    84  TYR84      -0.2715
    113  CB       -15.1010   34.5940   -8.5100 C.3    84  TYR84       0.0574
    114  CG       -15.2390   35.8390   -7.6620 C.ar   84  TYR84      -0.0198
    115  CD1      -14.2320   36.8000   -7.6410 C.ar   84  TYR84      -0.0009
    116  CD2      -16.3650   36.0510   -6.8710 C.ar   84  TYR84      -0.0009
    117  CE1      -14.3450   37.9490   -6.8600 C.ar   84  TYR84       0.0417
    118  CE2      -16.4930   37.2010   -6.0860 C.ar   84  TYR84       0.0417
    119  CZ       -15.4750   38.1410   -6.0810 C.ar   84  TYR84       0.1957
    120  OH       -15.5740   39.2780   -5.3050 O.3    84  TYR84      -0.2866
    121  N        -13.9770   33.5640   -5.5530 N.am   85  MET85      -0.1977
    122  CA       -14.3240   33.0590   -4.2260 C.3    85  MET85       0.1605
    123  C        -15.1020   34.1210   -3.4730 C.2    85  MET85       0.2287
    124  O        -14.5520   35.1600   -3.0960 O.2    85  MET85      -0.2864
    125  CB       -13.0690   32.6550   -3.4610 C.3    85  MET85       0.0413
    126  CG       -12.2570   31.5970   -4.1810 C.3    85  MET85       0.0598
    127  SD       -13.1450   30.0340   -4.2390 S.3    85  MET85      -0.1393
    128  CE       -13.0900   29.5460   -2.5080 C.3    85  MET85       0.0692
    129  N        -14.0010   36.3580   -0.3150 N.3    88  GLY88      -0.1210
    130  CA       -12.7030   37.0050   -0.3410 C.3    88  GLY88       0.1956
    131  C        -11.7080   36.2970    0.5590 C.2    88  GLY88       0.2612
    132  O        -11.8540   35.1000    0.8180 O.2    88  GLY88      -0.2717
    133  N        -10.7020   37.0350    1.0290 N.am   89  SER89      -0.1952
    134  CA        -9.5830   36.4550    1.7670 C.3    89  SER89       0.1924
    135  C        -10.0080   35.9200    3.1190 C.2    89  SER89       0.2314
    136  O        -10.8830   36.4890    3.7850 O.2    89  SER89      -0.2863
    137  CB        -8.4430   37.4730    1.9570 C.3    89  SER89       0.2116
    138  OG        -8.6800   38.3120    3.0860 O.3    89  SER89      -0.2180
    139  N          5.8040   20.4700   -4.7410 N.3   126  TYR126     -0.1227
    140  CA         5.9510   21.9210   -4.8360 C.3   126  TYR126      0.1736
    141  C          6.1690   22.4910   -3.4360 C.2   126  TYR126      0.2595
    142  O          5.9610   21.7990   -2.4390 O.2   126  TYR126     -0.2718
    143  CB         4.6930   22.5650   -5.4300 C.3   126  TYR126      0.0548
    144  CG         4.5130   22.3810   -6.9160 C.ar  126  TYR126     -0.0200
    145  CD1        3.7000   21.3710   -7.4130 C.ar  126  TYR126     -0.0009
    146  CD2        5.1400   23.2340   -7.8310 C.ar  126  TYR126     -0.0009
    147  CE1        3.5240   21.1960   -8.7780 C.ar  126  TYR126      0.0417
    148  CE2        4.9650   23.0700   -9.2080 C.ar  126  TYR126      0.0417
    149  CZ         4.1530   22.0420   -9.6710 C.ar  126  TYR126      0.1957
    150  OH         3.9630   21.8450  -11.0220 O.3   126  TYR126     -0.2866
    151  N          6.5840   23.7540   -3.3770 N.am  127  VAL127     -0.1966
    152  CA         6.6070   24.5260   -2.1390 C.3   127  VAL127      0.1727
    153  C          5.6940   25.7440   -2.3270 C.2   127  VAL127      0.2616
    154  O          5.4860   26.2120   -3.4520 O.2   127  VAL127     -0.2715
    155  CB         8.0430   24.9710   -1.7940 C.3   127  VAL127      0.0290
    156  CG1        8.0790   25.7370   -0.4760 C.3   127  VAL127      0.0023
    157  CG2        8.9770   23.7580   -1.7280 C.3   127  VAL127      0.0023
    158  N          5.1150   26.2520   -1.2470 N.am  128  HIS128     -0.1959
    159  CA         4.2770   27.4410   -1.3880 C.3   128  HIS128      0.1787
    160  C          5.0960   28.7060   -1.1300 C.2   128  HIS128      0.2620
    161  O          5.1650   29.5950   -1.9920 O.2   128  HIS128     -0.2715
    162  CB         3.0460   27.3960   -0.4750 C.3   128  HIS128      0.0785
    163  CG         2.0940   28.5270   -0.7050 C.ar  128  HIS128      0.0821
    164  ND1        2.4440   29.8500   -0.5150 N.ar  128  HIS128     -0.2267
    165  CD2        0.8120   28.5420   -1.1360 C.ar  128  HIS128      0.1154
    166  CE1        1.4280   30.6220   -0.8140 C.ar  128  HIS128      0.1986
    167  NE2        0.4150   29.8530   -1.1870 N.ar  128  HIS128     -0.2212
    168  N          5.7110   28.7680    0.0530 N.am  129  ARG129     -0.1977
    169  CA         6.5970   29.8750    0.4570 C.3   129  ARG129      0.1597
    170  C          5.8620   31.0340    1.1350 C.2   129  ARG129      0.2287
    171  O          6.4910   31.8590    1.8020 O.2   129  ARG129     -0.2864
    172  CB         7.4010   30.4300   -0.7280 C.3   129  ARG129      0.0334
    173  CG         8.4870   29.5230   -1.2600 C.3   129  ARG129      0.0492
    174  CD         9.1730   30.1320   -2.4830 C.3   129  ARG129      0.2205
    175  NE        10.5960   29.7980   -2.5080 N.pl3 129  ARG129     -0.0865
    176  CZ        11.5770   30.6600   -2.2390 C.cat 129  ARG129      0.5346
    177  NH1       11.2950   31.9220   -1.9330 N.pl3 129  ARG129      0.1354
    178  NH2       12.8410   30.2580   -2.2790 N.pl3 129  ARG129      0.1354
    179  N         -8.4180   31.8920    0.2080 N.3   137  LEU137     -0.1245
    180  CA        -9.6880   32.4430   -0.2340 C.3   137  LEU137      0.1561
    181  C        -10.8340   31.6060    0.3180 C.2   137  LEU137      0.2260
    182  O        -10.7060   30.3920    0.4650 O.2   137  LEU137     -0.2867
    183  CB        -9.7430   32.5010   -1.7610 C.3   137  LEU137      0.0270
    184  CG        -8.8360   33.5560   -2.4030 C.3   137  LEU137      0.0019
    185  CD1       -8.7610   33.3780   -3.9280 C.3   137  LEU137      0.0001
    186  CD2       -9.3330   34.9660   -2.0330 C.3   137  LEU137      0.0001
    187  N         -4.3000   29.9870   -2.3130 N.3   147  ALA147     -0.1231
    188  CA        -3.9280   30.8020   -3.4500 C.3   147  ALA147      0.1694
    189  C         -2.5620   31.3980   -3.1750 C.2   147  ALA147      0.2592
    190  O         -2.0150   31.2480   -2.0760 O.2   147  ALA147     -0.2718
    191  CB        -4.9720   31.9170   -3.6620 C.3   147  ALA147      0.0304
    192  N         -2.0070   32.0690   -4.1730 N.am  148  ASP148     -0.1960
    193  CA        -0.8060   32.8600   -3.9660 C.3   148  ASP148      0.1840
    194  C         -0.9460   34.1630   -4.7450 C.2   148  ASP148      0.2622
    195  O         -0.8400   34.1700   -5.9750 O.2   148  ASP148     -0.2715
    196  CB         0.4430   32.0840   -4.3970 C.3   148  ASP148      0.1450
    197  CG         1.7300   32.7410   -3.9200 C.2   148  ASP148      0.3671
    198  OD1        1.6550   33.8460   -3.3270 O.co2 148  ASP148     -0.2456
    199  OD2        2.8150   32.1510   -4.1300 O.co2 148  ASP148     -0.2456
    200  N         -1.2170   35.2560   -4.0320 N.am  149  PHE149     -0.1974
    201  CA        -1.4270   36.5540   -4.6780 C.3   149  PHE149      0.1639
    202  C         -0.1190   37.2870   -4.9250 C.2   149  PHE149      0.2290
    203  O         -0.1230   38.4530   -5.3360 O.2   149  PHE149     -0.2864
    204  CB        -2.3560   37.4570   -3.8590 C.3   149  PHE149      0.0560
    205  CG        -3.6680   36.8230   -3.5110 C.ar  149  PHE149     -0.0200
    206  CD1       -4.3970   36.1320   -4.4660 C.ar  149  PHE149     -0.0042
    207  CD2       -4.1770   36.9270   -2.2280 C.ar  149  PHE149     -0.0042
    208  CE1       -5.6130   35.5400   -4.1440 C.ar  149  PHE149     -0.0003
    209  CE2       -5.3830   36.3450   -1.8970 C.ar  149  PHE149     -0.0003
    210  CZ        -6.1040   35.6460   -2.8520 C.ar  149  PHE149     -0.0000
@<TRIPOS>BOND
     1    85    86    1
     2    86    87    1
     3    86    89    1
     4    90    89    1
     5    90    92    1
     6    27    25    1
     7    87    88    2
     8    28    26    1
     9    32    31    2
    10    89    91    1
    11    26    25    1
    12    47    48    1
    13    25    22    1
    14    38    39    1
    15    31    30    1
    16    56    57    2
    17    56    55    1
    18    40    41    2
    19    40    39    1
    20    48    49    1
    21    48    51    1
    22    54    49   am
    23    54    55    1
    24    29    30    1
    25    29    23   am
    26    39    42    1
    27    22    23    1
    28    22    21    1
    29    49    50    2
    30    93    94    1
    31    55    58    1
    32    30    33    1
    33    58    59    1
    34    23    24    2
    35    19    18    2
    36    42    43    1
    37    62    63    1
    38    53    51    1
    39    94    95    1
    40    94    97    1
    41    33    34    1
    42    51    52    1
    43    96    95    2
    44    21    18   am
    45    18    17    1
    46    95   100   am
    47    59    60    1
    48    65    64    2
    49    43    44    1
    50    34    35    1
    51    60    61    1
    52    45    44   ar
    53    99    97    1
    54   150   149    1
    55    16    17    1
    56   100   101    1
    57    64    63    1
    58    35    36    1
    59    97    98    1
    60    63    66    1
    61    44    46   ar
    62    17    20    1
    63    36    37    1
    64   101   104    1
    65   101   102    1
    66    66    67    1
    67    66    68    1
    68    67    69    1
    69     9    10    1
    70    11    10    1
    71    11    12    2
    72    10    13    1
    73   149   148   ar
    74   149   147   ar
    75   104   105    1
    76   102   109   am
    77   102   103    2
    78   148   146   ar
    79   109   110    1
    80   147   145   ar
    81   113   110    1
    82   113   114    1
    83    81    80    2
    84    13    15    1
    85    13    14    1
    86   105   106    1
    87    80    79    1
    88   110   111    1
    89   146   144   ar
    90   106   108   ar
    91   106   107   ar
    92   114   115   ar
    93   114   116   ar
    94   115   117   ar
    95   145   144   ar
    96     1     2    1
    97    84    82    1
    98   144   143    1
    99   116   118   ar
   100   117   119   ar
   101    83    82    1
   102     7     6    1
   103   111   112    2
   104   111   121   am
   105    79    82    1
   106    79    78    1
   107     6     5    1
   108     6     8    1
   109    73    72    2
   110     5     2    1
   111   118   119   ar
   112   119   120    1
   113     2     3    1
   114   195   194    2
   115    72    78   am
   116    72    71    1
   117    74    71    1
   118    74    75    1
   119   121   122    1
   120   143   140    1
   121     3     4    2
   122   203   202    2
   123    76    75    1
   124    77    75    1
   125   202   201    1
   126    71    70    1
   127   140   139    1
   128   140   141    1
   129   194   200   am
   130   194   193    1
   131   201   200    1
   132   201   204    1
   133   206   208   ar
   134   206   205   ar
   135   196   193    1
   136   196   197    1
   137   127   126    1
   138   127   128    1
   139   122   123    1
   140   122   125    1
   141   126   125    1
   142   192   193    1
   143   192   189   am
   144   208   210   ar
   145   199   197   ar
   146   185   184    1
   147   197   198   ar
   148   204   205    1
   149   191   188    1
   150   205   207   ar
   151   123   124    2
   152   154   153    2
   153   188   189    1
   154   188   187    1
   155   141   151   am
   156   141   142    2
   157   151   152    1
   158   189   190    2
   159   210   209   ar
   160   175   174    1
   161   175   176    2
   162   174   173    1
   163   184   186    1
   164   184   183    1
   165   153   152    1
   166   153   158   am
   167   178   176    1
   168   176   177    1
   169   207   209   ar
   170   152   155    1
   171   161   160    2
   172   155   157    1
   173   155   156    1
   174   183   180    1
   175   159   158    1
   176   159   160    1
   177   159   162    1
   178   173   172    1
   179   167   165   ar
   180   167   166   ar
   181   165   163   ar
   182   160   168   am
   183   166   164   ar
   184   172   169    1
   185   163   164   ar
   186   163   162    1
   187   130   129    1
   188   130   131    1
   189   180   179    1
   190   180   181    1
   191   168   169    1
   192   181   182    2
   193   169   170    1
   194   131   132    2
   195   131   133   am
   196   133   134    1
   197   170   171    2
   198   134   137    1
   199   134   135    1
   200   137   138    1
   201   135   136    2
