@<TRIPOS>MOLECULE
tmp/3of1A00.pdb
 139 135 0 0 0
SMALL
GASTEIGER

@<TRIPOS>ATOM
      1  N        -61.6830   18.9570  -33.2720 N.3    42  ILE42      -0.1245
      2  CA       -61.6890   19.7510  -32.0570 C.3    42  ILE42       0.1561
      3  C        -60.8920   21.0420  -32.3060 C.2    42  ILE42       0.2260
      4  O        -59.8340   21.0130  -32.9630 O.2    42  ILE42      -0.2867
      5  CB       -61.2190   18.9310  -30.7680 C.3    42  ILE42       0.0252
      6  CG1      -59.7160   18.9510  -30.5440 C.3    42  ILE42       0.0019
      7  CG2      -61.6830   17.4740  -30.7590 C.3    42  ILE42       0.0019
      8  CD1      -59.3200   20.1070  -29.6830 C.3    42  ILE42       0.0001
      9  N        -52.1740   18.1790  -35.7710 N.3    61  PHE61      -0.1241
     10  CA       -52.4100   18.9190  -34.5420 C.3    61  PHE61       0.1605
     11  C        -51.7810   20.2870  -34.6620 C.2    61  PHE61       0.2264
     12  O        -50.5820   20.4050  -34.9670 O.2    61  PHE61      -0.2867
     13  CB       -51.7810   18.1940  -33.3540 C.3    61  PHE61       0.0534
     14  CG       -52.4560   16.8920  -32.9980 C.ar   61  PHE61      -0.0203
     15  CD1      -53.5540   16.8730  -32.1530 C.ar   61  PHE61      -0.0042
     16  CD2      -52.0010   15.6900  -33.5310 C.ar   61  PHE61      -0.0042
     17  CE1      -54.1460   15.6780  -31.8310 C.ar   61  PHE61      -0.0003
     18  CE2      -52.6130   14.5040  -33.2290 C.ar   61  PHE61      -0.0003
     19  CZ       -53.6760   14.4730  -32.3840 C.ar   61  PHE61      -0.0000
     20  N        -51.1220   24.0030  -32.7310 N.3    63  VAL63      -0.1245
     21  CA       -51.1470   24.8630  -31.5600 C.3    63  VAL63       0.1561
     22  C        -50.9030   26.2560  -32.1260 C.2    63  VAL63       0.2260
     23  O        -49.9380   26.4590  -32.8820 O.2    63  VAL63      -0.2867
     24  CB       -50.0620   24.4720  -30.4850 C.3    63  VAL63       0.0252
     25  CG1      -50.0220   25.4770  -29.3610 C.3    63  VAL63       0.0019
     26  CG2      -50.3510   23.1090  -29.9310 C.3    63  VAL63       0.0019
     27  N        -47.7670   20.8160  -35.0060 N.3    68  VAL68      -0.1231
     28  CA       -46.8650   20.3800  -33.9600 C.3    68  VAL68       0.1692
     29  C        -46.7970   18.8400  -33.8310 C.2    68  VAL68       0.2592
     30  O        -45.7990   18.2880  -33.3430 O.2    68  VAL68      -0.2718
     31  CB       -47.2640   21.1000  -32.6290 C.3    68  VAL68       0.0266
     32  CG1      -46.9760   22.6440  -32.7400 C.3    68  VAL68       0.0020
     33  CG2      -48.7280   20.8630  -32.3060 C.3    68  VAL68       0.0020
     34  N        -47.8050   18.1730  -34.3730 N.am   69  ASN69      -0.1974
     35  CA       -48.0350   16.7550  -34.1750 C.3    69  ASN69       0.1688
     36  C        -48.9080   16.1700  -35.2940 C.2    69  ASN69       0.2292
     37  O        -49.4520   16.8980  -36.1190 O.2    69  ASN69      -0.2864
     38  CB       -48.6950   16.5380  -32.8230 C.3    69  ASN69       0.1181
     39  CG       -48.0050   15.4800  -31.9810 C.2    69  ASN69       0.2629
     40  OD1      -47.4570   14.4850  -32.4860 O.2    69  ASN69      -0.2716
     41  ND2      -48.0200   15.6960  -30.6690 N.am   69  ASN69      -0.0877
     42  N        -56.7680   11.0750  -28.6060 N.3    77  PHE77      -0.1227
     43  CA       -56.5850   12.4980  -28.3340 C.3    77  PHE77       0.1736
     44  C        -57.8740   13.0940  -27.7630 C.2    77  PHE77       0.2596
     45  O        -58.8720   12.3920  -27.6480 O.2    77  PHE77      -0.2718
     46  CB       -56.0870   13.2260  -29.5820 C.3    77  PHE77       0.0547
     47  CG       -57.0510   13.1730  -30.7500 C.ar   77  PHE77      -0.0202
     48  CD1      -56.8640   12.2570  -31.7830 C.ar   77  PHE77      -0.0042
     49  CD2      -58.1400   14.0750  -30.8340 C.ar   77  PHE77      -0.0042
     50  CE1      -57.7750   12.2090  -32.8680 C.ar   77  PHE77      -0.0003
     51  CE2      -59.0280   14.0360  -31.9180 C.ar   77  PHE77      -0.0003
     52  CZ       -58.8430   13.1030  -32.9320 C.ar   77  PHE77      -0.0000
     53  N        -57.8400   14.3530  -27.3480 N.am   78  GLY78      -0.1942
     54  CA       -58.9260   14.9510  -26.5570 C.3    78  GLY78       0.2014
     55  C        -59.0570   14.6580  -25.0530 C.2    78  GLY78       0.2639
     56  O        -60.1050   14.9450  -24.4320 O.2    78  GLY78      -0.2714
     57  N        -58.0080   14.0930  -24.4580 N.am   79  GLU79      -0.1963
     58  CA       -58.0560   13.6470  -23.0520 C.3    79  GLU79       0.1733
     59  C        -57.7140   14.7260  -22.0160 C.2    79  GLU79       0.2616
     60  O        -58.1570   14.6460  -20.8810 O.2    79  GLU79      -0.2715
     61  CB       -57.1180   12.4560  -22.8450 C.3    79  GLU79       0.0429
     62  CG       -55.6730   12.8160  -22.4900 C.3    79  GLU79       0.1163
     63  CD       -54.7530   13.0580  -23.6860 C.2    79  GLU79       0.3649
     64  OE1      -55.2410   13.3580  -24.7980 O.co2  79  GLU79      -0.2457
     65  OE2      -53.5120   12.9500  -23.5010 O.co2  79  GLU79      -0.2457
     66  N        -56.9100   15.7150  -22.4150 N.am   80  LEU80      -0.1963
     67  CA       -56.4660   16.8240  -21.5190 C.3    80  LEU80       0.1728
     68  C        -57.5840   17.7540  -21.0550 C.2    80  LEU80       0.2616
     69  O        -57.6300   18.1120  -19.9010 O.2    80  LEU80      -0.2715
     70  CB       -55.3670   17.6860  -22.1670 C.3    80  LEU80       0.0311
     71  CG       -54.1150   17.1070  -22.8080 C.3    80  LEU80       0.0022
     72  CD1      -53.4660   18.2330  -23.6050 C.3    80  LEU80       0.0001
     73  CD2      -53.1960   16.5200  -21.7860 C.3    80  LEU80       0.0001
     74  N        -58.4670   18.1630  -21.9600 N.am   81  ALA81      -0.1977
     75  CA       -59.6020   19.0240  -21.6080 C.3    81  ALA81       0.1597
     76  C        -60.4830   18.3880  -20.5720 C.2    81  ALA81       0.2287
     77  O        -60.9690   19.0670  -19.6600 O.2    81  ALA81      -0.2864
     78  CB       -60.4080   19.3840  -22.8270 C.3    81  ALA81       0.0319
     79  N        -59.5700   24.6170  -21.2850 N.3    87  PRO87      -0.2102
     80  CA       -59.8780   24.6350  -22.7360 C.3    87  PRO87       0.1504
     81  C        -59.0400   23.6280  -23.5670 C.2    87  PRO87       0.2576
     82  O        -58.0090   23.0860  -23.0840 O.2    87  PRO87      -0.2718
     83  CB       -59.5490   26.0770  -23.1590 C.3    87  PRO87       0.0282
     84  CG       -59.3540   26.8560  -21.8490 C.3    87  PRO87       0.0208
     85  CD       -58.9680   25.8770  -20.8140 C.3    87  PRO87       0.0893
     86  N        -59.5200   23.3560  -24.7810 N.am   88  ARG88      -0.1966
     87  CA       -58.7980   22.5630  -25.7620 C.3    88  ARG88       0.1729
     88  C        -57.4000   23.1570  -25.9650 C.2    88  ARG88       0.2616
     89  O        -57.2760   24.3620  -26.1690 O.2    88  ARG88      -0.2715
     90  CB       -59.5740   22.5300  -27.0840 C.3    88  ARG88       0.0348
     91  CG       -60.8170   21.6960  -27.0430 C.3    88  ARG88       0.0492
     92  CD       -60.5750   20.2500  -26.4980 C.3    88  ARG88       0.2205
     93  NE       -61.7900   19.4310  -26.6070 N.pl3  88  ARG88      -0.0865
     94  CZ       -61.8960   18.1360  -26.3180 C.cat  88  ARG88       0.5346
     95  NH1      -60.8580   17.4460  -25.8650 N.pl3  88  ARG88       0.1354
     96  NH2      -63.0580   17.5200  -26.4780 N.pl3  88  ARG88       0.1354
     97  N        -56.3610   22.3240  -25.8580 N.am   89  ALA89      -0.1963
     98  CA       -54.9670   22.7700  -26.0080 C.3    89  ALA89       0.1728
     99  C        -54.4350   22.7850  -27.4600 C.2    89  ALA89       0.2616
    100  O        -53.3350   23.3100  -27.7380 O.2    89  ALA89      -0.2715
    101  CB       -54.0790   21.9000  -25.1660 C.3    89  ALA89       0.0334
    102  N        -55.1460   22.1440  -28.3760 N.am   90  ALA90      -0.1977
    103  CA       -54.7080   22.0860  -29.7560 C.3    90  ALA90       0.1597
    104  C        -55.9580   21.9360  -30.5780 C.2    90  ALA90       0.2287
    105  O        -56.9590   21.4240  -30.0830 O.2    90  ALA90      -0.2864
    106  CB       -53.7670   20.9140  -30.0190 C.3    90  ALA90       0.0319
    107  N        -57.2710   19.8860  -33.7990 N.3    92  VAL92      -0.1245
    108  CA       -57.1050   18.5990  -34.4590 C.3    92  VAL92       0.1561
    109  C        -57.9060   18.5770  -35.8070 C.2    92  VAL92       0.2260
    110  O        -59.1350   18.4400  -35.8190 O.2    92  VAL92      -0.2867
    111  CB       -57.5140   17.3870  -33.5210 C.3    92  VAL92       0.0252
    112  CG1      -56.9380   16.1110  -34.0140 C.3    92  VAL92       0.0019
    113  CG2      -57.0840   17.6100  -32.0810 C.3    92  VAL92       0.0019
    114  N        -48.0820   24.1430  -20.6460 N.3   137  THR137     -0.1203
    115  CA       -49.4240   24.0780  -21.1170 C.3   137  THR137      0.1994
    116  C        -49.8840   22.8010  -20.4800 C.2   137  THR137      0.2619
    117  O        -49.0470   22.0460  -19.9700 O.2   137  THR137     -0.2717
    118  CB       -49.4110   23.9250  -22.6610 C.3   137  THR137      0.1784
    119  OG1      -48.7300   22.7170  -23.0320 O.3   137  THR137     -0.2211
    120  CG2      -48.7490   25.2120  -23.3890 C.3   137  THR137      0.0376
    121  N        -51.1790   22.5050  -20.5970 N.am  138  THR138     -0.1938
    122  CA       -51.7260   21.3100  -20.0540 C.3   138  THR138      0.2028
    123  C        -51.1240   20.0770  -20.7030 C.2   138  THR138      0.2642
    124  O        -51.0270   19.0270  -20.0640 O.2   138  THR138     -0.2714
    125  CB       -53.2940   21.1800  -20.2650 C.3   138  THR138      0.1808
    126  OG1      -53.6370   21.2390  -21.6570 O.3   138  THR138     -0.2208
    127  CG2      -54.0750   22.1670  -19.4920 C.3   138  THR138      0.0379
    128  N        -50.8250   20.1480  -21.9900 N.am  139  TYR139     -0.1973
    129  CA       -50.1980   19.0020  -22.6370 C.3   139  TYR139      0.1639
    130  C        -48.8370   18.7290  -21.9940 C.2   139  TYR139      0.2290
    131  O        -48.3980   17.6010  -21.8430 O.2   139  TYR139     -0.2864
    132  CB       -50.0470   19.2910  -24.1690 C.3   139  TYR139      0.0560
    133  CG       -49.0220   18.4270  -24.9070 C.ar  139  TYR139     -0.0198
    134  CD1      -49.4080   17.2390  -25.5400 C.ar  139  TYR139     -0.0009
    135  CD2      -47.6900   18.8160  -24.9820 C.ar  139  TYR139     -0.0009
    136  CE1      -48.5270   16.4660  -26.1990 C.ar  139  TYR139      0.0417
    137  CE2      -46.7890   18.0690  -25.6020 C.ar  139  TYR139      0.0417
    138  CZ       -47.2010   16.8860  -26.2160 C.ar  139  TYR139      0.1957
    139  OH       -46.2620   16.1190  -26.8250 O.3   139  TYR139     -0.2866
@<TRIPOS>BOND
     1    37    36    2
     2   110   109    2
     3   109   108    1
     4     9    10    1
     5    36    35    1
     6    27    28    1
     7    12    11    2
     8    11    10    1
     9    10    13    1
    10   108   107    1
    11   108   111    1
    12    34    35    1
    13    34    29   am
    14    35    38    1
    15   112   111    1
    16    28    29    1
    17    28    31    1
    18    29    30    2
    19    16    18   ar
    20    16    14   ar
    21   111   113    1
    22    13    14    1
    23     1     2    1
    24    18    19   ar
    25    14    15   ar
    26     4     3    2
    27    52    50   ar
    28    52    51   ar
    29    23    22    2
    30    50    48   ar
    31    38    39    1
    32    32    31    1
    33    20    21    1
    34    31    33    1
    35    40    39    2
    36    19    17   ar
    37     3     2    1
    38    15    17   ar
    39    22    21    1
    40     2     5    1
    41    39    41   am
    42    51    49   ar
    43    48    47   ar
    44    21    24    1
    45    49    47   ar
    46     5     7    1
    47     5     6    1
    48    47    46    1
    49   104   105    2
    50   104   103    1
    51     6     8    1
    52    24    26    1
    53    24    25    1
    54   106   103    1
    55   103   102    1
    56    46    43    1
    57    42    43    1
    58   102    99   am
    59    43    44    1
    60    44    45    2
    61    44    53   am
    62   100    99    2
    63    99    98    1
    64    53    54    1
    65    90    91    1
    66    90    87    1
    67    91    92    1
    68   139   138    1
    69    93    92    1
    70    93    94    2
    71    54    55    1
    72    96    94    1
    73    94    95    1
    74   138   136   ar
    75   138   137   ar
    76   136   134   ar
    77    89    88    2
    78    98    97    1
    79    98   101    1
    80    88    97   am
    81    88    87    1
    82    87    86    1
    83   137   135   ar
    84   134   133   ar
    85    55    57   am
    86    55    56    2
    87   135   133   ar
    88   133   132    1
    89    64    63   ar
    90    86    81   am
    91    57    58    1
    92   132   129    1
    93    63    65   ar
    94    63    62    1
    95    72    71    1
    96    81    82    2
    97    81    80    1
    98   120   118    1
    99    83    80    1
   100    83    84    1
   101    58    61    1
   102    58    59    1
   103   119   118    1
   104    61    62    1
   105    78    75    1
   106    71    70    1
   107    71    73    1
   108    80    79    1
   109   118   115    1
   110   129   130    1
   111   129   128    1
   112    66    59   am
   113    66    67    1
   114    70    67    1
   115    59    60    2
   116   130   131    2
   117   128   123   am
   118    74    75    1
   119    74    68   am
   120    84    85    1
   121   126   125    1
   122    75    76    1
   123    67    68    1
   124    79    85    1
   125   115   114    1
   126   115   116    1
   127    68    69    2
   128   123   124    2
   129   123   122    1
   130   121   116   am
   131   121   122    1
   132    76    77    2
   133   116   117    2
   134   125   122    1
   135   125   127    1
