@<TRIPOS>MOLECULE
tmp/3of1A01.pdb
 142 136 0 0 0
SMALL
GASTEIGER

@<TRIPOS>ATOM
      1  N        -30.1900   14.3640   -0.8260 N.3   160  ILE160     -0.1245
      2  CA       -29.0090   14.2490   -1.6480 C.3   160  ILE160      0.1561
      3  C        -27.7810   14.6820   -0.9190 C.2   160  ILE160      0.2260
      4  O        -27.8780   15.4220    0.0490 O.2   160  ILE160     -0.2867
      5  CB       -29.1660   14.9510   -3.0710 C.3   160  ILE160      0.0252
      6  CG1      -29.5280   16.4320   -3.0290 C.3   160  ILE160      0.0019
      7  CG2      -30.2600   14.2410   -3.8810 C.3   160  ILE160      0.0019
      8  CD1      -30.1370   16.9520   -4.3820 C.3   160  ILE160      0.0001
      9  N        -30.2950   23.2000    2.6700 N.3   179  VAL179     -0.1245
     10  CA       -29.2110   23.0140    1.7130 C.3   179  VAL179      0.1561
     11  C        -27.8860   23.3180    2.4130 C.2   179  VAL179      0.2260
     12  O        -27.7530   24.3550    3.0130 O.2   179  VAL179     -0.2867
     13  CB       -29.4210   23.9370    0.4840 C.3   179  VAL179      0.0252
     14  CG1      -28.3230   23.7790   -0.5090 C.3   179  VAL179      0.0019
     15  CG2      -30.8430   23.7320   -0.1460 C.3   179  VAL179      0.0019
     16  N        -23.3050   22.8180    2.7690 N.3   181  LYS181     -0.1245
     17  CA       -22.0730   22.6600    2.0050 C.3   181  LYS181      0.1561
     18  C        -20.9290   22.4970    2.9590 C.2   181  LYS181      0.2260
     19  O        -20.6970   23.3520    3.7950 O.2   181  LYS181     -0.2867
     20  CB       -21.8260   23.8780    1.1140 C.3   181  LYS181      0.0271
     21  CG       -22.0230   23.5880   -0.3710 C.3   181  LYS181      0.0035
     22  CD       -21.8830   24.8580   -1.2180 C.3   181  LYS181      0.0206
     23  CE       -20.6570   24.8270   -2.1190 C.3   181  LYS181      0.1093
     24  NZ       -20.4700   23.5680   -2.9200 N.3   181  LYS181     -0.1314
     25  N        -26.7020   26.9220    3.8780 N.3   187  ILE187     -0.1231
     26  CA       -26.5880   28.0950    2.9820 C.3   187  ILE187      0.1692
     27  C        -27.9060   28.4770    2.2670 C.2   187  ILE187      0.2592
     28  O        -27.9210   29.4760    1.5180 O.2   187  ILE187     -0.2718
     29  CB       -25.5320   27.8640    1.9120 C.3   187  ILE187      0.0266
     30  CG1      -25.8990   26.6200    1.0700 C.3   187  ILE187      0.0019
     31  CG2      -24.2050   27.7310    2.6060 C.3   187  ILE187      0.0020
     32  CD1      -25.2480   26.5280   -0.2840 C.3   187  ILE187      0.0001
     33  N        -28.9840   27.7070    2.4910 N.am  188  ASN188     -0.1974
     34  CA       -30.2700   27.9850    1.8940 C.3   188  ASN188      0.1688
     35  C        -31.3250   27.0610    2.4410 C.2   188  ASN188      0.2292
     36  O        -30.9870   26.0460    3.0390 O.2   188  ASN188     -0.2864
     37  CB       -30.1800   27.7650    0.3620 C.3   188  ASN188      0.1181
     38  CG       -31.2690   28.5080   -0.3860 C.2   188  ASN188      0.2629
     39  OD1      -31.9500   29.3220    0.1920 O.2   188  ASN188     -0.2716
     40  ND2      -31.4190   28.2380   -1.6740 N.am  188  ASN188     -0.0877
     41  N        -35.4950   25.4420    1.5990 N.3   190  LEU190     -0.1245
     42  CA       -36.5730   25.3840    0.5880 C.3   190  LEU190      0.1561
     43  C        -37.8210   24.8610    1.2060 C.2   190  LEU190      0.2260
     44  O        -37.7430   24.2820    2.2100 O.2   190  LEU190     -0.2867
     45  CB       -36.1210   24.4750   -0.5930 C.3   190  LEU190      0.0270
     46  CG       -34.7150   24.7660   -1.1970 C.3   190  LEU190      0.0019
     47  CD1      -34.3950   23.6560   -2.2080 C.3   190  LEU190      0.0001
     48  CD2      -34.5750   26.1390   -1.9110 C.3   190  LEU190      0.0001
     49  N        -37.7630   23.5570   -5.7170 N.3   195  TYR195     -0.1227
     50  CA       -37.3890   22.4590   -6.5610 C.3   195  TYR195      0.1736
     51  C        -35.9460   22.4970   -6.1550 C.2   195  TYR195      0.2595
     52  O        -35.4460   23.5500   -5.5920 O.2   195  TYR195     -0.2718
     53  CB       -37.5660   22.8370   -8.0550 C.3   195  TYR195      0.0548
     54  CG       -36.7780   24.1360   -8.5500 C.ar  195  TYR195     -0.0200
     55  CD1      -35.4090   24.0820   -8.7590 C.ar  195  TYR195     -0.0009
     56  CD2      -37.4490   25.3050   -8.9230 C.ar  195  TYR195     -0.0009
     57  CE1      -34.7070   25.1700   -9.2430 C.ar  195  TYR195      0.0417
     58  CE2      -36.7180   26.4980   -9.4410 C.ar  195  TYR195      0.0417
     59  CZ       -35.3560   26.3760   -9.5540 C.ar  195  TYR195      0.1957
     60  OH       -34.5850   27.3670  -10.0780 O.3   195  TYR195     -0.2866
     61  N        -35.2590   21.3650   -6.3270 N.am  196  PHE196     -0.1962
     62  CA       -33.7970   21.3790   -6.1840 C.3   196  PHE196      0.1771
     63  C        -33.3340   20.2340   -7.0710 C.2   196  PHE196      0.2620
     64  O        -34.1390   19.4760   -7.5680 O.2   196  PHE196     -0.2715
     65  CB       -33.3110   21.2700   -4.7090 C.3   196  PHE196      0.0574
     66  CG       -33.9360   20.0880   -3.9540 C.ar  196  PHE196     -0.0200
     67  CD1      -33.3110   18.8760   -3.9370 C.ar  196  PHE196     -0.0042
     68  CD2      -35.1220   20.2330   -3.2700 C.ar  196  PHE196     -0.0042
     69  CE1      -33.8740   17.7430   -3.2450 C.ar  196  PHE196     -0.0003
     70  CE2      -35.7160   19.1060   -2.6420 C.ar  196  PHE196     -0.0003
     71  CZ       -35.0620   17.8610   -2.6490 C.ar  196  PHE196     -0.0000
     72  N        -32.0250   20.1720   -7.2510 N.am  197  GLY197     -0.1940
     73  CA       -31.3590   19.0920   -7.8900 C.3   197  GLY197      0.2014
     74  C        -31.1240   19.2370   -9.3530 C.2   197  GLY197      0.2639
     75  O        -30.7130   18.2680   -9.9660 O.2   197  GLY197     -0.2714
     76  N        -31.3030   20.4750   -9.9030 N.am  198  GLU198     -0.1963
     77  CA       -31.1090   20.7490  -11.3180 C.3   198  GLU198      0.1733
     78  C        -29.6660   21.0090  -11.6200 C.2   198  GLU198      0.2616
     79  O        -29.2980   20.8930  -12.7470 O.2   198  GLU198     -0.2715
     80  CB       -31.9120   21.9300  -11.8250 C.3   198  GLU198      0.0429
     81  CG       -31.2940   23.3070  -11.4200 C.3   198  GLU198      0.1163
     82  CD       -31.2680   23.6610   -9.8650 C.2   198  GLU198      0.3649
     83  OE1      -31.7130   22.8360   -8.9730 O.co2 198  GLU198     -0.2457
     84  OE2      -30.8400   24.8210   -9.5340 O.co2 198  GLU198     -0.2457
     85  N        -28.8450   21.4200  -10.6890 N.am  199  VAL199     -0.1963
     86  CA       -27.4750   21.8460  -11.0870 C.3   199  VAL199      0.1727
     87  C        -26.6490   20.6840  -11.6600 C.2   199  VAL199      0.2616
     88  O        -25.9410   20.8410  -12.6970 O.2   199  VAL199     -0.2715
     89  CB       -26.6670   22.4760   -9.9330 C.3   199  VAL199      0.0290
     90  CG1      -25.1810   22.7000  -10.4250 C.3   199  VAL199      0.0023
     91  CG2      -27.3040   23.8800   -9.4130 C.3   199  VAL199      0.0023
     92  N        -26.7390   19.5110  -10.9990 N.am  200  ALA200     -0.1977
     93  CA       -26.0220   18.3190  -11.4710 C.3   200  ALA200      0.1597
     94  C        -26.3960   17.9010  -12.8860 C.2   200  ALA200      0.2287
     95  O        -25.5420   17.6500  -13.6850 O.2   200  ALA200     -0.2864
     96  CB       -26.1380   17.1180  -10.4760 C.3   200  ALA200      0.0319
     97  N        -23.3930   16.5040   -7.3780 N.3   207  ARG207     -0.1231
     98  CA       -24.2210   17.3510   -6.5840 C.3   207  ARG207      0.1694
     99  C        -23.3400   18.3910   -5.8960 C.2   207  ARG207      0.2592
    100  O        -22.3090   18.0640   -5.3620 O.2   207  ARG207     -0.2718
    101  CB       -24.9910   16.4850   -5.5710 C.3   207  ARG207      0.0321
    102  CG       -25.9210   15.4830   -6.2080 C.3   207  ARG207      0.0489
    103  CD       -27.1990   16.0880   -6.7190 C.3   207  ARG207      0.2205
    104  NE       -28.2640   15.0990   -6.9750 N.pl3 207  ARG207     -0.0865
    105  CZ       -29.2440   15.3020   -7.8410 C.cat 207  ARG207      0.5346
    106  NH1      -29.3110   16.4340   -8.5290 N.pl3 207  ARG207      0.1354
    107  NH2      -30.1650   14.3870   -8.0260 N.pl3 207  ARG207      0.1354
    108  N        -23.7470   19.6460   -5.9550 N.am  208  GLN208     -0.1966
    109  CA       -23.0080   20.7610   -5.3540 C.3   208  GLN208      0.1733
    110  C        -23.3820   21.0590   -3.9090 C.2   208  GLN208      0.2616
    111  O        -22.8590   21.9870   -3.3440 O.2   208  GLN208     -0.2715
    112  CB       -23.1870   22.0580   -6.1830 C.3   208  GLN208      0.0408
    113  CG       -22.6320   21.9630   -7.6570 C.3   208  GLN208      0.0908
    114  CD       -21.1620   21.5800   -7.6990 C.2   208  GLN208      0.2608
    115  OE1      -20.2970   22.3520   -7.2540 O.2   208  GLN208     -0.2717
    116  NE2      -20.8620   20.3690   -8.1800 N.am  208  GLN208     -0.0878
    117  N        -24.3360   20.3790   -3.3430 N.am  209  ALA209     -0.1977
    118  CA       -24.6270   20.6240   -1.9490 C.3   209  ALA209      0.1597
    119  C        -25.3920   19.4160   -1.3800 C.2   209  ALA209      0.2287
    120  O        -25.7890   18.5410   -2.1740 O.2   209  ALA209     -0.2864
    121  CB       -25.4250   21.9500   -1.7840 C.3   209  ALA209      0.0319
    122  N        -28.8210   18.1040    0.7990 N.3   211  VAL211     -0.1245
    123  CA       -30.1890   18.5740    0.9950 C.3   211  VAL211      0.1561
    124  C        -30.7950   17.5470    1.9830 C.2   211  VAL211      0.2260
    125  O        -30.7770   16.3480    1.6680 O.2   211  VAL211     -0.2867
    126  CB       -31.0620   18.5750   -0.3210 C.3   211  VAL211      0.0252
    127  CG1      -32.4750   19.0580   -0.0640 C.3   211  VAL211      0.0019
    128  CG2      -30.4750   19.4740   -1.4680 C.3   211  VAL211      0.0019
    129  N        -27.4020   28.2420   -9.4220 N.3   243  PRO243     -0.2102
    130  CA       -26.4430   28.8220   -8.4830 C.3   243  PRO243      0.1504
    131  C        -24.9970   28.5540   -8.9000 C.2   243  PRO243      0.2576
    132  O        -24.1340   29.2330   -8.4340 O.2   243  PRO243     -0.2718
    133  CB       -26.8150   28.2140   -7.1290 C.3   243  PRO243      0.0282
    134  CG       -27.8200   27.0520   -7.4240 C.3   243  PRO243      0.0208
    135  CD       -28.1350   27.0690   -8.8820 C.3   243  PRO243      0.0893
    136  N        -24.7060   27.6520   -9.8430 N.am  244  THR244     -0.1953
    137  CA       -23.3180   27.6690  -10.4030 C.3   244  THR244      0.1897
    138  C        -22.9490   29.0090  -11.1570 C.2   244  THR244      0.2313
    139  O        -21.7840   29.2220  -11.5640 O.2   244  THR244     -0.2863
    140  CB       -22.9020   26.4300  -11.2340 C.3   244  THR244      0.1794
    141  OG1      -23.6740   26.3450  -12.4430 O.3   244  THR244     -0.2208
    142  CG2      -23.0260   25.1630  -10.3940 C.3   244  THR244      0.0378
@<TRIPOS>BOND
     1    95    94    2
     2    94    93    1
     3    79    78    2
     4    88    87    2
     5   141   140    1
     6    80    81    1
     7    80    77    1
     8    87    86    1
     9    87    92   am
    10    78    77    1
    11    78    85   am
    12   139   138    2
    13    93    92    1
    14    93    96    1
    15    81    82    1
    16    77    76    1
    17   140   137    1
    18   140   142    1
    19   138   137    1
    20    86    85    1
    21    86    89    1
    22    90    89    1
    23   137   136    1
    24    60    59    1
    25    75    74    2
    26    89    91    1
    27    76    74   am
    28    82    84   ar
    29    82    83   ar
    30   136   131   am
    31    59    58   ar
    32    59    57   ar
    33    58    56   ar
    34   129   135    1
    35   129   130    1
    36    74    73    1
    37    57    55   ar
    38    56    54   ar
    39   131   130    1
    40   131   132    2
    41   135   134    1
    42    55    54   ar
    43    54    53    1
    44   106   105    1
    45   130   133    1
    46   116   114   am
    47    53    50    1
    48   107   105    1
    49    73    72    1
    50   105   104    2
    51   114   113    1
    52   114   115    2
    53   113   112    1
    54    64    63    2
    55   134   133    1
    56    97    98    1
    57    72    63   am
    58    63    62    1
    59   104   103    1
    60   103   102    1
    61    98    99    1
    62    98   101    1
    63    50    51    1
    64    50    49    1
    65    61    62    1
    66    61    51   am
    67   102   101    1
    68    62    65    1
    69   112   109    1
    70    51    52    2
    71   108    99   am
    72   108   109    1
    73    99   100    2
    74   109   110    1
    75    65    66    1
    76     8     6    1
    77    66    67   ar
    78    66    68   ar
    79    67    69   ar
    80   110   111    2
    81   110   117   am
    82     7     5    1
    83   117   118    1
    84    68    70   ar
    85    69    71   ar
    86     5     6    1
    87     5     2    1
    88    24    23    1
    89    71    70   ar
    90    47    46    1
    91   120   119    2
    92    23    22    1
    93   118   121    1
    94   118   119    1
    95    48    46    1
    96    40    38   am
    97     2     3    1
    98     2     1    1
    99   128   126    1
   100    22    21    1
   101    46    45    1
   102     3     4    2
   103    45    42    1
   104    14    13    1
   105    38    39    2
   106    38    37    1
   107    21    20    1
   108   126   127    1
   109   126   123    1
   110    32    30    1
   111    15    13    1
   112    37    34    1
   113    13    10    1
   114    42    43    1
   115    42    41    1
   116   122   123    1
   117   123   124    1
   118    30    29    1
   119    20    17    1
   120    43    44    2
   121    28    27    2
   122   125   124    2
   123    10    11    1
   124    10     9    1
   125    34    35    1
   126    34    33    1
   127    29    31    1
   128    29    26    1
   129    17    16    1
   130    17    18    1
   131    27    33   am
   132    27    26    1
   133    11    12    2
   134    35    36    2
   135    18    19    2
   136    26    25    1
