@<TRIPOS>MOLECULE
tmp/3of3H00.pdb
 147 137 0 0 0
SMALL
GASTEIGER

@<TRIPOS>ATOM
      1  N         44.3290   67.5390   73.3270 N.3    20  GLY20      -0.1225
      2  CA        44.2180   66.6010   74.4770 C.3    20  GLY20       0.1811
      3  C         44.2840   67.3540   75.8030 C.2    20  GLY20       0.2280
      4  O         43.7060   66.9470   76.7960 O.2    20  GLY20      -0.2866
      5  N         45.5860   73.7480   76.7840 N.3    24  ARG24      -0.1245
      6  CA        45.7940   74.2080   75.4290 C.3    24  ARG24       0.1563
      7  C         44.4650   74.7030   74.8530 C.2    24  ARG24       0.2260
      8  O         44.4610   75.6210   74.0320 O.2    24  ARG24      -0.2867
      9  CB        46.4210   73.1560   74.5010 C.3    24  ARG24       0.0307
     10  CG        46.8280   73.7350   73.1170 C.3    24  ARG24       0.0489
     11  CD        47.3610   72.6500   72.1110 C.3    24  ARG24       0.2205
     12  NE        48.2810   71.7510   72.8040 N.pl3  24  ARG24      -0.0865
     13  CZ        48.2990   70.4200   72.6820 C.cat  24  ARG24       0.5346
     14  NH1       47.4570   69.7780   71.8580 N.pl3  24  ARG24       0.1354
     15  NH2       49.1530   69.7230   73.4250 N.pl3  24  ARG24       0.1354
     16  N         41.4420   64.9800   76.6960 N.3    63  GLY63      -0.1210
     17  CA        42.2100   64.0420   77.5280 C.3    63  GLY63       0.1956
     18  C         43.1630   63.2220   76.6800 C.2    63  GLY63       0.2611
     19  O         43.2470   63.4000   75.4630 O.2    63  GLY63      -0.2717
     20  N         43.8960   62.3160   77.3060 N.am   64  MET64      -0.1979
     21  CA        44.8340   61.5190   76.5510 C.3    64  MET64       0.1605
     22  C         44.3190   60.1200   76.2730 C.2    64  MET64       0.2287
     23  O         43.8290   59.4350   77.1690 O.2    64  MET64      -0.2864
     24  CB        46.1700   61.4130   77.3070 C.3    64  MET64       0.0413
     25  CG        46.7630   62.8010   77.6220 C.3    64  MET64       0.0598
     26  SD        48.4500   62.6230   78.2390 S.3    64  MET64      -0.1393
     27  CE        48.2180   61.9070   79.8740 C.3    64  MET64       0.0692
     28  N         40.7460   67.6660   65.7730 N.3    87  ARG87      -0.1245
     29  CA        41.7620   67.4750   66.7940 C.3    87  ARG87       0.1563
     30  C         42.9540   68.3750   66.4520 C.2    87  ARG87       0.2260
     31  O         43.4280   68.4000   65.3050 O.2    87  ARG87      -0.2867
     32  CB        42.1540   65.9860   66.9010 C.3    87  ARG87       0.0307
     33  CG        43.4490   65.7310   67.6730 C.3    87  ARG87       0.0489
     34  CD        43.6770   64.2320   68.0270 C.3    87  ARG87       0.2205
     35  NE        45.1080   64.0190   68.1950 N.pl3  87  ARG87      -0.0865
     36  CZ        45.8140   64.4940   69.2120 C.cat  87  ARG87       0.5346
     37  NH1       45.2150   65.1480   70.2160 N.pl3  87  ARG87       0.1354
     38  NH2       47.1280   64.2960   69.2340 N.pl3  87  ARG87       0.1354
     39  N         49.4440   67.2100   69.5570 N.3    90  SER90      -0.1202
     40  CA        50.8890   67.0950   69.4130 C.3    90  SER90       0.2020
     41  C         51.1720   65.6760   68.8960 C.2    90  SER90       0.2619
     42  O         50.2410   64.8450   68.8100 O.2    90  SER90      -0.2717
     43  CB        51.5950   67.3980   70.7580 C.3    90  SER90       0.2103
     44  OG        51.2460   66.4720   71.8010 O.3    90  SER90      -0.2182
     45  N         52.4110   65.3910   68.5090 N.am   91  CYS91      -0.1955
     46  CA        52.7490   64.0360   68.0730 C.3    91  CYS91       0.1843
     47  C         54.2600   63.8330   68.0850 C.2    91  CYS91       0.2626
     48  O         55.0090   64.7990   68.1380 O.2    91  CYS91      -0.2714
     49  CB        52.1570   63.7200   66.6720 C.3    91  CYS91       0.0997
     50  SG        52.9410   64.6540   65.2820 S.3    91  CYS91      -0.0797
     51  N         54.6950   62.5690   68.0400 N.am   92  GLY92      -0.1954
     52  CA        56.1090   62.2460   67.9270 C.3    92  GLY92       0.1869
     53  C         56.3930   61.7990   66.4950 C.2    92  GLY92       0.2309
     54  O         55.5880   61.0780   65.8820 O.2    92  GLY92      -0.2863
     55  N         48.7000   55.3330   69.2290 N.3   156  ALA156     -0.1245
     56  CA        49.2580   54.3280   70.1280 C.3   156  ALA156      0.1562
     57  C         48.4110   54.1660   71.3830 C.2   156  ALA156      0.2260
     58  O         47.8670   55.1410   71.9230 O.2   156  ALA156     -0.2867
     59  CB        50.6710   54.7640   70.5470 C.3   156  ALA156      0.0290
     60  N         51.9690   54.8670   75.5270 N.3   159  PHE159     -0.1241
     61  CA        52.9930   55.8970   75.3480 C.3   159  PHE159      0.1605
     62  C         54.3400   55.3080   75.7380 C.2   159  PHE159      0.2264
     63  O         55.3290   55.4720   75.0220 O.2   159  PHE159     -0.2867
     64  CB        52.6750   57.0830   76.2510 C.3   159  PHE159      0.0534
     65  CG        53.6610   58.1990   76.1590 C.ar  159  PHE159     -0.0203
     66  CD1       54.7640   58.2360   76.9930 C.ar  159  PHE159     -0.0042
     67  CD2       53.4550   59.2560   75.2750 C.ar  159  PHE159     -0.0042
     68  CE1       55.6700   59.3050   76.9400 C.ar  159  PHE159     -0.0003
     69  CE2       54.3550   60.3240   75.2120 C.ar  159  PHE159     -0.0003
     70  CZ        55.4650   60.3450   76.0380 C.ar  159  PHE159     -0.0000
     71  N         58.1850   51.2870   66.1050 N.3   167  PHE167     -0.1241
     72  CA        58.4030   52.6330   65.5240 C.3   167  PHE167      0.1605
     73  C         59.0620   52.5320   64.1410 C.2   167  PHE167      0.2264
     74  O         58.7700   53.3260   63.2370 O.2   167  PHE167     -0.2867
     75  CB        59.2500   53.5250   66.4340 C.3   167  PHE167      0.0534
     76  CG        58.5860   53.8760   67.7400 C.ar  167  PHE167     -0.0203
     77  CD1       59.2500   53.6680   68.9350 C.ar  167  PHE167     -0.0042
     78  CD2       57.3080   54.4050   67.7580 C.ar  167  PHE167     -0.0042
     79  CE1       58.6610   53.9870   70.1460 C.ar  167  PHE167     -0.0003
     80  CE2       56.6850   54.7280   68.9730 C.ar  167  PHE167     -0.0003
     81  CZ        57.3640   54.5290   70.1640 C.ar  167  PHE167     -0.0000
     82  N         53.1660   60.0460   65.5270 N.3   178  VAL178     -0.1231
     83  CA        52.5920   59.1330   66.5130 C.3   178  VAL178      0.1692
     84  C         51.8620   59.9830   67.5650 C.2   178  VAL178      0.2592
     85  O         52.4530   60.8950   68.1650 O.2   178  VAL178     -0.2718
     86  CB        53.6740   58.3280   67.2060 C.3   178  VAL178      0.0266
     87  CG1       53.0680   57.4060   68.2800 C.3   178  VAL178      0.0020
     88  CG2       54.4940   57.5490   66.1530 C.3   178  VAL178      0.0020
     89  N         50.5890   59.6950   67.7670 N.am  179  GLU179     -0.1966
     90  CA        49.8270   60.3230   68.8330 C.3   179  GLU179      0.1733
     91  C         49.0020   59.2180   69.4580 C.2   179  GLU179      0.2616
     92  O         49.4410   58.0710   69.4390 O.2   179  GLU179     -0.2715
     93  CB        49.0270   61.5910   68.3640 C.3   179  GLU179      0.0429
     94  CG        48.3590   61.4410   66.9860 C.3   179  GLU179      0.1163
     95  CD        47.0600   60.6770   67.0740 C.2   179  GLU179      0.3649
     96  OE1       47.0480   59.4970   66.7340 O.co2 179  GLU179     -0.2457
     97  OE2       46.0370   61.2530   67.5030 O.co2 179  GLU179     -0.2457
     98  N         47.8450   59.5150   70.0550 N.am  180  MET180     -0.1963
     99  CA        47.1790   58.4720   70.8320 C.3   180  MET180      0.1736
    100  C         45.6550   58.5450   70.7260 C.2   180  MET180      0.2616
    101  O         44.9440   58.0530   71.6130 O.2   180  MET180     -0.2715
    102  CB        47.6000   58.5430   72.3170 C.3   180  MET180      0.0427
    103  CG        49.0880   58.2530   72.5660 C.3   180  MET180      0.0599
    104  SD        49.5450   58.3690   74.3060 S.3   180  MET180     -0.1393
    105  CE        48.4460   57.1000   75.0020 C.3   180  MET180      0.0692
    106  N         45.1570   59.1640   69.6540 N.am  181  GLU181     -0.1977
    107  CA        43.7430   59.5630   69.6350 C.3   181  GLU181      0.1602
    108  C         43.0290   59.4870   68.2790 C.2   181  GLU181      0.2287
    109  O         41.8650   59.0560   68.1950 O.2   181  GLU181     -0.2864
    110  CB        43.6130   61.0080   70.1680 C.3   181  GLU181      0.0415
    111  CG        43.8550   61.1400   71.6830 C.3   181  GLU181      0.1163
    112  CD        45.3050   61.4590   72.0450 C.2   181  GLU181      0.3649
    113  OE1       45.6070   61.4830   73.2660 O.co2 181  GLU181     -0.2457
    114  OE2       46.1480   61.6880   71.1330 O.co2 181  GLU181     -0.2457
    115  N         56.0530   67.3420   68.4640 N.3   203  SER203     -0.1202
    116  CA        56.5120   67.8900   69.7440 C.3   203  SER203      0.2020
    117  C         57.7110   67.1340   70.2710 C.2   203  SER203      0.2618
    118  O         58.3500   67.5680   71.2370 O.2   203  SER203     -0.2717
    119  CB        55.3920   67.8410   70.7890 C.3   203  SER203      0.2103
    120  OG        54.9140   66.5060   70.9500 O.3   203  SER203     -0.2182
    121  N         58.0070   66.0050   69.6270 N.am  204  ASP204     -0.1973
    122  CA        59.0140   65.0460   70.0910 C.3   204  ASP204      0.1709
    123  C         59.5550   64.3650   68.8520 C.2   204  ASP204      0.2293
    124  O         58.7920   64.0560   67.9460 O.2   204  ASP204     -0.2864
    125  CB        58.3490   63.9330   70.9400 C.3   204  ASP204      0.1436
    126  CG        57.6710   64.4570   72.1730 C.2   204  ASP204      0.3671
    127  OD1       58.4070   64.7400   73.1560 O.co2 204  ASP204     -0.2456
    128  OD2       56.4120   64.5910   72.1820 O.co2 204  ASP204     -0.2456
    129  N         60.9280   60.8150   68.0980 N.3   206  ILE206     -0.1245
    130  CA        61.0730   59.5220   68.7520 C.3   206  ILE206      0.1561
    131  C         62.4370   58.8900   68.4560 C.2   206  ILE206      0.2260
    132  O         62.9920   58.2140   69.3060 O.2   206  ILE206     -0.2867
    133  CB        59.9000   58.5820   68.4390 C.3   206  ILE206      0.0252
    134  CG1       58.5910   59.1480   69.0670 C.3   206  ILE206      0.0019
    135  CG2       60.2030   57.1990   68.9430 C.3   206  ILE206      0.0019
    136  CD1       57.3070   58.5470   68.5170 C.3   206  ILE206      0.0001
    137  N         54.3200   73.1730   74.3370 N.3   217  ARG217     -0.1245
    138  CA        53.1950   72.3600   73.8400 C.3   217  ARG217      0.1563
    139  C         51.8530   73.0540   74.1380 C.2   217  ARG217      0.2260
    140  O         50.9050   73.0360   73.3290 O.2   217  ARG217     -0.2867
    141  CB        53.2150   70.9800   74.4920 C.3   217  ARG217      0.0307
    142  CG        54.4400   70.1250   74.1540 C.3   217  ARG217      0.0489
    143  CD        54.6900   69.0290   75.2300 C.3   217  ARG217      0.2205
    144  NE        56.0950   68.6090   75.1890 N.pl3 217  ARG217     -0.0865
    145  CZ        56.5280   67.4580   74.6740 C.cat 217  ARG217      0.5346
    146  NH1       55.6580   66.5800   74.1970 N.pl3 217  ARG217      0.1354
    147  NH2       57.8320   67.1670   74.6530 N.pl3 217  ARG217      0.1354
@<TRIPOS>BOND
     1    74    73    2
     2    73    72    1
     3    50    49    1
     4    31    30    2
     5    72    71    1
     6    72    75    1
     7    82    83    1
     8    28    29    1
     9    54    53    2
    10    88    86    1
    11    75    76    1
    12    30    29    1
    13    53    52    1
    14    83    86    1
    15    83    84    1
    16    49    46    1
    17    96    95   ar
    18    29    32    1
    19    32    33    1
    20    94    95    1
    21    94    93    1
    22    95    97   ar
    23    86    87    1
    24    84    89   am
    25    84    85    2
    26    33    34    1
    27    76    78   ar
    28    76    77   ar
    29    78    80   ar
    30    89    90    1
    31    52    51    1
    32   124   123    2
    33    34    35    1
    34    51    47   am
    35    46    47    1
    36    46    45    1
    37    47    48    2
    38   129   130    1
    39    35    36    2
    40   109   108    2
    41   108   107    1
    42    93    90    1
    43   133   130    1
    44   133   135    1
    45   133   134    1
    46   131   130    1
    47   131   132    2
    48   115   116    1
    49    45    41   am
    50   136   134    1
    51    42    41    2
    52    90    91    1
    53   123   122    1
    54    41    40    1
    55    77    79   ar
    56    80    81   ar
    57    36    38    1
    58    36    37    1
    59    55    56    1
    60    40    39    1
    61    40    43    1
    62    92    91    2
    63    91    98   am
    64   121   122    1
    65   121   117   am
    66   107   106    1
    67   107   110    1
    68   106   100   am
    69   116   117    1
    70   116   119    1
    71    98    99    1
    72   122   125    1
    73    56    59    1
    74    56    57    1
    75    79    81   ar
    76   110   111    1
    77   117   118    2
    78   100    99    1
    79   100   101    2
    80    43    44    1
    81   119   120    1
    82    99   102    1
    83   125   126    1
    84   114   112   ar
    85    57    58    2
    86   111   112    1
    87    14    13    1
    88   112   113   ar
    89    11    12    1
    90    11    10    1
    91   126   128   ar
    92   126   127   ar
    93   102   103    1
    94   103   104    1
    95    13    12    2
    96    13    15    1
    97    10     9    1
    98     1     2    1
    99   140   139    2
   100   138   139    1
   101   138   137    1
   102   138   141    1
   103     8     7    2
   104   142   141    1
   105   142   143    1
   106   146   145    1
   107   104   105    1
   108     2     3    1
   109     9     6    1
   110   147   145    1
   111   145   144    2
   112     7     6    1
   113    63    62    2
   114   144   143    1
   115    69    67   ar
   116    69    70   ar
   117    67    65   ar
   118    61    60    1
   119    61    62    1
   120    61    64    1
   121     6     5    1
   122    19    18    2
   123     3     4    2
   124    70    68   ar
   125    65    64    1
   126    65    66   ar
   127    22    21    1
   128    22    23    2
   129    21    20    1
   130    21    24    1
   131    18    20   am
   132    18    17    1
   133    16    17    1
   134    68    66   ar
   135    24    25    1
   136    25    26    1
   137    26    27    1
