@<TRIPOS>MOLECULE
tmp/3of4A01.pdb
 81 77 0 0 0
SMALL
GASTEIGER

@<TRIPOS>ATOM
      1  N         54.3500   66.8720   16.9020 N.3    34  LEU34      -0.1245
      2  CA        53.9710   68.0010   16.0660 C.3    34  LEU34       0.1561
      3  C         52.4450   68.2620   16.1050 C.2    34  LEU34       0.2260
      4  O         51.9580   69.1080   15.3780 O.2    34  LEU34      -0.2867
      5  CB        54.4010   67.7260   14.6150 C.3    34  LEU34       0.0270
      6  CG        55.9240   67.5920   14.3560 C.3    34  LEU34       0.0019
      7  CD1       56.2340   67.2660   12.8860 C.3    34  LEU34       0.0001
      8  CD2       56.7070   68.8510   14.7700 C.3    34  LEU34       0.0001
      9  N         48.8150   69.5850   16.9280 N.3    36  ALA36      -0.1231
     10  CA        48.2010   70.7700   17.4830 C.3    36  ALA36       0.1694
     11  C         47.6720   70.5050   18.9060 C.2    36  ALA36       0.2593
     12  O         47.1240   69.4260   19.2080 O.2    36  ALA36      -0.2718
     13  CB        47.0460   71.2560   16.5720 C.3    36  ALA36       0.0304
     14  N         47.6930   71.5580   19.7170 N.am   37  SER37      -0.1938
     15  CA        47.0820   71.5460   21.0390 C.3    37  SER37       0.2055
     16  C         46.5150   72.9160   21.4090 C.2    37  SER37       0.2644
     17  O         46.9020   73.9320   20.8520 O.2    37  SER37      -0.2714
     18  CB        48.1310   71.1280   22.0860 C.3    37  SER37       0.2130
     19  OG        49.2220   72.0600   22.1350 O.3    37  SER37      -0.2179
     20  N         45.6120   72.9050   22.3580 N.am   38  SER38      -0.1935
     21  CA        45.0030   74.0850   22.9120 C.3    38  SER38       0.2055
     22  C         46.0880   75.0890   23.3360 C.2    38  SER38       0.2643
     23  O         46.9550   74.7620   24.1380 O.2    38  SER38      -0.2714
     24  CB        44.1240   73.6800   24.1150 C.3    38  SER38       0.2130
     25  OG        43.6680   74.8280   24.8160 O.3    38  SER38      -0.2179
     26  N         46.0470   76.2850   22.7360 N.am   39  TYR39      -0.1959
     27  CA        47.0580   77.3530   22.9380 C.3    39  TYR39       0.1771
     28  C         48.5090   76.9790   22.5710 C.2    39  TYR39       0.2620
     29  O         49.4500   77.7500   22.8440 O.2    39  TYR39      -0.2715
     30  CB        46.9800   77.8750   24.4100 C.3    39  TYR39       0.0574
     31  CG        45.7560   78.7340   24.6460 C.ar   39  TYR39      -0.0198
     32  CD1       45.6730   79.9920   24.0680 C.ar   39  TYR39      -0.0009
     33  CD2       44.6720   78.2840   25.3970 C.ar   39  TYR39      -0.0009
     34  CE1       44.5710   80.8070   24.2560 C.ar   39  TYR39       0.0417
     35  CE2       43.5360   79.1060   25.5950 C.ar   39  TYR39       0.0417
     36  CZ        43.5070   80.3630   25.0240 C.ar   39  TYR39       0.1957
     37  OH        42.4270   81.2320   25.1690 O.3    39  TYR39      -0.2866
     38  N         48.7010   75.8220   21.9340 N.am   40  GLY40      -0.1954
     39  CA        50.0270   75.3050   21.6260 C.3    40  GLY40       0.1869
     40  C         50.8170   74.8500   22.8610 C.2    40  GLY40       0.2309
     41  O         52.0020   74.5450   22.7770 O.2    40  GLY40      -0.2863
     42  N         56.8310   75.8130   27.2550 N.3    91  TYR91      -0.1241
     43  CA        56.2740   76.4870   26.1110 C.3    91  TYR91       0.1605
     44  C         56.9720   77.8060   25.8390 C.2    91  TYR91       0.2264
     45  O         57.4550   78.0300   24.7400 O.2    91  TYR91      -0.2867
     46  CB        54.7540   76.7250   26.2380 C.3    91  TYR91       0.0534
     47  CG        54.1670   77.4130   25.0100 C.ar   91  TYR91      -0.0201
     48  CD1       54.1400   76.7740   23.7940 C.ar   91  TYR91      -0.0009
     49  CD2       53.6490   78.7060   25.0780 C.ar   91  TYR91      -0.0009
     50  CE1       53.6300   77.4130   22.6530 C.ar   91  TYR91       0.0417
     51  CE2       53.1300   79.3480   23.9230 C.ar   91  TYR91       0.0417
     52  CZ        53.1300   78.6930   22.7410 C.ar   91  TYR91       0.1957
     53  OH        52.6380   79.2860   21.6070 O.3    91  TYR91      -0.2866
     54  N         60.5290   82.1980   17.7900 N.3    99  ARG99      -0.1245
     55  CA        59.9930   83.4610   17.2910 C.3    99  ARG99       0.1563
     56  C         60.7680   84.6620   17.7520 C.2    99  ARG99       0.2260
     57  O         60.3500   85.7950   17.4970 O.2    99  ARG99      -0.2867
     58  CB        58.5410   83.5630   17.6910 C.3    99  ARG99       0.0307
     59  CG        57.7740   82.4850   17.0470 C.3    99  ARG99       0.0489
     60  CD        56.3470   82.7800   16.9880 C.3    99  ARG99       0.2205
     61  NE        55.6590   81.6210   16.4600 N.pl3  99  ARG99      -0.0865
     62  CZ        54.3810   81.3780   16.6990 C.cat  99  ARG99       0.5346
     63  NH1       53.6930   82.2400   17.4200 N.pl3  99  ARG99       0.1354
     64  NH2       53.7900   80.2950   16.2100 N.pl3  99  ARG99       0.1354
     65  N         43.8570   67.1640   25.2420 N.3   131  GLN131     -0.1245
     66  CA        44.9520   67.3890   24.3220 C.3   131  GLN131      0.1566
     67  C         45.6980   66.1060   23.9870 C.2   131  GLN131      0.2260
     68  O         46.1040   65.8940   22.8500 O.2   131  GLN131     -0.2867
     69  CB        45.9190   68.4160   24.8790 C.3   131  GLN131      0.0367
     70  CG        45.2420   69.7210   25.3870 C.3   131  GLN131      0.0905
     71  CD        44.1630   70.2910   24.4460 C.2   131  GLN131      0.2608
     72  OE1       44.3920   70.5630   23.2230 O.2   131  GLN131     -0.2717
     73  NE2       43.0030   70.4560   24.9930 N.am  131  GLN131     -0.0878
     74  N         44.0280   64.0980   21.2850 N.3   134  ILE134     -0.1245
     75  CA        44.3930   64.5750   19.9060 C.3   134  ILE134      0.1561
     76  C         45.7000   63.9100   19.4370 C.2   134  ILE134      0.2260
     77  O         45.8020   63.4230   18.2820 O.2   134  ILE134     -0.2867
     78  CB        44.5410   66.0980   19.7990 C.3   134  ILE134      0.0252
     79  CG1       43.3500   66.8530   20.4300 C.3   134  ILE134      0.0019
     80  CG2       44.6800   66.5660   18.3070 C.3   134  ILE134      0.0019
     81  CD1       43.6470   68.3620   20.5300 C.3   134  ILE134      0.0001
@<TRIPOS>BOND
     1     7     6    1
     2     6     5    1
     3     6     8    1
     4     5     2    1
     5     4     3    2
     6     2     3    1
     7     2     1    1
     8    64    62    1
     9    61    62    2
    10    61    60    1
    11    13    10    1
    12    62    63    1
    13     9    10    1
    14    60    59    1
    15    59    58    1
    16    55    58    1
    17    55    56    1
    18    55    54    1
    19    10    11    1
    20    57    56    2
    21    77    76    2
    22    80    78    1
    23    11    12    2
    24    11    14   am
    25    76    75    1
    26    14    15    1
    27    78    75    1
    28    78    79    1
    29    75    74    1
    30    79    81    1
    31    17    16    2
    32    15    16    1
    33    15    18    1
    34    16    20   am
    35    53    52    1
    36    39    38    1
    37    39    40    1
    38    38    28   am
    39    18    19    1
    40    20    21    1
    41    28    29    2
    42    28    27    1
    43    50    52   ar
    44    50    48   ar
    45    26    27    1
    46    26    22   am
    47    52    51   ar
    48    41    40    2
    49    68    67    2
    50    21    22    1
    51    21    24    1
    52    27    30    1
    53    72    71    2
    54    22    23    2
    55    48    47   ar
    56    51    49   ar
    57    67    66    1
    58    32    34   ar
    59    32    31   ar
    60    24    25    1
    61    34    36   ar
    62    66    69    1
    63    66    65    1
    64    30    31    1
    65    71    73   am
    66    71    70    1
    67    31    33   ar
    68    45    44    2
    69    69    70    1
    70    47    49   ar
    71    47    46    1
    72    36    37    1
    73    36    35   ar
    74    33    35   ar
    75    44    43    1
    76    43    46    1
    77    43    42    1
