@<TRIPOS>MOLECULE
tmp/3of4A00.pdb
 146 140 0 0 0
SMALL
GASTEIGER

@<TRIPOS>ATOM
      1  N         45.6480   49.9140    9.8390 N.3     9  ARG9       -0.1231
      2  CA        45.7690   49.7720   11.2830 C.3     9  ARG9        0.1694
      3  C         44.6110   49.0240   11.8910 C.2     9  ARG9        0.2592
      4  O         43.5420   48.9410   11.2990 O.2     9  ARG9       -0.2718
      5  CB        45.9030   51.1460   11.9610 C.3     9  ARG9        0.0321
      6  CG        44.6970   52.0760   11.8100 C.3     9  ARG9        0.0489
      7  CD        44.6500   53.1110   12.9250 C.3     9  ARG9        0.2205
      8  NE        44.6020   52.4260   14.2070 N.pl3   9  ARG9       -0.0865
      9  CZ        43.5480   51.7780   14.7050 C.cat   9  ARG9        0.5346
     10  NH1       42.3660   51.7610   14.0900 N.pl3   9  ARG9        0.1354
     11  NH2       43.6690   51.1600   15.8730 N.pl3   9  ARG9        0.1354
     12  N         44.8360   48.4980   13.0930 N.am   10  TYR10      -0.1962
     13  CA        43.7530   47.8640   13.8720 C.3    10  TYR10       0.1771
     14  C         44.2380   47.8380   15.3070 C.2    10  TYR10       0.2619
     15  O         45.4150   48.1490   15.5950 O.2    10  TYR10      -0.2715
     16  CB        43.3800   46.4600   13.3370 C.3    10  TYR10       0.0574
     17  CG        44.3160   45.3310   13.7290 C.ar   10  TYR10      -0.0198
     18  CD1       45.6010   45.2890   13.2520 C.ar   10  TYR10      -0.0009
     19  CD2       43.9060   44.3080   14.5910 C.ar   10  TYR10      -0.0009
     20  CE1       46.4600   44.2660   13.5850 C.ar   10  TYR10       0.0417
     21  CE2       44.7800   43.2690   14.9510 C.ar   10  TYR10       0.0417
     22  CZ        46.0520   43.2600   14.4440 C.ar   10  TYR10       0.1957
     23  OH        46.9550   42.2440   14.7450 O.3    10  TYR10      -0.2866
     24  N         43.3200   47.5690   16.2160 N.am   11  ALA11      -0.1977
     25  CA        43.6460   47.4850   17.6400 C.3    11  ALA11       0.1597
     26  C         44.2290   46.0940   17.8770 C.2    11  ALA11       0.2287
     27  O         43.5190   45.1510   18.1460 O.2    11  ALA11      -0.2864
     28  CB        42.3880   47.6940   18.4950 C.3    11  ALA11       0.0319
     29  N         45.3550   42.1260   30.5810 N.3    65  GLN65      -0.1245
     30  CA        45.6220   42.2620   29.1620 C.3    65  GLN65       0.1566
     31  C         47.1270   42.0980   28.9650 C.2    65  GLN65       0.2260
     32  O         47.9000   43.0230   29.1810 O.2    65  GLN65      -0.2867
     33  CB        45.1050   43.6140   28.6620 C.3    65  GLN65       0.0367
     34  CG        43.6060   43.6890   28.6520 C.3    65  GLN65       0.0905
     35  CD        43.0950   45.0180   28.1370 C.2    65  GLN65       0.2608
     36  OE1       42.8010   45.1390   26.9640 O.2    65  GLN65      -0.2717
     37  NE2       42.9990   46.0170   29.0080 N.am   65  GLN65      -0.0878
     38  N         48.9490   41.9590   26.3490 N.3    67  LYS67      -0.1245
     39  CA        49.5880   42.7950   25.2940 C.3    67  LYS67       0.1561
     40  C         50.4880   43.9360   25.8430 C.2    67  LYS67       0.2260
     41  O         51.4370   44.3600   25.1870 O.2    67  LYS67      -0.2867
     42  CB        48.5310   43.3610   24.3200 C.3    67  LYS67       0.0271
     43  CG        47.4080   44.1260   24.9830 C.3    67  LYS67       0.0035
     44  CD        46.4810   44.8960   24.0090 C.3    67  LYS67       0.0206
     45  CE        45.3260   44.0440   23.4480 C.3    67  LYS67       0.1093
     46  NZ        44.4800   43.4590   24.5240 N.3    67  LYS67      -0.1314
     47  N         44.4860   63.1190   23.8150 N.3   133  TYR133     -0.1241
     48  CA        43.6560   62.3310   22.9110 C.3   133  TYR133      0.1605
     49  C         43.8070   62.7980   21.4830 C.2   133  TYR133      0.2264
     50  O         43.8370   61.9880   20.5710 O.2   133  TYR133     -0.2867
     51  CB        42.1720   62.3640   23.3710 C.3   133  TYR133      0.0534
     52  CG        41.8830   61.3310   24.4030 C.ar  133  TYR133     -0.0201
     53  CD1       41.5640   60.0300   24.0300 C.ar  133  TYR133     -0.0009
     54  CD2       41.9180   61.6220   25.7720 C.ar  133  TYR133     -0.0009
     55  CE1       41.3350   59.0500   24.9770 C.ar  133  TYR133      0.0417
     56  CE2       41.6670   60.6450   26.7320 C.ar  133  TYR133      0.0417
     57  CZ        41.3900   59.3500   26.3220 C.ar  133  TYR133      0.1957
     58  OH        41.0980   58.3480   27.2020 O.3   133  TYR133     -0.2866
     59  N         46.9030   61.0860   20.4040 N.3   136  LEU136     -0.1245
     60  CA        46.6120   59.6800   20.0560 C.3   136  LEU136      0.1561
     61  C         46.1210   59.5170   18.6010 C.2   136  LEU136      0.2260
     62  O         46.5120   58.5680   17.8900 O.2   136  LEU136     -0.2867
     63  CB        45.5740   59.0820   20.9960 C.3   136  LEU136      0.0270
     64  CG        45.1440   57.6280   20.7720 C.3   136  LEU136      0.0019
     65  CD1       46.3680   56.6960   20.8010 C.3   136  LEU136      0.0001
     66  CD2       44.0990   57.2570   21.8700 C.3   136  LEU136      0.0001
     67  N         48.1940   57.0240   16.0890 N.3   140  LEU140     -0.1245
     68  CA        47.6040   55.8580   15.4260 C.3   140  LEU140      0.1561
     69  C         47.8880   55.8560   13.9090 C.2   140  LEU140      0.2260
     70  O         48.2820   54.8260   13.3520 O.2   140  LEU140     -0.2867
     71  CB        46.1000   55.7570   15.7260 C.3   140  LEU140      0.0270
     72  CG        45.7090   55.4450   17.2000 C.3   140  LEU140      0.0019
     73  CD1       44.1970   55.5440   17.3130 C.3   140  LEU140      0.0001
     74  CD2       46.2430   54.0640   17.7010 C.3   140  LEU140      0.0001
     75  N         47.9690   49.2380   20.0090 N.3   151  CYS151     -0.1221
     76  CA        46.6230   49.1400   20.5180 C.3   151  CYS151      0.1794
     77  C         46.4810   50.2040   21.5840 C.2   151  CYS151      0.2443
     78  O         47.2300   50.2150   22.5370 O.2   151  CYS151     -0.2733
     79  CB        46.3420   47.7660   21.1070 C.3   151  CYS151      0.0970
     80  SG        44.6500   47.5020   21.5410 S.3   151  CYS151     -0.0800
     81  N         45.5960   51.1580   21.3840 N.am  152  PRO152     -0.2729
     82  CA        45.3160   52.1240   22.4770 C.3   152  PRO152      0.1401
     83  C         44.6200   51.4030   23.6120 C.2   152  PRO152      0.2269
     84  O         43.8710   50.4870   23.3360 O.2   152  PRO152     -0.2865
     85  CB        44.3180   53.0940   21.8510 C.3   152  PRO152      0.0296
     86  CG        44.1250   52.6590   20.4520 C.3   152  PRO152      0.0237
     87  CD        44.6670   51.2910   20.2650 C.3   152  PRO152      0.0939
     88  N         42.6030   52.1410   27.3810 N.3   153  GLU153     -0.1231
     89  CA        41.9690   52.8330   28.5080 C.3   153  GLU153      0.1699
     90  C         41.6230   51.8320   29.5980 C.2   153  GLU153      0.2593
     91  O         41.3710   52.2320   30.7140 O.2   153  GLU153     -0.2718
     92  CB        40.6360   53.4920   28.0680 C.3   153  GLU153      0.0402
     93  CG        40.7110   54.9420   27.5240 C.3   153  GLU153      0.1161
     94  CD        39.3470   55.4620   26.9060 C.2   153  GLU153      0.3649
     95  OE1       38.4130   54.6010   26.7750 O.co2 153  GLU153     -0.2457
     96  OE2       39.2360   56.7130   26.5840 O.co2 153  GLU153     -0.2457
     97  N         41.5840   50.5450   29.2840 N.am  154  GLY154     -0.1942
     98  CA        41.2470   49.5350   30.2890 C.3   154  GLY154      0.2014
     99  C         42.4380   49.1960   31.1670 C.2   154  GLY154      0.2638
    100  O         42.9840   48.0550   31.1320 O.2   154  GLY154     -0.2714
    101  N         42.8600   50.1960   31.9200 N.am  155  ILE155     -0.1977
    102  CA        43.9700   50.0780   32.8300 C.3   155  ILE155      0.1596
    103  C         43.5280   50.7090   34.1540 C.2   155  ILE155      0.2287
    104  O         42.6200   51.5650   34.1640 O.2   155  ILE155     -0.2864
    105  CB        45.2330   50.7930   32.2700 C.3   155  ILE155      0.0276
    106  CG1       44.9880   52.2700   32.0420 C.3   155  ILE155      0.0022
    107  CG2       45.7280   50.1400   30.9410 C.3   155  ILE155      0.0022
    108  CD1       46.2300   53.0190   31.5250 C.3   155  ILE155      0.0001
    109  N         46.3080   57.0430   28.9520 N.3   175  PHE175     -0.1241
    110  CA        46.1110   55.7440   28.3180 C.3   175  PHE175      0.1605
    111  C         47.4770   55.2050   27.9290 C.2   175  PHE175      0.2264
    112  O         48.4490   55.9580   27.7830 O.2   175  PHE175     -0.2867
    113  CB        45.1800   55.8370   27.0790 C.3   175  PHE175      0.0534
    114  CG        45.4740   57.0050   26.1750 C.ar  175  PHE175     -0.0203
    115  CD1       46.4560   56.9290   25.2280 C.ar  175  PHE175     -0.0042
    116  CD2       44.7580   58.2020   26.2970 C.ar  175  PHE175     -0.0042
    117  CE1       46.7410   58.0380   24.4030 C.ar  175  PHE175     -0.0003
    118  CE2       45.0310   59.2920   25.4750 C.ar  175  PHE175     -0.0003
    119  CZ        46.0270   59.2270   24.5820 C.ar  175  PHE175     -0.0000
    120  N         36.5770   45.5690    9.5620 N.3   193  LYS193     -0.1231
    121  CA        36.5860   46.7380   10.3870 C.3   193  LYS193      0.1693
    122  C         35.1740   47.3220   10.3960 C.2   193  LYS193      0.2592
    123  O         34.5040   47.3680    9.3660 O.2   193  LYS193     -0.2718
    124  CB        37.7040   47.6950    9.8590 C.3   193  LYS193      0.0285
    125  CG        38.0150   48.8670   10.7160 C.3   193  LYS193      0.0035
    126  CD        39.1990   49.7340   10.1950 C.3   193  LYS193      0.0206
    127  CE        40.5520   49.0020   10.2270 C.3   193  LYS193      0.1093
    128  NZ        40.8520   48.3330   11.5230 N.3   193  LYS193     -0.1314
    129  N         34.6910   47.6740   11.5910 N.am  194  VAL194     -0.1966
    130  CA        33.3570   48.2290   11.8280 C.3   194  VAL194      0.1727
    131  C         33.4030   49.7190   12.1860 C.2   194  VAL194      0.2616
    132  O         34.0280   50.1270   13.1790 O.2   194  VAL194     -0.2715
    133  CB        32.6870   47.5000   13.0020 C.3   194  VAL194      0.0290
    134  CG1       31.2630   48.0030   13.2240 C.3   194  VAL194      0.0023
    135  CG2       32.6810   45.9910   12.7390 C.3   194  VAL194      0.0023
    136  N         32.7280   50.5280   11.3740 N.am  195  ARG195     -0.1977
    137  CA        32.5830   51.9470   11.6130 C.3   195  ARG195      0.1597
    138  C         31.2070   52.3560   11.1870 C.2   195  ARG195      0.2287
    139  O         30.6690   51.8080   10.2140 O.2   195  ARG195     -0.2864
    140  CB        33.5950   52.7530   10.7770 C.3   195  ARG195      0.0334
    141  CG        35.0250   52.4830   11.1270 C.3   195  ARG195      0.0492
    142  CD        35.4210   52.9620   12.5020 C.3   195  ARG195      0.2205
    143  NE        36.8710   52.9040   12.6750 N.pl3 195  ARG195     -0.0865
    144  CZ        37.5500   51.8440   13.1150 C.cat 195  ARG195      0.5346
    145  NH1       36.9300   50.7310   13.4930 N.pl3 195  ARG195      0.1354
    146  NH2       38.8710   51.9110   13.2200 N.pl3 195  ARG195      0.1354
@<TRIPOS>BOND
     1   123   122    2
     2   120   121    1
     3     1     2    1
     4   124   121    1
     5   124   125    1
     6   126   127    1
     7   126   125    1
     8   139   138    2
     9   127   128    1
    10   121   122    1
    11   122   129   am
    12   140   141    1
    13   140   137    1
    14   141   142    1
    15   138   137    1
    16     2     3    1
    17     2     5    1
    18     4     3    2
    19   136   137    1
    20   136   131   am
    21   129   130    1
    22     6     5    1
    23     6     7    1
    24   130   131    1
    25   130   133    1
    26     3    12   am
    27   131   132    2
    28   142   143    1
    29   143   144    2
    30   135   133    1
    31     7     8    1
    32   133   134    1
    33    12    13    1
    34   144   146    1
    35   144   145    1
    36    18    20   ar
    37    18    17   ar
    38    16    17    1
    39    16    13    1
    40    70    69    2
    41    20    22   ar
    42    17    19   ar
    43    13    14    1
    44    69    68    1
    45    10     9    1
    46     8     9    2
    47    22    23    1
    48    22    21   ar
    49    19    21   ar
    50     9    11    1
    51    14    15    2
    52    14    24   am
    53    68    71    1
    54    68    67    1
    55    71    72    1
    56    24    25    1
    57    72    73    1
    58    72    74    1
    59    25    26    1
    60    25    28    1
    61    26    27    2
    62    62    61    2
    63    61    60    1
    64    75    76    1
    65    60    59    1
    66    60    63    1
    67    87    86    1
    68    87    81    1
    69    86    85    1
    70    76    79    1
    71    76    77    1
    72    50    49    2
    73    64    65    1
    74    64    63    1
    75    64    66    1
    76    79    80    1
    77    81    77   am
    78    81    82    1
    79    49    48    1
    80    77    78    2
    81    85    82    1
    82    82    83    1
    83    48    51    1
    84    48    47    1
    85    84    83    2
    86    51    52    1
    87    45    44    1
    88    45    46    1
    89    44    43    1
    90    53    52   ar
    91    53    55   ar
    92    42    43    1
    93    42    39    1
    94   117   119   ar
    95   117   115   ar
    96    52    54   ar
    97   119   118   ar
    98    55    57   ar
    99    41    40    2
   100   115   114   ar
   101    39    40    1
   102    39    38    1
   103   118   116   ar
   104    54    56   ar
   105   114   116   ar
   106   114   113    1
   107    57    56   ar
   108    57    58    1
   109    96    94   ar
   110    95    94   ar
   111    94    93    1
   112    36    35    2
   113   113   110    1
   114    88    89    1
   115    93    92    1
   116   112   111    2
   117   111   110    1
   118    92    89    1
   119    35    34    1
   120    35    37   am
   121   110   109    1
   122    89    90    1
   123    34    33    1
   124    33    30    1
   125    31    30    1
   126    31    32    2
   127    30    29    1
   128    97    90   am
   129    97    98    1
   130    90    91    2
   131    98    99    1
   132   107   105    1
   133   100    99    2
   134    99   101   am
   135   108   106    1
   136   101   102    1
   137   106   105    1
   138   105   102    1
   139   102   103    1
   140   103   104    2
