@<TRIPOS>MOLECULE
tmp/3of4C00.pdb
 112 105 0 0 0
SMALL
GASTEIGER

@<TRIPOS>ATOM
      1  N         47.6340   31.8380   73.5290 N.3    11  ALA11      -0.1245
      2  CA        46.7330   30.6870   73.4460 C.3    11  ALA11       0.1562
      3  C         45.5830   30.9070   74.4300 C.2    11  ALA11       0.2260
      4  O         45.6600   30.5380   75.5940 O.2    11  ALA11      -0.2867
      5  CB        47.5180   29.3660   73.7400 C.3    11  ALA11       0.0290
      6  N         42.7200   30.9250   76.9480 N.3    13  ALA13      -0.1245
      7  CA        42.2120   29.8680   77.8130 C.3    13  ALA13       0.1562
      8  C         40.7370   30.0740   78.1040 C.2    13  ALA13       0.2260
      9  O         40.0310   29.1110   78.3170 O.2    13  ALA13      -0.2867
     10  CB        43.0030   29.8420   79.1550 C.3    13  ALA13       0.0290
     11  N         38.3250   16.3090   74.8000 N.3    63  PHE63      -0.1241
     12  CA        38.9000   16.1330   76.1340 C.3    63  PHE63       0.1605
     13  C         38.3130   17.1220   77.1330 C.2    63  PHE63       0.2264
     14  O         38.9900   17.5890   78.0040 O.2    63  PHE63      -0.2867
     15  CB        40.4480   16.1750   76.0840 C.3    63  PHE63       0.0534
     16  CG        41.0260   15.1130   75.1830 C.ar   63  PHE63      -0.0203
     17  CD1       41.0970   15.3120   73.8240 C.ar   63  PHE63      -0.0042
     18  CD2       41.4050   13.8780   75.6860 C.ar   63  PHE63      -0.0042
     19  CE1       41.5470   14.3040   72.9580 C.ar   63  PHE63      -0.0003
     20  CE2       41.8970   12.8590   74.8210 C.ar   63  PHE63      -0.0003
     21  CZ        41.9440   13.0870   73.4480 C.ar   63  PHE63      -0.0000
     22  N         37.2740   20.1710   76.8170 N.3    65  GLN65      -0.1245
     23  CA        37.6770   21.5790   76.6690 C.3    65  GLN65       0.1566
     24  C         36.5140   22.3960   76.1630 C.2    65  GLN65       0.2260
     25  O         36.1620   22.3240   74.9750 O.2    65  GLN65      -0.2867
     26  CB        38.8660   21.6740   75.7140 C.3    65  GLN65       0.0367
     27  CG        40.1040   20.9180   76.1920 C.3    65  GLN65       0.0905
     28  CD        41.2690   21.0850   75.2360 C.2    65  GLN65       0.2608
     29  OE1       41.9090   22.1330   75.2360 O.2    65  GLN65      -0.2717
     30  NE2       41.4850   20.1130   74.3500 N.am   65  GLN65      -0.0878
     31  N         36.1310   25.5580   75.6810 N.3    67  LYS67      -0.1245
     32  CA        36.4450   26.6810   74.7670 C.3    67  LYS67       0.1561
     33  C         35.9980   26.4110   73.2900 C.2    67  LYS67       0.2260
     34  O         35.7540   27.3440   72.5190 O.2    67  LYS67      -0.2867
     35  CB        37.9380   27.0160   74.8830 C.3    67  LYS67       0.0271
     36  CG        38.8710   25.9110   74.3950 C.3    67  LYS67       0.0035
     37  CD        40.3640   26.3750   74.3500 C.3    67  LYS67       0.0206
     38  CE        41.0300   26.1690   75.6670 C.3    67  LYS67       0.1093
     39  NZ        42.4460   26.5970   75.6070 N.3    67  LYS67      -0.1314
     40  N         49.1660   23.1640   58.5830 N.3   133  TYR133     -0.1241
     41  CA        49.9610   23.7550   59.6740 C.3   133  TYR133      0.1605
     42  C         50.6950   25.0450   59.2310 C.2   133  TYR133      0.2264
     43  O         50.8090   25.9810   60.0190 O.2   133  TYR133     -0.2867
     44  CB        50.9130   22.7510   60.3060 C.3   133  TYR133      0.0534
     45  CG        50.2900   21.8570   61.3330 C.ar  133  TYR133     -0.0201
     46  CD1       50.1850   22.2470   62.6640 C.ar  133  TYR133     -0.0009
     47  CD2       49.7720   20.6140   60.9780 C.ar  133  TYR133     -0.0009
     48  CE1       49.5590   21.4230   63.6070 C.ar  133  TYR133      0.0417
     49  CE2       49.1560   19.8280   61.8980 C.ar  133  TYR133      0.0417
     50  CZ        49.0600   20.2290   63.2260 C.ar  133  TYR133      0.1957
     51  OH        48.4610   19.3850   64.1580 O.3   133  TYR133     -0.2866
     52  N         48.1150   27.5690   59.5690 N.3   136  LEU136     -0.1245
     53  CA        47.9560   27.9430   60.9850 C.3   136  LEU136      0.1561
     54  C         48.9400   29.0500   61.3710 C.2   136  LEU136      0.2260
     55  O         48.5850   29.9950   62.0770 O.2   136  LEU136     -0.2867
     56  CB        48.1250   26.7630   61.9090 C.3   136  LEU136      0.0270
     57  CG        48.0070   27.0460   63.4230 C.3   136  LEU136      0.0019
     58  CD1       46.6160   27.6740   63.8040 C.3   136  LEU136      0.0001
     59  CD2       48.2420   25.7000   64.1890 C.3   136  LEU136      0.0001
     60  N         47.4220   32.5550   62.9440 N.3   140  LEU140     -0.1245
     61  CA        47.7110   33.1160   64.2570 C.3   140  LEU140      0.1561
     62  C         48.1690   34.5710   64.1880 C.2   140  LEU140      0.2260
     63  O         47.8080   35.4150   65.0420 O.2   140  LEU140     -0.2867
     64  CB        48.7840   32.3020   64.9580 C.3   140  LEU140      0.0270
     65  CG        48.4040   30.8700   65.3200 C.3   140  LEU140      0.0019
     66  CD1       49.6840   30.1280   65.7440 C.3   140  LEU140      0.0001
     67  CD2       47.2950   30.8870   66.4160 C.3   140  LEU140      0.0001
     68  N         42.8150   30.1930   69.8790 N.3   151  CYS151     -0.1221
     69  CA        43.6080   29.1520   70.5340 C.3   151  CYS151      0.1794
     70  C         43.6780   27.9240   69.6290 C.2   151  CYS151      0.2443
     71  O         42.6590   27.3470   69.3360 O.2   151  CYS151     -0.2733
     72  CB        43.0110   28.7270   71.8680 C.3   151  CYS151      0.0970
     73  SG        44.0990   27.5390   72.8170 S.3   151  CYS151     -0.0800
     74  N         44.8690   27.5530   69.1400 N.am  152  PRO152     -0.2729
     75  CA        44.8850   26.3120   68.3310 C.3   152  PRO152      0.1401
     76  C         44.6390   25.1110   69.2470 C.2   152  PRO152      0.2269
     77  O         44.9150   25.1830   70.4750 O.2   152  PRO152     -0.2865
     78  CB        46.2760   26.2660   67.7550 C.3   152  PRO152      0.0296
     79  CG        46.9940   27.4780   68.2470 C.3   152  PRO152      0.0237
     80  CD        46.2080   28.1150   69.3280 C.3   152  PRO152      0.0939
     81  N         44.9170   20.8430   69.1740 N.3   153  GLU153     -0.1231
     82  CA        45.1850   19.5000   68.7070 C.3   153  GLU153      0.1699
     83  C         44.5420   18.4750   69.6110 C.2   153  GLU153      0.2593
     84  O         44.4230   17.2680   69.2400 O.2   153  GLU153     -0.2718
     85  CB        46.7130   19.2210   68.6940 C.3   153  GLU153      0.0402
     86  CG        47.4060   19.6560   67.4500 C.3   153  GLU153      0.1161
     87  CD        48.9540   19.5900   67.5380 C.2   153  GLU153      0.3649
     88  OE1       49.4740   19.4090   68.6690 O.co2 153  GLU153     -0.2457
     89  OE2       49.6200   19.6610   66.4480 O.co2 153  GLU153     -0.2457
     90  N         44.1300   18.9060   70.8060 N.am  154  GLY154     -0.1942
     91  CA        43.4690   17.9970   71.7490 C.3   154  GLY154      0.2014
     92  C         42.0220   17.6870   71.4060 C.2   154  GLY154      0.2638
     93  O         41.1130   18.0700   72.1390 O.2   154  GLY154     -0.2714
     94  N         41.8230   17.0310   70.2740 N.am  155  ILE155     -0.1977
     95  CA        40.4920   16.6720   69.7760 C.3   155  ILE155      0.1596
     96  C         40.5200   15.2570   69.2170 C.2   155  ILE155      0.2287
     97  O         41.5900   14.7370   68.8420 O.2   155  ILE155     -0.2864
     98  CB        40.0470   17.6740   68.6810 C.3   155  ILE155      0.0276
     99  CG1       40.9670   17.6000   67.4570 C.3   155  ILE155      0.0022
    100  CG2       40.0790   19.1030   69.2560 C.3   155  ILE155      0.0022
    101  CD1       40.5810   18.6020   66.3260 C.3   155  ILE155      0.0001
    102  N         43.0980   20.3030   62.9920 N.3   175  PHE175     -0.1241
    103  CA        43.0870   20.9270   64.3030 C.3   175  PHE175      0.1605
    104  C         41.9560   21.9400   64.3080 C.2   175  PHE175      0.2264
    105  O         41.3680   22.2610   63.2540 O.2   175  PHE175     -0.2867
    106  CB        44.4250   21.5850   64.6760 C.3   175  PHE175      0.0534
    107  CG        45.0230   22.3920   63.5640 C.ar  175  PHE175     -0.0203
    108  CD1       44.5670   23.6510   63.3040 C.ar  175  PHE175     -0.0042
    109  CD2       45.9590   21.8440   62.7140 C.ar  175  PHE175     -0.0042
    110  CE1       45.0650   24.3820   62.2480 C.ar  175  PHE175     -0.0003
    111  CE2       46.5090   22.5800   61.6560 C.ar  175  PHE175     -0.0003
    112  CZ        46.0580   23.8460   61.4090 C.ar  175  PHE175     -0.0000
@<TRIPOS>BOND
     1    40    41    1
     2    42    41    1
     3    42    43    2
     4    52    53    1
     5    41    44    1
     6    44    45    1
     7    47    45   ar
     8    47    49   ar
     9    53    54    1
    10    53    56    1
    11    45    46   ar
    12    54    55    2
    13   112   111   ar
    14   112   110   ar
    15   111   109   ar
    16    49    50   ar
    17    56    57    1
    18   110   108   ar
    19    46    48   ar
    20   109   107   ar
    21    60    61    1
    22   102   103    1
    23    50    48   ar
    24    50    51    1
    25   105   104    2
    26   108   107   ar
    27    57    58    1
    28    57    59    1
    29   107   106    1
    30    62    61    1
    31    62    63    2
    32    61    64    1
    33   103   104    1
    34   103   106    1
    35    64    65    1
    36    65    66    1
    37    65    67    1
    38   101    99    1
    39    89    87   ar
    40    86    87    1
    41    86    85    1
    42    99    98    1
    43    87    88   ar
    44    78    79    1
    45    78    75    1
    46    79    80    1
    47    75    74    1
    48    75    76    1
    49    98   100    1
    50    98    95    1
    51    85    82    1
    52    82    81    1
    53    82    83    1
    54    97    96    2
    55    74    80    1
    56    74    70   am
    57    96    95    1
    58    84    83    2
    59    76    77    2
    60    71    70    2
    61    83    90   am
    62    70    69    1
    63    95    94    1
    64    68    69    1
    65    94    92   am
    66    69    72    1
    67    90    91    1
    68    92    91    1
    69    92    93    2
    70    72    73    1
    71    34    33    2
    72    19    21   ar
    73    19    17   ar
    74    33    32    1
    75     2     1    1
    76     2     5    1
    77     2     3    1
    78    21    20   ar
    79    17    16   ar
    80    30    28   am
    81    37    36    1
    82    37    38    1
    83    36    35    1
    84     3     4    2
    85    32    35    1
    86    32    31    1
    87    11    12    1
    88    20    18   ar
    89    25    24    2
    90    16    18   ar
    91    16    15    1
    92    28    29    2
    93    28    27    1
    94    39    38    1
    95    26    27    1
    96    26    23    1
    97    15    12    1
    98    12    13    1
    99    24    23    1
   100    23    22    1
   101     6     7    1
   102    13    14    2
   103     7     8    1
   104     7    10    1
   105     8     9    2
