@<TRIPOS>MOLECULE
tmp/3of9A00.pdb
 161 154 0 0 0
SMALL
GASTEIGER

@<TRIPOS>ATOM
      1  N         16.0190   -8.7840   -3.7180 N.3    20  GLN20      -0.1245
      2  CA        15.7870  -10.1770   -4.1100 C.3    20  GLN20       0.1566
      3  C         14.3070  -10.5090   -4.2800 C.2    20  GLN20       0.2260
      4  O         13.9670  -11.5280   -4.8600 O.2    20  GLN20      -0.2867
      5  CB        16.4250  -11.1280   -3.0980 C.3    20  GLN20       0.0367
      6  CG        15.7340  -11.1230   -1.7270 C.3    20  GLN20       0.0905
      7  CD        16.4800  -11.9610   -0.6930 C.2    20  GLN20       0.2608
      8  OE1       17.5070  -11.5430   -0.1740 O.2    20  GLN20      -0.2717
      9  NE2       15.9500  -13.1380   -0.3800 N.am   20  GLN20      -0.0878
     10  N         14.0650  -16.8030   -2.4470 N.3    24  GLY24      -0.1225
     11  CA        15.0850  -17.0370   -1.4360 C.3    24  GLY24       0.1811
     12  C         16.5020  -17.0850   -1.9750 C.2    24  GLY24       0.2280
     13  O         17.2010  -18.0880   -1.8130 O.2    24  GLY24      -0.2866
     14  N         19.1460  -14.8190   -1.4140 N.3    26  CYS26      -0.1221
     15  CA        20.1040  -13.9380   -0.7560 C.3    26  CYS26       0.1808
     16  C         21.5300  -14.3970   -1.0620 C.2    26  CYS26       0.2601
     17  O         22.4150  -13.5740   -1.3050 O.2    26  CYS26      -0.2717
     18  CB        19.8440  -13.8650    0.7620 C.3    26  CYS26       0.0970
     19  SG        20.1260  -15.4370    1.6090 S.3    26  CYS26      -0.0800
     20  N         21.7430  -15.7130   -1.0880 N.am   27  TRP27      -0.1976
     21  CA        23.0690  -16.2750   -1.3430 C.3    27  TRP27       0.1640
     22  C         23.6270  -15.7930   -2.6800 C.2    27  TRP27       0.2290
     23  O         24.8370  -15.5580   -2.8060 O.2    27  TRP27      -0.2864
     24  CB        23.0050  -17.8150   -1.3170 C.3    27  TRP27       0.0576
     25  CG        22.0040  -18.3670   -2.2930 C.ar   27  TRP27       0.0006
     26  CD1       20.6720  -18.5640   -2.0760 C.ar   27  TRP27       0.0946
     27  CD2       22.2460  -18.7560   -3.6540 C.ar   27  TRP27       0.0152
     28  NE1       20.0760  -19.0650   -3.1980 N.ar   27  TRP27      -0.2442
     29  CE2       21.0190  -19.1940   -4.1850 C.ar   27  TRP27       0.0810
     30  CE3       23.3860  -18.7920   -4.4640 C.ar   27  TRP27       0.0012
     31  CZ2       20.8930  -19.6520   -5.4910 C.ar   27  TRP27       0.0191
     32  CZ3       23.2580  -19.2580   -5.7570 C.ar   27  TRP27       0.0001
     33  CH2       22.0210  -19.6730   -6.2610 C.ar   27  TRP27       0.0015
     34  N         25.0520  -27.5950   -6.0460 N.3    62  GLY62      -0.1225
     35  CA        24.3950  -27.7460   -4.7630 C.3    62  GLY62       0.1811
     36  C         23.3520  -26.7030   -4.3990 C.2    62  GLY62       0.2280
     37  O         22.6410  -26.8570   -3.4110 O.2    62  GLY62      -0.2866
     38  N         19.8890  -24.3160   -4.5470 N.3    64  GLU64      -0.1245
     39  CA        18.5010  -24.7000   -4.7130 C.3    64  GLU64       0.1567
     40  C         17.6530  -23.5340   -5.1770 C.2    64  GLU64       0.2260
     41  O         16.5250  -23.3930   -4.7480 O.2    64  GLU64      -0.2867
     42  CB        17.9560  -25.2800   -3.4020 C.3    64  GLU64       0.0388
     43  CG        18.7780  -26.4880   -2.9530 C.3    64  GLU64       0.1160
     44  CD        18.3180  -27.0740   -1.6400 C.2    64  GLU64       0.3649
     45  OE1       18.3950  -28.3050   -1.4930 O.co2  64  GLU64      -0.2457
     46  OE2       17.8850  -26.3060   -0.7650 O.co2  64  GLU64      -0.2457
     47  N         14.9320  -21.4570   -3.3080 N.3    67  ASN67      -0.1225
     48  CA        14.7200  -22.1390   -2.0380 C.3    67  ASN67       0.1785
     49  C         15.8960  -22.0040   -1.0870 C.2    67  ASN67       0.2598
     50  O         15.8050  -22.3860    0.0860 O.2    67  ASN67      -0.2718
     51  CB        14.4300  -23.6300   -2.2790 C.3    67  ASN67       0.1169
     52  CG        13.2020  -23.8410   -3.1240 C.2    67  ASN67       0.2627
     53  OD1       13.2710  -24.3980   -4.2240 O.2    67  ASN67      -0.2716
     54  ND2       12.0690  -23.3710   -2.6320 N.am   67  ASN67      -0.0877
     55  N         17.0070  -21.4850   -1.6030 N.am   68  GLY68      -0.1942
     56  CA        18.1980  -21.2650   -0.7960 C.3    68  GLY68       0.2014
     57  C         19.4720  -21.7670   -1.4630 C.2    68  GLY68       0.2639
     58  O         19.4240  -22.4240   -2.5010 O.2    68  GLY68      -0.2714
     59  N         20.6150  -21.4680   -0.8480 N.am   69  GLY69      -0.1939
     60  CA        21.9070  -21.8470   -1.4000 C.3    69  GLY69       0.2014
     61  C         23.0730  -21.2690   -0.6210 C.2    69  GLY69       0.2639
     62  O         22.8970  -20.6170    0.4170 O.2    69  GLY69      -0.2714
     63  N         24.2780  -21.5000   -1.1340 N.am   70  LEU70      -0.1963
     64  CA        25.4970  -21.0990   -0.4560 C.3    70  LEU70       0.1728
     65  C         26.3810  -20.2500   -1.3810 C.2    70  LEU70       0.2616
     66  O         26.5160  -20.5480   -2.5610 O.2    70  LEU70      -0.2715
     67  CB        26.2840  -22.3380   -0.0350 C.3    70  LEU70       0.0311
     68  CG        25.6500  -23.2350    1.0180 C.3    70  LEU70       0.0022
     69  CD1       26.6700  -24.2860    1.4270 C.3    70  LEU70       0.0001
     70  CD2       25.1820  -22.4270    2.2270 C.3    70  LEU70       0.0001
     71  N         27.0050  -19.2140   -0.8340 N.am   71  MET71      -0.1977
     72  CA        27.8640  -18.3730   -1.6420 C.3    71  MET71       0.1605
     73  C         29.0080  -19.1980   -2.2330 C.2    71  MET71       0.2287
     74  O         29.3630  -19.0330   -3.3950 O.2    71  MET71      -0.2864
     75  CB        28.3960  -17.1910   -0.8260 C.3    71  MET71       0.0413
     76  CG        27.3050  -16.1340   -0.5470 C.3    71  MET71       0.0598
     77  SD        26.2470  -16.6270    0.8280 S.3    71  MET71      -0.1393
     78  CE        27.2460  -16.0930    2.2230 C.3    71  MET71       0.0692
     79  N         29.0750  -22.2790   -3.1200 N.3    73  TYR73      -0.1241
     80  CA        28.5560  -23.0290   -4.2560 C.3    73  TYR73       0.1605
     81  C         28.4240  -22.1330   -5.4820 C.2    73  TYR73       0.2264
     82  O         28.6400  -22.5710   -6.6130 O.2    73  TYR73      -0.2867
     83  CB        27.1790  -23.6150   -3.9510 C.3    73  TYR73       0.0534
     84  CG        27.1800  -24.8110   -3.0210 C.ar   73  TYR73      -0.0201
     85  CD1       25.9780  -25.3320   -2.5410 C.ar   73  TYR73      -0.0009
     86  CD2       28.3640  -25.4190   -2.6300 C.ar   73  TYR73      -0.0009
     87  CE1       25.9600  -26.4250   -1.6940 C.ar   73  TYR73       0.0417
     88  CE2       28.3580  -26.5100   -1.7770 C.ar   73  TYR73       0.0417
     89  CZ        27.1530  -27.0080   -1.3170 C.ar   73  TYR73       0.1957
     90  OH        27.1370  -28.0950   -0.4740 O.3    73  TYR73      -0.2866
     91  N         27.4270  -14.8330    6.1890 N.3   136  ALA136     -0.1245
     92  CA        26.0690  -15.2520    6.5320 C.3   136  ALA136      0.1562
     93  C         25.8020  -14.8600    7.9710 C.2   136  ALA136      0.2260
     94  O         26.7000  -14.9280    8.8160 O.2   136  ALA136     -0.2867
     95  CB        25.8790  -16.7530    6.3520 C.3   136  ALA136      0.0290
     96  N         19.6560  -13.6810   10.7200 N.3   139  ALA139     -0.1231
     97  CA        18.7360  -12.5540   10.5410 C.3   139  ALA139      0.1694
     98  C         17.2980  -12.9250   10.9150 C.2   139  ALA139      0.2592
     99  O         16.3720  -12.1600   10.6530 O.2   139  ALA139     -0.2718
    100  CB        18.7830  -12.0430    9.1150 C.3   139  ALA139      0.0304
    101  N         17.1220  -14.0790   11.5480 N.am  140  GLY140     -0.1957
    102  CA        15.7850  -14.5650   11.8590 C.3   140  GLY140      0.1869
    103  C         15.1790  -13.9060   13.0900 C.2   140  GLY140      0.2309
    104  O         14.9120  -14.5800   14.0820 O.2   140  GLY140     -0.2863
    105  N         14.1590   -7.7450   10.7180 N.3   145  LEU145     -0.1245
    106  CA        13.1980   -7.4380    9.6620 C.3   145  LEU145      0.1561
    107  C         12.7730   -5.9750    9.7130 C.2   145  LEU145      0.2260
    108  O         12.5680   -5.3380    8.6720 O.2   145  LEU145     -0.2867
    109  CB        11.9680   -8.3350    9.7680 C.3   145  LEU145      0.0270
    110  CG        12.0940   -9.6850    9.0560 C.3   145  LEU145      0.0019
    111  CD1       13.1450  -10.5800    9.6930 C.3   145  LEU145      0.0001
    112  CD2       10.7480  -10.3650    9.0490 C.3   145  LEU145      0.0001
    113  N         23.0390  -19.4720   11.1660 N.3   162  MET162     -0.1230
    114  CA        22.8940  -18.3740   10.2050 C.3   162  MET162      0.1702
    115  C         22.0120  -18.7500    9.0140 C.2   162  MET162      0.2592
    116  O         22.1160  -19.8600    8.4810 O.2   162  MET162     -0.2718
    117  CB        24.2680  -17.9080    9.7330 C.3   162  MET162      0.0401
    118  CG        25.1260  -17.3650   10.8630 C.3   162  MET162      0.0596
    119  SD        26.4200  -18.4990   11.4360 S.3   162  MET162     -0.1393
    120  CE        27.3120  -18.7880    9.9130 C.3   162  MET162      0.0692
    121  N         21.1530  -17.8190    8.5970 N.am  163  ASP163     -0.1960
    122  CA        20.1480  -18.0990    7.5710 C.3   163  ASP163      0.1840
    123  C         20.1630  -17.1200    6.3950 C.2   163  ASP163      0.2622
    124  O         19.3770  -17.2710    5.4630 O.2   163  ASP163     -0.2715
    125  CB        18.7340  -18.1220    8.1850 C.3   163  ASP163      0.1450
    126  CG        18.3100  -16.7770    8.7740 C.2   163  ASP163      0.3671
    127  OD1       17.1500  -16.6710    9.2430 O.co2 163  ASP163     -0.2456
    128  OD2       19.1140  -15.8220    8.7890 O.co2 163  ASP163     -0.2456
    129  N         21.0420  -16.1240    6.4390 N.am  164  HIS164     -0.1959
    130  CA        20.9410  -15.0140    5.4850 C.3   164  HIS164      0.1787
    131  C         22.3070  -14.5460    4.9820 C.2   164  HIS164      0.2620
    132  O         23.1600  -14.1070    5.7680 O.2   164  HIS164     -0.2715
    133  CB        20.1930  -13.8510    6.1550 C.3   164  HIS164      0.0785
    134  CG        19.9590  -12.6850    5.2530 C.ar  164  HIS164      0.0821
    135  ND1       19.6540  -12.8310    3.9200 N.ar  164  HIS164     -0.2267
    136  CD2       19.9840  -11.3510    5.4950 C.ar  164  HIS164      0.1154
    137  CE1       19.5030  -11.6360    3.3740 C.ar  164  HIS164      0.1986
    138  NE2       19.6940  -10.7220    4.3060 N.ar  164  HIS164     -0.2212
    139  N         22.5090  -14.6560    3.6700 N.am  165  GLY165     -0.1954
    140  CA        23.7680  -14.2610    3.0560 C.3   165  GLY165      0.1869
    141  C         23.7610  -12.7950    2.6880 C.2   165  GLY165      0.2309
    142  O         22.8410  -12.3260    2.0220 O.2   165  GLY165     -0.2863
    143  N         17.5600   -6.3700    0.2610 N.3   190  TRP190     -0.1241
    144  CA        16.1090   -6.2240    0.4230 C.3   190  TRP190      0.1605
    145  C         15.6090   -4.8670   -0.0330 C.2   190  TRP190      0.2264
    146  O         14.6060   -4.3610    0.4780 O.2   190  TRP190     -0.2867
    147  CB        15.6920   -6.4490    1.8720 C.3   190  TRP190      0.0550
    148  CG        15.9110   -7.8330    2.3710 C.ar  190  TRP190      0.0003
    149  CD1       16.2220   -8.9430    1.6370 C.ar  190  TRP190      0.0946
    150  CD2       15.8210   -8.2590    3.7320 C.ar  190  TRP190      0.0152
    151  NE1       16.3400  -10.0350    2.4690 N.ar  190  TRP190     -0.2442
    152  CE2       16.0980   -9.6350    3.7580 C.ar  190  TRP190      0.0810
    153  CE3       15.5360   -7.6000    4.9340 C.ar  190  TRP190      0.0012
    154  CZ2       16.1050  -10.3710    4.9460 C.ar  190  TRP190      0.0191
    155  CZ3       15.5380   -8.3290    6.1080 C.ar  190  TRP190      0.0001
    156  CH2       15.8180   -9.6990    6.1070 C.ar  190  TRP190      0.0015
    157  N         30.7440  -17.7320    8.5650 N.3   215  ALA215     -0.1245
    158  CA        30.5900  -18.2650    7.2070 C.3   215  ALA215      0.1562
    159  C         31.0170  -17.2200    6.1970 C.2   215  ALA215      0.2260
    160  O         30.2470  -16.8670    5.2970 O.2   215  ALA215     -0.2867
    161  CB        29.1460  -18.6990    6.9260 C.3   215  ALA215      0.0290
@<TRIPOS>BOND
     1    82    81    2
     2    33    32   ar
     3    33    31   ar
     4    34    35    1
     5    32    30   ar
     6    31    29   ar
     7    81    80    1
     8    40    41    2
     9    40    39    1
    10     4     3    2
    11    35    36    1
    12    39    38    1
    13    39    42    1
    14    30    27   ar
    15    36    37    2
    16     3     2    1
    17    80    83    1
    18    80    79    1
    19    53    52    2
    20    29    27   ar
    21    29    28   ar
    22     2     1    1
    23     2     5    1
    24    83    84    1
    25    27    25   ar
    26    42    43    1
    27    74    73    2
    28    47    48    1
    29    28    26   ar
    30    52    54   am
    31    52    51    1
    32     5     6    1
    33    84    86   ar
    34    84    85   ar
    35    43    44    1
    36    23    22    2
    37    22    21    1
    38    86    88   ar
    39    66    65    2
    40    85    87   ar
    41    58    57    2
    42    10    11    1
    43    25    26   ar
    44    25    24    1
    45    51    48    1
    46    73    72    1
    47    48    49    1
    48    12    13    2
    49    12    11    1
    50    88    89   ar
    51     6     7    1
    52    87    89   ar
    53    72    71    1
    54    72    75    1
    55    44    45   ar
    56    44    46   ar
    57    55    49   am
    58    55    56    1
    59    57    59   am
    60    57    56    1
    61    14    15    1
    62    60    59    1
    63    60    61    1
    64    65    71   am
    65    65    64    1
    66    21    24    1
    67    21    20    1
    68    89    90    1
    69    17    16    2
    70    63    61   am
    71    63    64    1
    72    20    16   am
    73    49    50    2
    74    16    15    1
    75    75    76    1
    76    15    18    1
    77     7     9   am
    78     7     8    2
    79    61    62    2
    80    76    77    1
    81    64    67    1
    82    67    68    1
    83   145   144    1
    84   145   146    2
    85   143   144    1
    86   144   147    1
    87    18    19    1
    88    77    78    1
    89    68    69    1
    90    68    70    1
    91   149   148   ar
    92   149   151   ar
    93   147   148    1
    94   142   141    2
    95   148   150   ar
    96   151   152   ar
    97   141   140    1
    98   140   139    1
    99   137   135   ar
   100   137   138   ar
   101   139   131   am
   102   150   152   ar
   103   150   153   ar
   104   152   154   ar
   105   135   134   ar
   106   138   136   ar
   107   153   155   ar
   108   154   156   ar
   109   131   130    1
   110   131   132    2
   111   134   136   ar
   112   134   133    1
   113   160   159    2
   114   124   123    2
   115   130   133    1
   116   130   129    1
   117   156   155   ar
   118    91    92    1
   119   159   158    1
   120    95    92    1
   121   123   129   am
   122   123   122    1
   123    92    93    1
   124   161   158    1
   125   158   157    1
   126   122   125    1
   127   122   121    1
   128    93    94    2
   129   125   126    1
   130   116   115    2
   131   121   115   am
   132   108   107    2
   133   126   128   ar
   134   126   127   ar
   135   115   114    1
   136   112   110    1
   137   110   111    1
   138   110   109    1
   139   100    97    1
   140   106   107    1
   141   106   109    1
   142   106   105    1
   143   117   114    1
   144   117   118    1
   145   120   119    1
   146   114   113    1
   147    97    96    1
   148    97    98    1
   149    99    98    2
   150   118   119    1
   151    98   101   am
   152   101   102    1
   153   102   103    1
   154   103   104    2
