@<TRIPOS>MOLECULE
tmp/3ofiB00.pdb
 119 114 0 0 0
SMALL
GASTEIGER

@<TRIPOS>ATOM
      1  N         74.2030  -92.7120   50.8420 N.3   289  GLY289     -0.1210
      2  CA        73.1590  -93.7170   51.1450 C.3   289  GLY289      0.1956
      3  C         71.8490  -93.4880   50.4320 C.2   289  GLY289      0.2611
      4  O         71.1650  -94.4410   50.0740 O.2   289  GLY289     -0.2717
      5  N         71.5250  -92.2390   50.1470 N.am  290  HIS290     -0.1975
      6  CA        70.3710  -91.9860   49.3080 C.3   290  HIS290      0.1656
      7  C         70.6450  -92.4800   47.8810 C.2   290  HIS290      0.2291
      8  O         69.7610  -93.0570   47.2440 O.2   290  HIS290     -0.2864
      9  CB        70.0000  -90.5080   49.3400 C.3   290  HIS290      0.0771
     10  CG        69.0110  -90.0940   48.2870 C.ar  290  HIS290      0.0820
     11  ND1       67.7370  -90.6300   48.1950 N.ar  290  HIS290     -0.2267
     12  CD2       69.0990  -89.1720   47.2920 C.ar  290  HIS290      0.1154
     13  CE1       67.0980  -90.0810   47.1740 C.ar  290  HIS290      0.1986
     14  NE2       67.8990  -89.1870   46.6150 N.ar  290  HIS290     -0.2212
     15  N         70.3160  -96.2640   48.1090 N.3   293  GLY293     -0.1210
     16  CA        68.9340  -96.6520   48.3400 C.3   293  GLY293      0.1956
     17  C         68.1060  -96.5250   47.0830 C.2   293  GLY293      0.2611
     18  O         67.2070  -97.4050   46.7540 O.2   293  GLY293     -0.2717
     19  N         68.3660  -95.4380   46.3560 N.am  294  HIS294     -0.1975
     20  CA        67.6500  -95.2180   45.0870 C.3   294  HIS294      0.1656
     21  C         67.8880  -96.4170   44.1630 C.2   294  HIS294      0.2291
     22  O         66.9710  -96.9140   43.4750 O.2   294  HIS294     -0.2864
     23  CB        68.1400  -93.9330   44.4150 C.3   294  HIS294      0.0771
     24  CG        67.6850  -93.7650   42.9960 C.ar  294  HIS294      0.0820
     25  ND1       66.3820  -93.4660   42.6650 N.ar  294  HIS294     -0.2267
     26  CD2       68.3560  -93.8650   41.8230 C.ar  294  HIS294      0.1154
     27  CE1       66.2810  -93.3360   41.3600 C.ar  294  HIS294      0.1986
     28  NE2       67.4580  -93.5920   40.8230 N.ar  294  HIS294     -0.2212
     29  N         66.5670  -99.8550   45.9870 N.3   297  GLY297     -0.1225
     30  CA        65.1150  -99.8690   46.1540 C.3   297  GLY297      0.1811
     31  C         64.4110  -99.5880   44.8730 C.2   297  GLY297      0.2280
     32  O         63.2230  -99.4350   44.8890 O.2   297  GLY297     -0.2866
     33  N         62.3680  -99.9890   41.3450 N.3   299  GLU299     -0.1245
     34  CA        61.3160 -100.9640   40.9570 C.3   299  GLU299      0.1567
     35  C         61.1250 -101.0700   39.4120 C.2   299  GLU299      0.2260
     36  O         60.1820 -101.6960   38.9470 O.2   299  GLU299     -0.2867
     37  CB        59.9710 -100.5830   41.6230 C.3   299  GLU299      0.0388
     38  CG        60.0700 -100.2920   43.0900 C.3   299  GLU299      0.1160
     39  CD        58.7220 -100.3740   43.8540 C.2   299  GLU299      0.3649
     40  OE1       58.7410 -100.1750   45.1050 O.co2 299  GLU299     -0.2457
     41  OE2       57.6420 -100.6160   43.2380 O.co2 299  GLU299     -0.2457
     42  N         59.3970 -104.2680   48.0210 N.3   317  LEU317     -0.1231
     43  CA        60.7490 -104.1660   48.5640 C.3   317  LEU317      0.1693
     44  C         61.0130 -102.7160   48.9730 C.2   317  LEU317      0.2592
     45  O         60.6420 -101.7870   48.2840 O.2   317  LEU317     -0.2718
     46  CB        61.7830 -104.6360   47.4990 C.3   317  LEU317      0.0284
     47  CG        63.2650 -104.6330   47.8710 C.3   317  LEU317      0.0019
     48  CD1       64.0050 -105.6640   47.0080 C.3   317  LEU317      0.0001
     49  CD2       63.9190 -103.2290   47.7320 C.3   317  LEU317      0.0001
     50  N         61.6390 -102.5180   50.1150 N.am  318  VAL318     -0.1966
     51  CA        62.0310 -101.1910   50.5360 C.3   318  VAL318      0.1727
     52  C         63.5080 -101.3760   50.8730 C.2   318  VAL318      0.2617
     53  O         63.8950 -102.3220   51.5470 O.2   318  VAL318     -0.2715
     54  CB        61.2540 -100.7030   51.8010 C.3   318  VAL318      0.0290
     55  CG1       59.7530 -100.3480   51.5290 C.3   318  VAL318      0.0023
     56  CG2       61.2200 -101.7550   52.7830 C.3   318  VAL318      0.0023
     57  N         64.3300 -100.4770   50.3750 N.am  319  GLY319     -0.1940
     58  CA        65.7740 -100.5000   50.5740 C.3   319  GLY319      0.2014
     59  C         66.2810  -99.0580   50.8110 C.2   319  GLY319      0.2639
     60  O         65.6890  -98.0760   50.3310 O.2   319  GLY319     -0.2714
     61  N         67.3790  -98.9520   51.5580 N.am  320  GLY320     -0.1939
     62  CA        68.0560  -97.6950   51.7180 C.3   320  GLY320      0.2014
     63  C         68.5530  -97.4940   53.1380 C.2   320  GLY320      0.2639
     64  O         68.6420  -98.4270   53.9460 O.2   320  GLY320     -0.2714
     65  N         68.8640  -96.2600   53.4520 N.am  321  GLN321     -0.1963
     66  CA        69.5100  -95.9690   54.7100 C.3   321  GLN321      0.1733
     67  C         68.4620  -95.6780   55.7650 C.2   321  GLN321      0.2616
     68  O         67.3980  -95.1590   55.4850 O.2   321  GLN321     -0.2715
     69  CB        70.4700  -94.7880   54.5430 C.3   321  GLN321      0.0408
     70  CG        69.7400  -93.4910   54.3030 C.3   321  GLN321      0.0908
     71  CD        70.6990  -92.3210   53.9060 C.2   321  GLN321      0.2608
     72  OE1       70.3180  -91.4170   53.1120 O.2   321  GLN321     -0.2717
     73  NE2       71.8790  -92.3060   54.4850 N.am  321  GLN321     -0.0878
     74  N         68.7850  -95.9930   56.9960 N.am  322  LYS322     -0.1977
     75  CA        67.8250  -95.8190   58.0240 C.3   322  LYS322      0.1596
     76  C         68.5330  -95.1850   59.2280 C.2   322  LYS322      0.2287
     77  O         69.6470  -95.5640   59.6020 O.2   322  LYS322     -0.2864
     78  CB        67.1980  -97.1670   58.3460 C.3   322  LYS322      0.0298
     79  CG        66.5480  -97.1840   59.6730 C.3   322  LYS322      0.0038
     80  CD        65.4890  -98.3150   59.7980 C.3   322  LYS322      0.0206
     81  CE        66.1080  -99.5590   60.3820 C.3   322  LYS322      0.1093
     82  NZ        65.2490 -100.0490   61.4640 N.3   322  LYS322     -0.1314
     83  N         69.0930 -100.9890   55.0860 N.3   332  ILE332     -0.1245
     84  CA        68.1350 -102.0770   55.0380 C.3   332  ILE332      0.1561
     85  C         67.6940 -102.5050   53.6760 C.2   332  ILE332      0.2260
     86  O         67.7160 -101.7070   52.7790 O.2   332  ILE332     -0.2867
     87  CB        66.8740 -101.8520   55.9730 C.3   332  ILE332      0.0252
     88  CG1       65.7920 -100.9420   55.3330 C.3   332  ILE332      0.0019
     89  CG2       67.3190 -101.4810   57.3420 C.3   332  ILE332      0.0019
     90  CD1       66.0790  -99.6340   55.3930 C.3   332  ILE332      0.0001
     91  N         56.7390  -96.5120   38.1050 N.3   567  TYR567     -0.1241
     92  CA        57.6720  -96.1820   39.1610 C.3   567  TYR567      0.1605
     93  C         58.5020  -94.9190   38.7760 C.2   567  TYR567      0.2264
     94  O         58.5260  -93.9260   39.5270 O.2   567  TYR567     -0.2867
     95  CB        58.5790  -97.3520   39.4430 C.3   567  TYR567      0.0534
     96  CG        59.4120  -97.0720   40.6500 C.ar  567  TYR567     -0.0201
     97  CD1       58.8400  -97.1020   41.9240 C.ar  567  TYR567     -0.0009
     98  CD2       60.7680  -96.7490   40.5170 C.ar  567  TYR567     -0.0009
     99  CE1       59.6240  -96.8250   43.0640 C.ar  567  TYR567      0.0417
    100  CE2       61.5910  -96.5000   41.6290 C.ar  567  TYR567      0.0417
    101  CZ        61.0200  -96.4930   42.8820 C.ar  567  TYR567      0.1957
    102  OH        61.8280  -96.2460   43.9690 O.3   567  TYR567     -0.2866
    103  N         56.6790  -91.8540   39.0030 N.3   570  GLU570     -0.1231
    104  CA        56.5650  -91.4390   40.3860 C.3   570  GLU570      0.1699
    105  C         57.8170  -90.6830   40.8900 C.2   570  GLU570      0.2592
    106  O         57.7200  -89.5870   41.5000 O.2   570  GLU570     -0.2718
    107  CB        56.2960  -92.6310   41.2580 C.3   570  GLU570      0.0402
    108  CG        55.1810  -92.2300   42.1080 C.3   570  GLU570      0.1161
    109  CD        55.3910  -92.5550   43.5310 C.2   570  GLU570      0.3649
    110  OE1       54.7040  -91.9080   44.3710 O.co2 570  GLU570     -0.2457
    111  OE2       56.2380  -93.4540   43.7890 O.co2 570  GLU570     -0.2457
    112  N         58.9830  -91.2490   40.6020 N.am  571  LEU571     -0.1980
    113  CA        60.2260  -90.5490   40.8950 C.3   571  LEU571      0.1596
    114  C         60.1940  -89.1590   40.2990 C.2   571  LEU571      0.2287
    115  O         60.7500  -88.2870   40.8740 O.2   571  LEU571     -0.2864
    116  CB        61.4520  -91.2980   40.4120 C.3   571  LEU571      0.0297
    117  CG        61.6120  -92.6470   41.1560 C.3   571  LEU571      0.0022
    118  CD1       62.6210  -93.5370   40.4560 C.3   571  LEU571      0.0001
    119  CD2       61.9940  -92.4300   42.6020 C.3   571  LEU571      0.0001
@<TRIPOS>BOND
     1    91    92    1
     2    93    92    1
     3    93    94    2
     4    36    35    2
     5   103   104    1
     6    92    95    1
     7    35    34    1
     8    95    96    1
     9   114   115    2
    10   114   113    1
    11   104   105    1
    12   104   107    1
    13   116   113    1
    14   116   117    1
    15   118   117    1
    16    98    96   ar
    17    98   100   ar
    18   112   105   am
    19   112   113    1
    20    96    97   ar
    21    28    27   ar
    22    28    26   ar
    23   105   106    2
    24    34    33    1
    25    34    37    1
    26   117   119    1
    27   107   108    1
    28    27    25   ar
    29    37    38    1
    30   100   101   ar
    31    26    24   ar
    32    97    99   ar
    33   108   109    1
    34    25    24   ar
    35   101    99   ar
    36   101   102    1
    37    24    23    1
    38    38    39    1
    39    41    39   ar
    40    22    21    2
    41   109   111   ar
    42   109   110   ar
    43    39    40   ar
    44    21    20    1
    45    23    20    1
    46    31    32    2
    47    31    30    1
    48    20    19    1
    49    29    30    1
    50    19    17   am
    51    14    13   ar
    52    14    12   ar
    53    18    17    2
    54    48    47    1
    55    17    16    1
    56    13    11   ar
    57     8     7    2
    58    12    10   ar
    59    46    47    1
    60    46    43    1
    61    49    47    1
    62     7     6    1
    63    42    43    1
    64    15    16    1
    65    11    10   ar
    66    45    44    2
    67    10     9    1
    68    43    44    1
    69    44    50   am
    70     6     9    1
    71     6     5    1
    72     4     3    2
    73    50    51    1
    74     5     3   am
    75    60    59    2
    76    57    58    1
    77    57    52   am
    78     3     2    1
    79    51    52    1
    80    51    54    1
    81    58    59    1
    82    59    61   am
    83     1     2    1
    84    52    53    2
    85    55    54    1
    86    61    62    1
    87    62    63    1
    88    54    56    1
    89    86    85    2
    90    72    71    2
    91    63    65   am
    92    63    64    2
    93    65    66    1
    94    85    84    1
    95    71    70    1
    96    71    73   am
    97    70    69    1
    98    69    66    1
    99    66    67    1
   100    84    83    1
   101    84    87    1
   102    88    90    1
   103    88    87    1
   104    68    67    2
   105    67    74   am
   106    87    89    1
   107    74    75    1
   108    75    78    1
   109    75    76    1
   110    78    79    1
   111    76    77    2
   112    79    80    1
   113    80    81    1
   114    81    82    1
