@<TRIPOS>MOLECULE
tmp/3ofkA00.pdb
 224 214 0 0 0
SMALL
GASTEIGER

@<TRIPOS>ATOM
      1  N         35.8710   15.1070   43.9600 N.3    11  THR11      -0.1218
      2  CA        35.2820   16.4280   43.8280 C.3    11  THR11       0.1862
      3  C         35.2570   17.1410   45.1940 C.2    11  THR11       0.2287
      4  O         35.4300   18.3570   45.2570 O.2    11  THR11      -0.2866
      5  CB        33.8830   16.3500   43.1330 C.3    11  THR11       0.1770
      6  OG1       34.0560   15.8870   41.7830 O.3    11  THR11      -0.2211
      7  CG2       33.1820   17.6880   43.1390 C.3    11  THR11       0.0375
      8  N         36.7340   21.0110   45.6130 N.3    15  LEU15      -0.1245
      9  CA        35.9730   22.0570   46.2700 C.3    15  LEU15       0.1561
     10  C         36.7410   22.6580   47.4700 C.2    15  LEU15       0.2260
     11  O         36.8880   23.8860   47.5660 O.2    15  LEU15      -0.2867
     12  CB        34.6260   21.4670   46.7130 C.3    15  LEU15       0.0270
     13  CG        33.4080   21.6760   45.8080 C.3    15  LEU15       0.0019
     14  CD1       33.7300   21.8290   44.3400 C.3    15  LEU15       0.0001
     15  CD2       32.2900   20.6440   46.0150 C.3    15  LEU15       0.0001
     16  N         38.0750   26.4740   48.0200 N.3    19  LEU19      -0.1245
     17  CA        37.5200   27.2300   49.1620 C.3    19  LEU19       0.1561
     18  C         38.5810   27.6900   50.1910 C.2    19  LEU19       0.2260
     19  O         38.2740   28.4980   51.0720 O.2    19  LEU19      -0.2867
     20  CB        36.4150   26.4210   49.8390 C.3    19  LEU19       0.0270
     21  CG        35.1240   26.3180   48.9970 C.3    19  LEU19       0.0019
     22  CD1       34.3140   25.1570   49.4470 C.3    19  LEU19       0.0001
     23  CD2       34.3060   27.6540   48.9910 C.3    19  LEU19       0.0001
     24  N         37.7880   30.3410   43.1210 N.3    25  TRP25      -0.1241
     25  CA        37.3850   30.4210   41.7010 C.3    25  TRP25       0.1605
     26  C         37.6460   31.7880   41.0500 C.2    25  TRP25       0.2264
     27  O         37.1500   32.0850   39.9500 O.2    25  TRP25      -0.2867
     28  CB        35.9100   30.0320   41.5470 C.3    25  TRP25       0.0550
     29  CG        35.6550   28.5760   41.7480 C.ar   25  TRP25       0.0003
     30  CD1       35.7380   27.5920   40.8040 C.ar   25  TRP25       0.0946
     31  CD2       35.2740   27.9340   42.9660 C.ar   25  TRP25       0.0152
     32  NE1       35.4450   26.3790   41.3630 N.ar   25  TRP25      -0.2442
     33  CE2       35.1420   26.5590   42.6890 C.ar   25  TRP25       0.0810
     34  CE3       35.0430   28.3850   44.2670 C.ar   25  TRP25       0.0012
     35  CZ2       34.7710   25.6330   43.6640 C.ar   25  TRP25       0.0191
     36  CZ3       34.6530   27.4680   45.2350 C.ar   25  TRP25       0.0001
     37  CH2       34.5190   26.1050   44.9250 C.ar   25  TRP25       0.0015
     38  N         36.3160   34.5230   41.7440 N.3    27  LEU27      -0.1245
     39  CA        35.0140   35.1820   41.4960 C.3    27  LEU27       0.1561
     40  C         35.0060   36.6820   41.8160 C.2    27  LEU27       0.2260
     41  O         34.1550   37.4390   41.2980 O.2    27  LEU27      -0.2867
     42  CB        33.8950   34.4880   42.2910 C.3    27  LEU27       0.0270
     43  CG        33.6530   33.0180   41.9170 C.3    27  LEU27       0.0019
     44  CD1       32.7900   32.3160   42.9540 C.3    27  LEU27       0.0001
     45  CD2       33.0540   32.8650   40.5340 C.3    27  LEU27       0.0001
     46  N         29.9730   37.8570   34.4430 N.3    36  ARG36      -0.1231
     47  CA        29.0410   36.7350   34.5740 C.3    36  ARG36       0.1694
     48  C         28.0100   36.9670   35.6730 C.2    36  ARG36       0.2592
     49  O         26.8140   36.7210   35.4850 O.2    36  ARG36      -0.2718
     50  CB        29.7890   35.4260   34.8610 C.3    36  ARG36       0.0321
     51  CG        28.9140   34.2210   34.8370 C.3    36  ARG36       0.0489
     52  CD        29.7400   32.9450   34.9900 C.3    36  ARG36       0.2205
     53  NE        30.4570   32.8760   36.2640 N.pl3  36  ARG36      -0.0865
     54  CZ        29.9140   32.5740   37.4590 C.cat  36  ARG36       0.5346
     55  NH1       28.6130   32.3050   37.6180 N.pl3  36  ARG36       0.1354
     56  NH2       30.6990   32.5410   38.5260 N.pl3  36  ARG36       0.1354
     57  N         28.5060   37.4190   36.8220 N.am   37  HIS37      -0.1976
     58  CA        27.6700   37.8050   37.9260 C.3    37  HIS37       0.1656
     59  C         26.7110   38.9330   37.6110 C.2    37  HIS37       0.2291
     60  O         25.5850   38.9310   38.1000 O.2    37  HIS37      -0.2864
     61  CB        28.5380   38.2040   39.1160 C.3    37  HIS37       0.0771
     62  CG        29.0220   37.0510   39.9260 C.ar   37  HIS37       0.0820
     63  ND1       29.6140   37.2120   41.1620 N.ar   37  HIS37      -0.2267
     64  CD2       28.9400   35.7170   39.7180 C.ar   37  HIS37       0.1154
     65  CE1       29.9200   36.0270   41.6570 C.ar   37  HIS37       0.1986
     66  NE2       29.5030   35.1040   40.8090 N.ar   37  HIS37      -0.2212
     67  N         24.1030   37.1560   35.5720 N.3    40  LEU40      -0.1245
     68  CA        23.3440   36.3340   36.5060 C.3    40  LEU40       0.1561
     69  C         22.3700   37.1910   37.3750 C.2    40  LEU40       0.2260
     70  O         21.1970   36.8410   37.5160 O.2    40  LEU40      -0.2867
     71  CB        24.3200   35.5050   37.3600 C.3    40  LEU40       0.0270
     72  CG        23.7760   34.2290   37.9790 C.3    40  LEU40       0.0019
     73  CD1       23.6040   33.1470   36.9040 C.3    40  LEU40       0.0001
     74  CD2       24.6670   33.7440   39.0920 C.3    40  LEU40       0.0001
     75  N         19.6950   30.0200   46.6020 N.3    55  GLU55      -0.1231
     76  CA        20.9470   30.0010   45.8680 C.3    55  GLU55       0.1699
     77  C         21.5750   28.6520   46.1270 C.2    55  GLU55       0.2592
     78  O         21.6800   28.2440   47.3140 O.2    55  GLU55      -0.2718
     79  CB        21.8930   31.1120   46.3110 C.3    55  GLU55       0.0402
     80  CG        23.1680   31.1600   45.4130 C.3    55  GLU55       0.1161
     81  CD        24.3580   31.9100   45.9880 C.2    55  GLU55       0.3649
     82  OE1       24.4150   32.1680   47.2060 O.co2  55  GLU55      -0.2457
     83  OE2       25.2540   32.2920   45.1970 O.co2  55  GLU55      -0.2457
     84  N         21.9350   27.9520   45.0380 N.am   56  ILE56      -0.1966
     85  CA        22.5500   26.5960   45.1070 C.3    56  ILE56       0.1727
     86  C         24.0150   26.6860   44.7280 C.2    56  ILE56       0.2617
     87  O         24.3290   26.8480   43.5360 O.2    56  ILE56      -0.2715
     88  CB        21.8630   25.5990   44.1750 C.3    56  ILE56       0.0290
     89  CG1       20.4460   25.3680   44.6560 C.3    56  ILE56       0.0022
     90  CG2       22.6410   24.2280   44.1320 C.3    56  ILE56       0.0023
     91  CD1       19.5130   24.7500   43.5940 C.3    56  ILE56       0.0001
     92  N         24.8940   26.5390   45.7270 N.am   57  GLY57      -0.1940
     93  CA        26.3520   26.7050   45.5220 C.3    57  GLY57       0.2014
     94  C         26.7940   28.1660   45.6570 C.2    57  GLY57       0.2639
     95  O         26.5610   28.9680   44.7650 O.2    57  GLY57      -0.2714
     96  N         27.4370   28.5150   46.7620 N.am   58  CYS58      -0.1953
     97  CA        27.7020   29.9190   47.0870 C.3    58  CYS58       0.1843
     98  C         29.1670   30.3140   47.1060 C.2    58  CYS58       0.2625
     99  O         29.4700   31.5140   47.2690 O.2    58  CYS58      -0.2714
    100  CB        27.1140   30.2640   48.4720 C.3    58  CYS58       0.0997
    101  SG        27.6860   29.2540   49.8890 S.3    58  CYS58      -0.0797
    102  N         30.0700   29.3570   46.9550 N.am   59  ALA59      -0.1977
    103  CA        31.5160   29.6060   47.1160 C.3    59  ALA59       0.1597
    104  C         31.7190   30.4940   48.3380 C.2    59  ALA59       0.2287
    105  O         31.1730   30.1710   49.4000 O.2    59  ALA59      -0.2864
    106  CB        32.1280   30.2400   45.8650 C.3    59  ALA59       0.0319
    107  N         28.3390   36.1450   45.0080 N.3    63  PHE63      -0.1241
    108  CA        27.0240   36.3430   44.4080 C.3    63  PHE63       0.1605
    109  C         25.9160   36.4630   45.4520 C.2    63  PHE63       0.2264
    110  O         25.0050   37.2710   45.2790 O.2    63  PHE63      -0.2867
    111  CB        26.6680   35.2870   43.3450 C.3    63  PHE63       0.0534
    112  CG        25.4440   35.6600   42.5550 C.ar   63  PHE63      -0.0203
    113  CD1       25.5430   36.5610   41.5000 C.ar   63  PHE63      -0.0042
    114  CD2       24.2040   35.1900   42.9080 C.ar   63  PHE63      -0.0042
    115  CE1       24.4180   36.9680   40.7910 C.ar   63  PHE63      -0.0003
    116  CE2       23.0770   35.5620   42.2050 C.ar   63  PHE63      -0.0003
    117  CZ        23.2000   36.4850   41.1240 C.ar   63  PHE63      -0.0000
    118  N         22.2630   26.9090   49.8710 N.3    77  ILE77      -0.1231
    119  CA        22.7420   25.5770   50.1660 C.3    77  ILE77       0.1692
    120  C         24.0940   25.4340   49.5090 C.2    77  ILE77       0.2592
    121  O         24.4160   26.1090   48.5390 O.2    77  ILE77      -0.2718
    122  CB        21.7590   24.4340   49.8080 C.3    77  ILE77       0.0266
    123  CG1       21.5810   24.2430   48.3010 C.3    77  ILE77       0.0019
    124  CG2       20.3640   24.7050   50.4640 C.3    77  ILE77       0.0020
    125  CD1       21.2320   22.8190   47.8980 C.3    77  ILE77       0.0001
    126  N         24.9030   24.5970   50.1220 N.am   78  ASP78      -0.1960
    127  CA        26.1850   24.2500   49.6090 C.3    78  ASP78       0.1840
    128  C         26.6360   22.9420   50.2490 C.2    78  ASP78       0.2622
    129  O         26.4560   22.7000   51.4450 O.2    78  ASP78      -0.2715
    130  CB        27.1990   25.3420   49.9030 C.3    78  ASP78       0.1450
    131  CG        28.3800   25.2690   48.9600 C.2    78  ASP78       0.3671
    132  OD1       29.1820   24.2770   49.0340 O.co2  78  ASP78      -0.2456
    133  OD2       28.4330   26.1470   48.0740 O.co2  78  ASP78      -0.2456
    134  N         27.2160   22.0870   49.4330 N.am   79  VAL79      -0.1963
    135  CA        27.6690   20.7970   49.8860 C.3    79  VAL79       0.1727
    136  C         28.8740   20.9220   50.8230 C.2    79  VAL79       0.2616
    137  O         29.1550   20.0190   51.5990 O.2    79  VAL79      -0.2715
    138  CB        28.0350   19.9280   48.6870 C.3    79  VAL79       0.0290
    139  CG1       29.3970   20.3450   48.1160 C.3    79  VAL79       0.0023
    140  CG2       28.0370   18.4830   49.0900 C.3    79  VAL79       0.0023
    141  N         29.5680   22.0600   50.7700 N.am   80  MET80      -0.1977
    142  CA        30.7550   22.2960   51.5810 C.3    80  MET80       0.1605
    143  C         30.5260   23.2000   52.7890 C.2    80  MET80       0.2287
    144  O         30.3200   24.4040   52.6220 O.2    80  MET80      -0.2864
    145  CB        31.8480   22.9240   50.7170 C.3    80  MET80       0.0413
    146  CG        32.2480   22.0690   49.4840 C.3    80  MET80       0.0598
    147  SD        32.7680   20.3980   49.9060 S.3    80  MET80      -0.1393
    148  CE        34.3530   20.7170   50.6520 C.3    80  MET80       0.0692
    149  N         32.1320   26.5770   52.5560 N.3    83  ALA83      -0.1245
    150  CA        31.4620   27.5730   51.7120 C.3    83  ALA83       0.1562
    151  C         30.4210   28.3730   52.5330 C.2    83  ALA83       0.2260
    152  O         30.3950   29.6060   52.4930 O.2    83  ALA83      -0.2867
    153  CB        30.8120   26.9270   50.4980 C.3    83  ALA83       0.0290
    154  N         24.3660   21.0510   52.5470 N.3   102  THR102     -0.1203
    155  CA        23.7920   19.8350   51.9700 C.3   102  THR102      0.1994
    156  C         24.0490   19.8440   50.4850 C.2   102  THR102      0.2618
    157  O         24.1390   20.8880   49.8460 O.2   102  THR102     -0.2717
    158  CB        22.2440   19.7390   52.1740 C.3   102  THR102      0.1784
    159  OG1       21.9100   20.1150   53.5070 O.3   102  THR102     -0.2211
    160  CG2       21.7400   18.3260   51.9540 C.3   102  THR102      0.0376
    161  N         24.1120   18.6480   49.9550 N.am  103  ASP103     -0.1959
    162  CA        24.1900   18.4100   48.5540 C.3   103  ASP103      0.1840
    163  C         22.7900   18.6870   47.9790 C.2   103  ASP103      0.2621
    164  O         21.7600   18.3970   48.6140 O.2   103  ASP103     -0.2715
    165  CB        24.5890   16.9460   48.3570 C.3   103  ASP103      0.1450
    166  CG        24.9720   16.6270   46.9390 C.2   103  ASP103      0.3671
    167  OD1       24.3190   17.1240   45.9940 O.co2 103  ASP103     -0.2456
    168  OD2       25.9390   15.8700   46.7900 O.co2 103  ASP103     -0.2456
    169  N         22.7300   19.2630   46.7830 N.am  104  ILE104     -0.1977
    170  CA        21.4200   19.5130   46.1510 C.3   104  ILE104      0.1596
    171  C         20.6450   18.1820   45.9610 C.2   104  ILE104      0.2287
    172  O         19.4090   18.1580   46.0260 O.2   104  ILE104     -0.2864
    173  CB        21.5620   20.3250   44.8420 C.3   104  ILE104      0.0276
    174  CG1       20.1820   20.5730   44.1920 C.3   104  ILE104      0.0022
    175  CG2       22.5320   19.6700   43.8690 C.3   104  ILE104      0.0022
    176  CD1       19.1820   21.2690   45.1020 C.3   104  ILE104      0.0001
    177  N         18.6690   30.2180   41.9100 N.3   117  VAL117     -0.1245
    178  CA        19.8760   30.5000   41.1480 C.3   117  VAL117      0.1561
    179  C         20.7630   29.2330   41.2830 C.2   117  VAL117      0.2260
    180  O         20.9790   28.7110   42.3820 O.2   117  VAL117     -0.2867
    181  CB        20.6050   31.7940   41.6180 C.3   117  VAL117      0.0252
    182  CG1       21.8370   32.0480   40.7680 C.3   117  VAL117      0.0019
    183  CG2       19.6360   33.0530   41.6150 C.3   117  VAL117      0.0019
    184  N         24.2010   28.2900   39.4260 N.3   119  ALA119     -0.1231
    185  CA        25.2760   28.7180   38.5290 C.3   119  ALA119      0.1694
    186  C         26.5890   27.9950   38.8430 C.2   119  ALA119      0.2592
    187  O         27.0400   28.0030   39.9750 O.2   119  ALA119     -0.2718
    188  CB        25.4810   30.2700   38.6510 C.3   119  ALA119      0.0304
    189  N         27.1680   27.3300   37.8350 N.am  120  GLU120     -0.1966
    190  CA        28.5530   26.7890   37.9150 C.3   120  GLU120      0.1733
    191  C         28.6940   25.7630   39.0610 C.2   120  GLU120      0.2616
    192  O         29.7090   25.6790   39.7410 O.2   120  GLU120     -0.2715
    193  CB        29.5760   27.8980   38.0640 C.3   120  GLU120      0.0429
    194  CG        29.4220   29.0980   37.1050 C.3   120  GLU120      0.1163
    195  CD        29.5310   28.7100   35.6300 C.2   120  GLU120      0.3649
    196  OE1       30.1590   27.6670   35.3160 O.co2 120  GLU120     -0.2457
    197  OE2       28.9340   29.4390   34.8140 O.co2 120  GLU120     -0.2457
    198  N         27.6580   24.9730   39.2090 N.am  121  VAL121     -0.1977
    199  CA        27.5840   23.9300   40.2410 C.3   121  VAL121      0.1596
    200  C         27.1870   22.5400   39.7080 C.2   121  VAL121      0.2287
    201  O         27.7740   21.5420   40.1320 O.2   121  VAL121     -0.2864
    202  CB        26.6290   24.3430   41.3760 C.3   121  VAL121      0.0276
    203  CG1       25.2430   24.6350   40.8190 C.3   121  VAL121      0.0022
    204  CG2       26.5490   23.2470   42.3770 C.3   121  VAL121      0.0022
    205  N         29.5370   19.4730   38.8770 N.3   124  TYR124     -0.1227
    206  CA        30.2770   18.6930   39.8770 C.3   124  TYR124      0.1736
    207  C         29.6170   17.3350   40.1590 C.2   124  TYR124      0.2595
    208  O         30.1860   16.4760   40.7900 O.2   124  TYR124     -0.2718
    209  CB        30.4460   19.4890   41.1780 C.3   124  TYR124      0.0548
    210  CG        31.3790   20.6640   41.0110 C.ar  124  TYR124     -0.0200
    211  CD1       32.7450   20.4710   40.8140 C.ar  124  TYR124     -0.0009
    212  CD2       30.9020   21.9580   41.0320 C.ar  124  TYR124     -0.0009
    213  CE1       33.6190   21.5520   40.6430 C.ar  124  TYR124      0.0417
    214  CE2       31.7540   23.0300   40.8430 C.ar  124  TYR124      0.0417
    215  CZ        33.1020   22.8190   40.6560 C.ar  124  TYR124      0.1957
    216  OH        33.8970   23.9100   40.4830 O.3   124  TYR124     -0.2866
    217  N         28.4100   17.1310   39.6990 N.am  125  LEU125     -0.1980
    218  CA        27.7580   15.8450   39.9390 C.3   125  LEU125      0.1596
    219  C         28.4420   14.7700   39.0720 C.2   125  LEU125      0.2287
    220  O         29.0670   15.0810   38.0600 O.2   125  LEU125     -0.2864
    221  CB        26.2690   15.9510   39.6460 C.3   125  LEU125      0.0297
    222  CG        25.5180   16.8600   40.6200 C.3   125  LEU125      0.0022
    223  CD1       24.1650   17.2140   39.9990 C.3   125  LEU125      0.0001
    224  CD2       25.3660   16.2000   41.9940 C.3   125  LEU125      0.0001
@<TRIPOS>BOND
     1    46    47    1
     2    47    50    1
     3    47    48    1
     4   197   195   ar
     5    51    50    1
     6    51    52    1
     7    52    53    1
     8   196   195   ar
     9    49    48    2
    10    67    68    1
    11   195   194    1
    12    48    57   am
    13    53    54    2
    14    68    71    1
    15    68    69    1
    16    57    58    1
    17    73    72    1
    18   194   193    1
    19    71    72    1
    20    69    70    2
    21    54    55    1
    22    54    56    1
    23    59    58    1
    24    59    60    2
    25   189   190    1
    26   189   186   am
    27   190   193    1
    28   190   191    1
    29    58    61    1
    30    72    74    1
    31   220   219    2
    32   185   188    1
    33   185   186    1
    34   185   184    1
    35   186   187    2
    36   205   206    1
    37   191   198   am
    38   191   192    2
    39   219   218    1
    40    61    62    1
    41   198   199    1
    42   221   218    1
    43   221   222    1
    44   217   218    1
    45   217   207   am
    46   200   201    2
    47   200   199    1
    48    64    62   ar
    49    64    66   ar
    50   206   207    1
    51   206   209    1
    52    62    63   ar
    53    27    26    2
    54   223   222    1
    55   207   208    2
    56   199   202    1
    57   216   215    1
    58    45    43    1
    59   222   224    1
    60   213   215   ar
    61   213   211   ar
    62   215   214   ar
    63   182   181    1
    64   115   117   ar
    65   115   113   ar
    66    30    32   ar
    67    30    29   ar
    68    66    65   ar
    69   211   210   ar
    70   203   202    1
    71   214   212   ar
    72   210   212   ar
    73   210   209    1
    74    26    25    1
    75   117   116   ar
    76   178   179    1
    77   178   181    1
    78   178   177    1
    79    63    65   ar
    80   179   180    2
    81    41    40    2
    82    32    33   ar
    83   202   204    1
    84    39    38    1
    85    39    40    1
    86    39    42    1
    87   113   112   ar
    88    28    25    1
    89    28    29    1
    90   183   181    1
    91    25    24    1
    92    29    31   ar
    93     6     5    1
    94    43    42    1
    95    43    44    1
    96   116   114   ar
    97   112   114   ar
    98   112   111    1
    99    33    31   ar
   100    33    35   ar
   101    31    34   ar
   102     5     7    1
   103     5     2    1
   104   111   108    1
   105    87    86    2
   106    91    89    1
   107    35    37   ar
   108     2     1    1
   109     2     3    1
   110   175   173    1
   111    90    88    1
   112    88    89    1
   113    88    85    1
   114   174   173    1
   115   174   176    1
   116    34    36   ar
   117    14    13    1
   118   108   107    1
   119   108   109    1
   120    86    85    1
   121    86    92   am
   122    95    94    2
   123   173   170    1
   124    37    36   ar
   125    84    85    1
   126    84    77   am
   127     3     4    2
   128    83    81   ar
   129   110   109    2
   130    80    81    1
   131    80    79    1
   132    93    94    1
   133    93    92    1
   134     8     9    1
   135    94    96   am
   136    13    15    1
   137    13    12    1
   138   106   103    1
   139    76    77    1
   140    76    79    1
   141    76    75    1
   142   171   172    2
   143   171   170    1
   144    81    82   ar
   145   167   166   ar
   146    77    78    2
   147   170   169    1
   148     9    12    1
   149     9    10    1
   150    96    97    1
   151   169   163   am
   152   168   166   ar
   153   166   165    1
   154   102    98   am
   155   102   103    1
   156    97    98    1
   157    97   100    1
   158    98    99    2
   159   103   104    1
   160    10    11    2
   161   125   123    1
   162   163   162    1
   163   163   164    2
   164    16    17    1
   165   133   131   ar
   166   139   138    1
   167   123   122    1
   168   104   105    2
   169   165   162    1
   170   100   101    1
   171   121   120    2
   172   162   161    1
   173   138   140    1
   174   138   135    1
   175   131   132   ar
   176   131   130    1
   177    23    21    1
   178    21    22    1
   179    21    20    1
   180    17    20    1
   181    17    18    1
   182   134   135    1
   183   134   128   am
   184   146   147    1
   185   146   145    1
   186   120   126   am
   187   120   119    1
   188   127   130    1
   189   127   126    1
   190   127   128    1
   191   122   119    1
   192   122   124    1
   193   157   156    2
   194   118   119    1
   195   135   136    1
   196   147   148    1
   197   161   156   am
   198    18    19    2
   199   128   129    2
   200   156   155    1
   201   153   150    1
   202   145   142    1
   203   141   136   am
   204   141   142    1
   205   136   137    2
   206   142   143    1
   207   150   151    1
   208   150   149    1
   209   160   158    1
   210   155   158    1
   211   155   154    1
   212   158   159    1
   213   152   151    2
   214   144   143    2
