@<TRIPOS>MOLECULE
tmp/3ofsE00.pdb
 162 158 0 0 0
SMALL
GASTEIGER

@<TRIPOS>ATOM
      1  N         -1.2640  -23.4850  -17.9110 N.3    78  LEU78      -0.1231
      2  CA        -0.2710  -22.4600  -17.5560 C.3    78  LEU78       0.1693
      3  C          0.1900  -22.7360  -16.1320 C.2    78  LEU78       0.2592
      4  O         -0.5760  -22.5580  -15.1750 O.2    78  LEU78      -0.2718
      5  CB        -0.8430  -21.0320  -17.6620 C.3    78  LEU78       0.0284
      6  CG         0.0810  -19.8420  -17.2930 C.3    78  LEU78       0.0019
      7  CD1        1.3650  -19.7900  -18.1190 C.3    78  LEU78       0.0001
      8  CD2       -0.6500  -18.5230  -17.4300 C.3    78  LEU78       0.0001
      9  N          1.4300  -23.2050  -16.0000 N.am   79  LEU79      -0.1966
     10  CA         2.0870  -23.3220  -14.7030 C.3    79  LEU79       0.1728
     11  C          2.7040  -21.9650  -14.3450 C.2    79  LEU79       0.2616
     12  O          2.8380  -21.0810  -15.1960 O.2    79  LEU79      -0.2715
     13  CB         3.1650  -24.4100  -14.7440 C.3    79  LEU79       0.0311
     14  CG         2.6850  -25.7930  -15.2050 C.3    79  LEU79       0.0022
     15  CD1        3.7930  -26.8350  -15.1320 C.3    79  LEU79       0.0001
     16  CD2        1.4830  -26.2450  -14.3850 C.3    79  LEU79       0.0001
     17  N          3.0620  -21.7820  -13.0830 N.am   80  TRP80      -0.1960
     18  CA         3.7910  -20.5770  -12.6810 C.3    80  TRP80       0.1771
     19  C          4.5950  -20.8560  -11.4180 C.2    80  TRP80       0.2620
     20  O          4.3220  -21.8170  -10.7090 O.2    80  TRP80      -0.2715
     21  CB         2.8410  -19.3930  -12.4380 C.3    80  TRP80       0.0590
     22  CG         1.6920  -19.7380  -11.6110 C.ar   80  TRP80       0.0006
     23  CD1        0.4600  -20.0920  -12.0490 C.ar   80  TRP80       0.0946
     24  CD2        1.6380  -19.7850  -10.1800 C.ar   80  TRP80       0.0152
     25  NE1       -0.3590  -20.3710  -10.9890 N.ar   80  TRP80      -0.2442
     26  CE2        0.3350  -20.1810   -9.8270 C.ar   80  TRP80       0.0810
     27  CE3        2.5600  -19.5220   -9.1640 C.ar   80  TRP80       0.0012
     28  CZ2       -0.0710  -20.3350   -8.5040 C.ar   80  TRP80       0.0191
     29  CZ3        2.1480  -19.6840   -7.8380 C.ar   80  TRP80       0.0001
     30  CH2        0.8490  -20.0800   -7.5280 C.ar   80  TRP80       0.0015
     31  N          5.5760  -20.0000  -11.1530 N.am   81  SER81      -0.1936
     32  CA         6.3290  -20.0680   -9.9180 C.3    81  SER81       0.2055
     33  C          6.4660  -18.6810   -9.2830 C.2    81  SER81       0.2642
     34  O          7.0860  -17.7900   -9.8510 O.2    81  SER81      -0.2714
     35  CB         7.7050  -20.6760  -10.1700 C.3    81  SER81       0.2130
     36  OG         8.2910  -21.0830   -8.9490 O.3    81  SER81      -0.2179
     37  N          5.8660  -18.5080   -8.1070 N.am   82  ARG82      -0.1977
     38  CA         5.9700  -17.2650   -7.3490 C.3    82  ARG82       0.1597
     39  C          5.4870  -16.0580   -8.1480 C.2    82  ARG82       0.2287
     40  O          6.0690  -14.9850   -8.0680 O.2    82  ARG82      -0.2864
     41  CB         7.4180  -17.0330   -6.8740 C.3    82  ARG82       0.0334
     42  CG         7.8800  -17.9330   -5.7510 C.3    82  ARG82       0.0492
     43  CD         8.6060  -19.1440   -6.2740 C.3    82  ARG82       0.2205
     44  NE         8.9560  -20.0740   -5.1930 N.pl3  82  ARG82      -0.0865
     45  CZ        10.0600  -20.0190   -4.4550 C.cat  82  ARG82       0.5346
     46  NH1       10.9700  -19.0660   -4.6530 N.pl3  82  ARG82       0.1354
     47  NH2       10.2570  -20.9310   -3.5050 N.pl3  82  ARG82       0.1354
     48  N          1.6800  -15.8550   -8.9250 N.3    84  LYS84      -0.1245
     49  CA         0.3270  -16.3760   -8.9510 C.3    84  LYS84       0.1561
     50  C         -0.6910  -15.4250   -9.5660 C.2    84  LYS84       0.2260
     51  O         -1.4680  -15.8000  -10.4600 O.2    84  LYS84      -0.2867
     52  CB        -0.1100  -16.6960   -7.5040 C.3    84  LYS84       0.0271
     53  CG        -1.5260  -17.2780   -7.3630 C.3    84  LYS84       0.0035
     54  CD        -1.7470  -17.9100   -5.9710 C.3    84  LYS84       0.0206
     55  CE        -3.1970  -18.3090   -5.7290 C.3    84  LYS84       0.1093
     56  NZ        -3.9780  -17.2850   -4.9820 N.3    84  LYS84      -0.1314
     57  N         -3.9880  -23.7810  -12.1260 N.3   100  LEU100     -0.1231
     58  CA        -4.5010  -24.7160  -11.1180 C.3   100  LEU100      0.1693
     59  C         -5.6760  -24.1230  -10.3450 C.2   100  LEU100      0.2591
     60  O         -6.6290  -24.8300   -9.9900 O.2   100  LEU100     -0.2718
     61  CB        -3.3850  -25.1240  -10.1550 C.3   100  LEU100      0.0284
     62  CG        -3.7050  -26.2210   -9.1430 C.3   100  LEU100      0.0019
     63  CD1       -4.0770  -27.5420   -9.8530 C.3   100  LEU100      0.0001
     64  CD2       -2.5610  -26.4340   -8.1500 C.3   100  LEU100      0.0001
     65  N         -5.6080  -22.8170  -10.1070 N.am  101  ALA101     -0.1980
     66  CA        -6.6900  -22.0860   -9.4520 C.3   101  ALA101      0.1597
     67  C         -8.0470  -22.2300  -10.1710 C.2   101  ALA101      0.2287
     68  O         -9.0960  -21.9920   -9.5620 O.2   101  ALA101     -0.2864
     69  CB        -6.3220  -20.6140   -9.3210 C.3   101  ALA101      0.0319
     70  N         -7.9290  -22.2330   -2.4460 N.3   110  ASP110     -0.1225
     71  CA        -7.3040  -20.9260   -2.6520 C.3   110  ASP110      0.1805
     72  C         -7.2520  -20.0370   -1.3980 C.2   110  ASP110      0.2597
     73  O         -8.2800  -19.7400   -0.7990 O.2   110  ASP110     -0.2718
     74  CB        -8.0490  -20.1590   -3.7570 C.3   110  ASP110      0.1424
     75  CG        -7.2830  -18.9390   -4.2450 C.2   110  ASP110      0.3668
     76  OD1       -6.0460  -18.9550   -4.1810 O.co2 110  ASP110     -0.2456
     77  OD2       -7.9120  -17.9740   -4.7130 O.co2 110  ASP110     -0.2456
     78  N         -6.0410  -19.6100   -1.0310 N.am  111  ASP111     -0.1974
     79  CA        -5.7990  -18.6890    0.0960 C.3   111  ASP111      0.1709
     80  C         -6.3930  -19.1030    1.4620 C.2   111  ASP111      0.2293
     81  O         -6.5830  -18.2670    2.3310 O.2   111  ASP111     -0.2864
     82  CB        -6.2730  -17.2760   -0.2800 C.3   111  ASP111      0.1436
     83  CG        -5.5560  -16.7240   -1.5210 C.2   111  ASP111      0.3671
     84  OD1       -4.7340  -17.4630   -2.1180 O.co2 111  ASP111     -0.2456
     85  OD2       -5.8110  -15.5600   -1.9070 O.co2 111  ASP111     -0.2456
     86  N         -1.7380  -28.1100    4.8230 N.3   140  VAL140     -0.1231
     87  CA        -1.7510  -27.1770    3.6970 C.3   140  VAL140      0.1692
     88  C         -0.6450  -27.4360    2.6770 C.2   140  VAL140      0.2592
     89  O         -0.9180  -27.5480    1.4900 O.2   140  VAL140     -0.2718
     90  CB        -1.6600  -25.6870    4.1530 C.3   140  VAL140      0.0266
     91  CG1       -1.5200  -24.7470    2.9430 C.3   140  VAL140      0.0020
     92  CG2       -2.8780  -25.3000    4.9820 C.3   140  VAL140      0.0020
     93  N          0.5990  -27.4960    3.1340 N.am  141  SER141     -0.1952
     94  CA         1.7160  -27.7780    2.2410 C.3   141  SER141      0.1924
     95  C          1.5470  -29.1230    1.5390 C.2   141  SER141      0.2314
     96  O          1.8270  -29.2460    0.3560 O.2   141  SER141     -0.2863
     97  CB         3.0250  -27.7640    3.0120 C.3   141  SER141      0.2116
     98  OG         3.1800  -26.5280    3.6650 O.3   141  SER141     -0.2180
     99  N         -1.1490  -29.0090   -1.2750 N.3   144  TRP144     -0.1241
    100  CA        -0.7010  -28.3380   -2.4950 C.3   144  TRP144      0.1605
    101  C          0.3230  -29.1620   -3.2380 C.2   144  TRP144      0.2264
    102  O          0.3380  -29.1680   -4.4630 O.2   144  TRP144     -0.2867
    103  CB        -0.1850  -26.9310   -2.2080 C.3   144  TRP144      0.0550
    104  CG        -1.2880  -26.0120   -1.9040 C.ar  144  TRP144      0.0003
    105  CD1       -1.5970  -25.4800   -0.6930 C.ar  144  TRP144      0.0946
    106  CD2       -2.2660  -25.5120   -2.8240 C.ar  144  TRP144      0.0152
    107  NE1       -2.6960  -24.6610   -0.7990 N.ar  144  TRP144     -0.2442
    108  CE2       -3.1280  -24.6640   -2.0970 C.ar  144  TRP144      0.0810
    109  CE3       -2.4790  -25.6750   -4.1980 C.ar  144  TRP144      0.0012
    110  CZ2       -4.2010  -23.9970   -2.6920 C.ar  144  TRP144      0.0191
    111  CZ3       -3.5450  -25.0170   -4.7900 C.ar  144  TRP144      0.0001
    112  CH2       -4.3950  -24.1880   -4.0390 C.ar  144  TRP144      0.0015
    113  N         -0.2820  -30.5750   -6.9080 N.3   148  SER148     -0.1217
    114  CA         0.7180  -30.1320   -7.8890 C.3   148  SER148      0.1889
    115  C          1.3880  -31.3000   -8.6480 C.2   148  SER148      0.2288
    116  O          1.5950  -31.2120   -9.8550 O.2   148  SER148     -0.2866
    117  CB         1.7790  -29.2630   -7.2060 C.3   148  SER148      0.2089
    118  OG         1.2110  -28.0800   -6.6650 O.3   148  SER148     -0.2183
    119  N         -1.1130  -32.6640  -11.0570 N.3   151  PHE151     -0.1241
    120  CA        -1.3630  -31.6770  -12.1120 C.3   151  PHE151      0.1605
    121  C         -0.2510  -31.6900  -13.1890 C.2   151  PHE151      0.2264
    122  O         -0.5400  -31.6660  -14.3890 O.2   151  PHE151     -0.2867
    123  CB        -1.5090  -30.2880  -11.4810 C.3   151  PHE151      0.0534
    124  CG        -2.1040  -29.2440  -12.3890 C.ar  151  PHE151     -0.0203
    125  CD1       -3.3060  -29.4660  -13.0440 C.ar  151  PHE151     -0.0042
    126  CD2       -1.4820  -28.0180  -12.5500 C.ar  151  PHE151     -0.0042
    127  CE1       -3.8560  -28.4870  -13.8610 C.ar  151  PHE151     -0.0003
    128  CE2       -2.0320  -27.0440  -13.3570 C.ar  151  PHE151     -0.0003
    129  CZ        -3.2180  -27.2780  -14.0100 C.ar  151  PHE151     -0.0000
    130  N         11.3830  -24.7840   -5.0100 N.3   175  SER175     -0.1202
    131  CA         9.9700  -24.4220   -5.0440 C.3   175  SER175      0.2020
    132  C          9.1130  -25.6270   -5.4720 C.2   175  SER175      0.2619
    133  O          9.6470  -26.6380   -5.9270 O.2   175  SER175     -0.2717
    134  CB         9.7580  -23.2920   -6.0380 C.3   175  SER175      0.2103
    135  OG         9.8620  -23.7650   -7.3710 O.3   175  SER175     -0.2182
    136  N          7.7940  -25.5050   -5.3350 N.am  176  THR176     -0.1938
    137  CA         6.8790  -26.5430   -5.7740 C.3   176  THR176      0.2028
    138  C          6.9490  -26.7740   -7.2930 C.2   176  THR176      0.2642
    139  O          6.9000  -27.9090   -7.7490 O.2   176  THR176     -0.2714
    140  CB         5.4190  -26.2430   -5.3740 C.3   176  THR176      0.1808
    141  OG1        5.3100  -26.1810   -3.9510 O.3   176  THR176     -0.2208
    142  CG2        4.4850  -27.3400   -5.9000 C.3   176  THR176      0.0379
    143  N          7.0520  -25.7050   -8.0690 N.am  177  PHE177     -0.1973
    144  CA         7.2400  -25.8420   -9.5180 C.3   177  PHE177      0.1639
    145  C          8.5040  -26.6230   -9.8450 C.2   177  PHE177      0.2290
    146  O          8.4660  -27.5930  -10.5910 O.2   177  PHE177     -0.2864
    147  CB         7.3080  -24.4870  -10.2170 C.3   177  PHE177      0.0560
    148  CG         7.6980  -24.5930  -11.6660 C.ar  177  PHE177     -0.0200
    149  CD1        6.8520  -25.1970  -12.5810 C.ar  177  PHE177     -0.0042
    150  CD2        8.9200  -24.1250  -12.1130 C.ar  177  PHE177     -0.0042
    151  CE1        7.2160  -25.3080  -13.9160 C.ar  177  PHE177     -0.0003
    152  CE2        9.2820  -24.2430  -13.4550 C.ar  177  PHE177     -0.0003
    153  CZ         8.4270  -24.8380  -14.3390 C.ar  177  PHE177     -0.0000
    154  N          6.7250  -30.3580   -9.9530 N.3   181  GLU181     -0.1245
    155  CA         6.0520  -30.2370  -11.2250 C.3   181  GLU181      0.1567
    156  C          6.9970  -30.6100  -12.3590 C.2   181  GLU181      0.2260
    157  O          6.7640  -31.5860  -13.0570 O.2   181  GLU181     -0.2867
    158  CB         5.4150  -28.8570  -11.3710 C.3   181  GLU181      0.0388
    159  CG         4.4630  -28.6040  -10.2270 C.3   181  GLU181      0.1160
    160  CD         3.5720  -27.4130  -10.4030 C.2   181  GLU181      0.3649
    161  OE1        3.9890  -26.4190  -11.0320 O.co2 181  GLU181     -0.2457
    162  OE2        2.4460  -27.4730   -9.8840 O.co2 181  GLU181     -0.2457
@<TRIPOS>BOND
     1     7     6    1
     2     1     2    1
     3     5     2    1
     4     5     6    1
     5     2     3    1
     6     8     6    1
     7     3     9   am
     8     3     4    2
     9     9    10    1
    10    14    15    1
    11    14    13    1
    12    14    16    1
    13    12    11    2
    14    13    10    1
    15    10    11    1
    16   122   121    2
    17    11    17   am
    18   153   151   ar
    19   153   152   ar
    20   129   127   ar
    21   129   128   ar
    22   151   149   ar
    23   127   125   ar
    24   152   150   ar
    25   128   126   ar
    26   121   120    1
    27    17    18    1
    28   157   156    2
    29   125   124   ar
    30    18    21    1
    31    18    19    1
    32   149   148   ar
    33   126   124   ar
    34    21    22    1
    35   124   123    1
    36   156   155    1
    37    57    58    1
    38   150   148   ar
    39   120   123    1
    40   120   119    1
    41    23    22   ar
    42    23    25   ar
    43   148   147    1
    44    22    24   ar
    45    19    31   am
    46    19    20    2
    47   158   155    1
    48   158   159    1
    49   155   154    1
    50    31    32    1
    51    58    59    1
    52    58    61    1
    53   161   160   ar
    54    25    26   ar
    55   146   145    2
    56    51    50    2
    57   160   159    1
    58   160   162   ar
    59    59    65   am
    60    59    60    2
    61   147   144    1
    62    24    26   ar
    63    24    27   ar
    64    67    68    2
    65    67    66    1
    66    35    32    1
    67    35    36    1
    68    61    62    1
    69    65    66    1
    70    32    33    1
    71   116   115    2
    72    63    62    1
    73    34    33    2
    74   145   144    1
    75    26    28   ar
    76    50    49    1
    77   144   143    1
    78    66    69    1
    79    33    37   am
    80    27    29   ar
    81    62    64    1
    82    49    48    1
    83    49    52    1
    84   115   114    1
    85    28    30   ar
    86    39    40    2
    87    39    38    1
    88    37    38    1
    89   143   138   am
    90   114   117    1
    91   114   113    1
    92    29    30   ar
    93   139   138    2
    94    52    53    1
    95   135   134    1
    96    53    54    1
    97    38    41    1
    98   138   137    1
    99   117   118    1
   100    41    42    1
   101    43    42    1
   102    43    44    1
   103   134   131    1
   104    54    55    1
   105   133   132    2
   106   142   140    1
   107   137   140    1
   108   137   136    1
   109    55    56    1
   110   132   136   am
   111   132   131    1
   112   140   141    1
   113    44    45    2
   114   131   130    1
   115   111   109   ar
   116   111   112   ar
   117    77    75   ar
   118    46    45    1
   119   102   101    2
   120    45    47    1
   121    75    76   ar
   122    75    74    1
   123   109   106   ar
   124   112   110   ar
   125    74    71    1
   126   101   100    1
   127   106   108   ar
   128   106   104   ar
   129   110   108   ar
   130    71    70    1
   131    71    72    1
   132   100   103    1
   133   100    99    1
   134   103   104    1
   135    84    83   ar
   136   108   107   ar
   137    85    83   ar
   138   104   105   ar
   139    83    82    1
   140    72    78   am
   141    72    73    2
   142    78    79    1
   143   107   105   ar
   144    82    79    1
   145    79    80    1
   146    96    95    2
   147    80    81    2
   148    89    88    2
   149    95    94    1
   150    94    97    1
   151    94    93    1
   152    88    93   am
   153    88    87    1
   154    91    90    1
   155    97    98    1
   156    87    90    1
   157    87    86    1
   158    90    92    1
