@<TRIPOS>MOLECULE
tmp/3oftC01.pdb
 105 99 0 0 0
SMALL
GASTEIGER

@<TRIPOS>ATOM
      1  N         17.9160   39.2070   -4.6640 N.3    72  LEU72      -0.1245
      2  CA        17.8650   39.9410   -3.3790 C.3    72  LEU72       0.1561
      3  C         17.2890   41.3390   -3.4910 C.2    72  LEU72       0.2260
      4  O         16.4520   41.7510   -2.6620 O.2    72  LEU72      -0.2867
      5  CB        19.2440   40.0250   -2.6740 C.3    72  LEU72       0.0270
      6  CG        19.2450   40.6930   -1.2860 C.3    72  LEU72       0.0019
      7  CD1       18.5320   39.8320   -0.2550 C.3    72  LEU72       0.0001
      8  CD2       20.6710   41.0350   -0.8220 C.3    72  LEU72       0.0001
      9  N         24.1920   43.5280   -5.1860 N.3    78  LEU78      -0.1245
     10  CA        23.9870   43.3800   -3.7500 C.3    78  LEU78       0.1561
     11  C         23.7320   41.9140   -3.3010 C.2    78  LEU78       0.2260
     12  O         24.2600   41.4610   -2.2610 O.2    78  LEU78      -0.2867
     13  CB        22.8670   44.3040   -3.2710 C.3    78  LEU78       0.0270
     14  CG        22.5370   44.1130   -1.7910 C.3    78  LEU78       0.0019
     15  CD1       23.6650   44.6370   -0.9190 C.3    78  LEU78       0.0001
     16  CD2       21.2210   44.7780   -1.4320 C.3    78  LEU78       0.0001
     17  N         22.6920   35.5280    1.1310 N.3    84  PHE84      -0.1241
     18  CA        22.0440   35.1560    2.3830 C.3    84  PHE84       0.1605
     19  C         21.4510   33.7480    2.2990 C.2    84  PHE84       0.2264
     20  O         20.8710   33.3560    1.2800 O.2    84  PHE84      -0.2867
     21  CB        20.9180   36.1520    2.7210 C.3    84  PHE84       0.0534
     22  CG        21.3930   37.5190    3.1390 C.ar   84  PHE84      -0.0203
     23  CD1       22.2230   37.6700    4.2260 C.ar   84  PHE84      -0.0042
     24  CD2       20.9400   38.6670    2.4700 C.ar   84  PHE84      -0.0042
     25  CE1       22.6140   38.9320    4.6570 C.ar   84  PHE84      -0.0003
     26  CE2       21.3100   39.9450    2.8880 C.ar   84  PHE84      -0.0003
     27  CZ        22.1570   40.0800    3.9940 C.ar   84  PHE84      -0.0000
     28  N         17.5930   33.1840    2.7280 N.3    87  LEU87      -0.1245
     29  CA        16.7520   34.1830    2.0220 C.3    87  LEU87       0.1561
     30  C         16.8990   34.1770    0.4870 C.2    87  LEU87       0.2260
     31  O         15.9270   34.4420   -0.2430 O.2    87  LEU87      -0.2867
     32  CB        17.0690   35.5860    2.5440 C.3    87  LEU87       0.0270
     33  CG        16.1820   36.7070    2.0180 C.3    87  LEU87       0.0019
     34  CD1       14.7740   36.6200    2.6050 C.3    87  LEU87       0.0001
     35  CD2       16.8290   38.0230    2.3360 C.3    87  LEU87       0.0001
     36  N         21.1730   40.5240    9.8700 N.3   227  PHE227     -0.1227
     37  CA        20.5290   41.5410    9.0400 C.3   227  PHE227      0.1736
     38  C         19.0110   41.3710    8.9090 C.2   227  PHE227      0.2596
     39  O         18.2970   42.3580    8.7650 O.2   227  PHE227     -0.2718
     40  CB        21.1950   41.6250    7.6780 C.3   227  PHE227      0.0547
     41  CG        22.5810   42.2500    7.7240 C.ar  227  PHE227     -0.0202
     42  CD1       22.7680   43.5290    8.2670 C.ar  227  PHE227     -0.0042
     43  CD2       23.6840   41.5680    7.2310 C.ar  227  PHE227     -0.0042
     44  CE1       24.0360   44.1280    8.3060 C.ar  227  PHE227     -0.0003
     45  CE2       24.9670   42.1550    7.2640 C.ar  227  PHE227     -0.0003
     46  CZ        25.1300   43.4460    7.8030 C.ar  227  PHE227     -0.0000
     47  N         18.5270   40.1340    8.9820 N.am  228  GLY228     -0.1957
     48  CA        17.0920   39.8510    8.8800 C.3   228  GLY228      0.1869
     49  C         16.3220   40.3590   10.0890 C.2   228  GLY228      0.2309
     50  O         15.1350   40.6970    9.9800 O.2   228  GLY228     -0.2863
     51  N         17.0600   45.6330   11.0950 N.3   231  ASP231     -0.1225
     52  CA        16.3010   46.7630   10.5670 C.3   231  ASP231      0.1805
     53  C         14.8070   46.4870   10.6280 C.2   231  ASP231      0.2598
     54  O         14.0100   47.3990   10.7740 O.2   231  ASP231     -0.2718
     55  CB        16.7470   47.1900    9.1620 C.3   231  ASP231      0.1424
     56  CG        16.6270   46.0810    8.1120 C.2   231  ASP231      0.3668
     57  OD1       16.2180   44.9200    8.4320 O.co2 231  ASP231     -0.2456
     58  OD2       16.9810   46.3880    6.9380 O.co2 231  ASP231     -0.2456
     59  N         14.4210   45.2300   10.5400 N.am  232  THR232     -0.1953
     60  CA        12.9620   44.9570   10.5380 C.3   232  THR232      0.1897
     61  C         12.3800   45.1940   11.9280 C.2   232  THR232      0.2313
     62  O         11.3520   45.8350   12.0780 O.2   232  THR232     -0.2863
     63  CB        12.6830   43.5240   10.1550 C.3   232  THR232      0.1794
     64  OG1       13.5510   42.6800   10.9380 O.3   232  THR232     -0.2208
     65  CG2       12.9380   43.3400    8.6560 C.3   232  THR232      0.0378
     66  N          8.0660   46.0210    4.9520 N.3   275  VAL275     -0.1231
     67  CA         9.0320   45.2210    4.1830 C.3   275  VAL275      0.1692
     68  C          8.5320   45.0400    2.7480 C.2   275  VAL275      0.2592
     69  O          7.3420   44.7490    2.5100 O.2   275  VAL275     -0.2718
     70  CB         9.3330   43.8700    4.8790 C.3   275  VAL275      0.0266
     71  CG1       10.3810   43.0470    4.0710 C.3   275  VAL275      0.0020
     72  CG2        9.8390   44.1470    6.3340 C.3   275  VAL275      0.0020
     73  N          9.4300   45.2450    1.7920 N.am  276  ALA276     -0.1966
     74  CA         9.1470   44.8500    0.3920 C.3   276  ALA276      0.1728
     75  C         10.2950   43.9660   -0.0950 C.2   276  ALA276      0.2616
     76  O         11.4120   44.0510    0.4380 O.2   276  ALA276     -0.2715
     77  CB         8.9790   46.0910   -0.4730 C.3   276  ALA276      0.0334
     78  N         10.0230   43.0570   -1.0470 N.am  277  VAL277     -0.1963
     79  CA        11.0740   42.1700   -1.4880 C.3   277  VAL277      0.1727
     80  C         11.2020   42.2070   -2.9980 C.2   277  VAL277      0.2616
     81  O         10.2560   42.6150   -3.6980 O.2   277  VAL277     -0.2715
     82  CB        10.8610   40.7120   -0.9960 C.3   277  VAL277      0.0290
     83  CG1       10.8150   40.6960    0.5350 C.3   277  VAL277      0.0023
     84  CG2        9.5500   40.0920   -1.5830 C.3   277  VAL277      0.0023
     85  N         12.3570   41.7460   -3.4700 N.am  278  SER278     -0.1950
     86  CA        12.6140   41.6680   -4.9160 C.3   278  SER278      0.1924
     87  C         12.6020   40.2190   -5.3730 C.2   278  SER278      0.2314
     88  O         12.9410   39.3040   -4.6050 O.2   278  SER278     -0.2863
     89  CB        13.9350   42.3330   -5.2630 C.3   278  SER278      0.2116
     90  OG        13.8970   43.7060   -4.8950 O.3   278  SER278     -0.2180
     91  N         13.7880   48.9910    1.1510 N.3   377  ASN377     -0.1225
     92  CA        13.2430   47.6320    1.2980 C.3   377  ASN377      0.1785
     93  C         12.5950   47.4380    2.6750 C.2   377  ASN377      0.2597
     94  O         11.6730   46.6340    2.8440 O.2   377  ASN377     -0.2718
     95  CB        14.3760   46.6140    1.1400 C.3   377  ASN377      0.1169
     96  CG        15.0540   46.6700   -0.2530 C.2   377  ASN377      0.2627
     97  OD1       14.4090   46.9150   -1.2800 O.2   377  ASN377     -0.2716
     98  ND2       16.3650   46.3970   -0.2780 N.am  377  ASN377     -0.0877
     99  N         13.1030   48.1520    3.6730 N.am  378  VAL378     -0.1980
    100  CA        12.4610   48.1620    4.9810 C.3   378  VAL378      0.1595
    101  C         12.2480   49.6180    5.3580 C.2   378  VAL378      0.2287
    102  O         13.1970   50.3470    5.7670 O.2   378  VAL378     -0.2864
    103  CB        13.3220   47.4430    6.0400 C.3   378  VAL378      0.0276
    104  CG1       12.6380   47.4820    7.4320 C.3   378  VAL378      0.0022
    105  CG2       13.6660   45.9820    5.5830 C.3   378  VAL378      0.0022
@<TRIPOS>BOND
     1    87    86    1
     2    87    88    2
     3    89    86    1
     4    89    90    1
     5     9    10    1
     6    86    85    1
     7     1     2    1
     8    10    11    1
     9    10    13    1
    10    81    80    2
    11     3     2    1
    12     3     4    2
    13    85    80   am
    14     2     5    1
    15    11    12    2
    16    13    14    1
    17    80    79    1
    18     5     6    1
    19    14    16    1
    20    14    15    1
    21    84    82    1
    22    79    78    1
    23    79    82    1
    24     6     8    1
    25     6     7    1
    26    97    96    2
    27    78    75   am
    28    82    83    1
    29    77    74    1
    30    98    96   am
    31    96    95    1
    32    31    30    2
    33    75    74    1
    34    75    76    2
    35    74    73    1
    36    30    29    1
    37    17    18    1
    38    95    92    1
    39    91    92    1
    40    20    19    2
    41    92    93    1
    42    73    68   am
    43    33    35    1
    44    33    32    1
    45    33    34    1
    46    29    32    1
    47    29    28    1
    48    19    18    1
    49    18    21    1
    50    24    26   ar
    51    24    22   ar
    52    69    68    2
    53    93    94    2
    54    93    99   am
    55    21    22    1
    56    68    67    1
    57    26    27   ar
    58    22    23   ar
    59    99   100    1
    60    27    25   ar
    61    71    70    1
    62    67    70    1
    63    67    66    1
    64    23    25   ar
    65    70    72    1
    66   100   101    1
    67   100   103    1
    68   101   102    2
    69   105   103    1
    70   103   104    1
    71    58    56   ar
    72    43    45   ar
    73    43    41   ar
    74    45    46   ar
    75    40    41    1
    76    40    37    1
    77    41    42   ar
    78    46    44   ar
    79    56    57   ar
    80    56    55    1
    81    42    44   ar
    82    65    63    1
    83    39    38    2
    84    48    47    1
    85    48    49    1
    86    38    47   am
    87    38    37    1
    88    37    36    1
    89    55    52    1
    90    50    49    2
    91    63    60    1
    92    63    64    1
    93    60    59    1
    94    60    61    1
    95    59    53   am
    96    52    53    1
    97    52    51    1
    98    53    54    2
    99    61    62    2
