@<TRIPOS>MOLECULE
tmp/3ofuA01.pdb
 128 119 0 0 0
SMALL
GASTEIGER

@<TRIPOS>ATOM
      1  N         14.1220    5.6240   32.5310 N.3    72  LEU72      -0.1231
      2  CA        13.3050    6.8450   32.2620 C.3    72  LEU72       0.1693
      3  C         14.0960    8.0810   32.2440 C.2    72  LEU72       0.2591
      4  O         13.9200    8.9240   31.3880 O.2    72  LEU72      -0.2718
      5  CB        12.0740    7.0590   33.2020 C.3    72  LEU72       0.0284
      6  CG        11.1200    8.2610   32.9920 C.3    72  LEU72       0.0019
      7  CD1       10.2860    8.2600   31.7360 C.3    72  LEU72       0.0001
      8  CD2       10.2500    8.4730   34.2180 C.3    72  LEU72       0.0001
      9  N         14.9400    8.2220   33.2080 N.am   73  ALA73      -0.1980
     10  CA        15.7530    9.3790   33.2490 C.3    73  ALA73       0.1597
     11  C         17.0540    8.9300   33.8570 C.2    73  ALA73       0.2287
     12  O         17.1570    7.8150   34.3930 O.2    73  ALA73      -0.2864
     13  CB        15.1060   10.4960   34.0840 C.3    73  ALA73       0.0319
     14  N         13.5770    8.0890   39.6520 N.3    78  LEU78      -0.1245
     15  CA        12.5030    8.7420   38.9490 C.3    78  LEU78       0.1561
     16  C         11.7170    7.7370   38.0300 C.2    78  LEU78       0.2260
     17  O         10.4500    7.7470   37.9430 O.2    78  LEU78      -0.2867
     18  CB        13.0800    9.9260   38.1890 C.3    78  LEU78       0.0270
     19  CG        12.2410   11.2290   38.1170 C.3    78  LEU78       0.0019
     20  CD1       13.0610   12.4930   37.8820 C.3    78  LEU78       0.0001
     21  CD2       11.1260   11.1080   36.9840 C.3    78  LEU78       0.0001
     22  N          7.4960    6.8850   38.4580 N.3    82  MET82      -0.1245
     23  CA         6.5240    7.1110   37.4310 C.3    82  MET82       0.1570
     24  C          6.0820    5.8470   36.6670 C.2    82  MET82       0.2261
     25  O          4.9220    5.7290   36.3630 O.2    82  MET82      -0.2867
     26  CB         6.9290    8.1230   36.3880 C.3    82  MET82       0.0387
     27  CG         7.0890    9.4610   36.8310 C.3    82  MET82       0.0595
     28  SD         5.7230   10.2020   37.5330 S.3    82  MET82      -0.1393
     29  CE         6.5110   11.3610   38.6220 C.3    82  MET82       0.0692
     30  N          5.7570    4.8700   33.5500 N.3    84  PHE84      -0.1241
     31  CA         4.9470    5.1940   32.4340 C.3    84  PHE84       0.1605
     32  C          4.5090    3.9850   31.5340 C.2    84  PHE84       0.2264
     33  O          5.3410    3.2380   31.1300 O.2    84  PHE84      -0.2867
     34  CB         5.6640    6.3670   31.5990 C.3    84  PHE84       0.0534
     35  CG         5.7480    7.7180   32.3310 C.ar   84  PHE84      -0.0203
     36  CD1        4.6140    8.3830   32.7780 C.ar   84  PHE84      -0.0042
     37  CD2        6.9360    8.2930   32.5800 C.ar   84  PHE84      -0.0042
     38  CE1        4.6800    9.6330   33.4390 C.ar   84  PHE84      -0.0003
     39  CE2        7.0430    9.4930   33.2810 C.ar   84  PHE84      -0.0003
     40  CZ         5.9200   10.1620   33.7020 C.ar   84  PHE84      -0.0000
     41  N          5.6230    4.1050   27.8220 N.3    87  LEU87      -0.1245
     42  CA         6.8460    4.7470   27.4890 C.3    87  LEU87       0.1561
     43  C          7.9540    4.0630   28.0910 C.2    87  LEU87       0.2260
     44  O          9.0250    4.1050   27.5690 O.2    87  LEU87      -0.2867
     45  CB         6.7910    6.2660   27.8360 C.3    87  LEU87       0.0270
     46  CG         8.2440    6.8520   27.8810 C.3    87  LEU87       0.0019
     47  CD1        8.8420    7.2320   26.4220 C.3    87  LEU87       0.0001
     48  CD2        8.5160    7.9010   28.9490 C.3    87  LEU87       0.0001
     49  N          4.5010   14.0970   43.1840 N.3   182  LEU182     -0.1245
     50  CA         4.1140   14.4300   41.8160 C.3   182  LEU182      0.1561
     51  C          3.2370   13.3630   41.2030 C.2   182  LEU182      0.2260
     52  O          2.2680   13.6670   40.5410 O.2   182  LEU182     -0.2867
     53  CB         5.3380   14.5900   40.9650 C.3   182  LEU182      0.0270
     54  CG         5.0950   15.2730   39.6390 C.3   182  LEU182      0.0019
     55  CD1        4.2810   16.5100   39.7740 C.3   182  LEU182      0.0001
     56  CD2        6.4740   15.6310   38.9830 C.3   182  LEU182      0.0001
     57  N          0.8980    8.8020   31.8330 N.3   230  ASN230     -0.1240
     58  CA         1.6720    8.8660   30.6270 C.3   230  ASN230      0.1653
     59  C          1.0480    9.6980   29.4260 C.2   230  ASN230      0.2266
     60  O          1.7670   10.4990   28.7670 O.2   230  ASN230     -0.2867
     61  CB         2.1920    7.4180   30.2480 C.3   230  ASN230      0.1155
     62  CG         3.1940    7.4210   29.1080 C.2   230  ASN230      0.2627
     63  OD1        3.6670    8.5220   28.6290 O.2   230  ASN230     -0.2716
     64  ND2        3.5050    6.2460   28.6140 N.am  230  ASN230     -0.0877
     65  N          1.0230   13.4570   30.9560 N.3   233  PHE233     -0.1227
     66  CA         2.3510   14.0650   30.9610 C.3   233  PHE233      0.1736
     67  C          2.9360   14.1950   29.5680 C.2   233  PHE233      0.2596
     68  O          3.4400   15.2860   29.2160 O.2   233  PHE233     -0.2718
     69  CB         3.3220   13.3490   31.9180 C.3   233  PHE233      0.0547
     70  CG         3.1630   13.7720   33.4130 C.ar  233  PHE233     -0.0202
     71  CD1        3.2240   15.0940   33.8210 C.ar  233  PHE233     -0.0042
     72  CD2        2.8870   12.8520   34.3670 C.ar  233  PHE233     -0.0042
     73  CE1        2.9900   15.4570   35.0990 C.ar  233  PHE233     -0.0003
     74  CE2        2.6630   13.2600   35.7220 C.ar  233  PHE233     -0.0003
     75  CZ         2.7530   14.5490   36.0770 C.ar  233  PHE233     -0.0000
     76  N          2.8390   13.1090   28.7480 N.am  234  GLY234     -0.1957
     77  CA         3.3790   13.0570   27.3830 C.3   234  GLY234      0.1869
     78  C          2.7920   14.1890   26.5480 C.2   234  GLY234      0.2309
     79  O          3.3480   14.5920   25.5200 O.2   234  GLY234     -0.2863
     80  N          4.2260   19.0610   28.7830 N.3   237  ASP237     -0.1225
     81  CA         5.5370   19.6370   28.6250 C.3   237  ASP237      0.1805
     82  C          5.9900   19.7210   27.1670 C.2   237  ASP237      0.2598
     83  O          6.4400   20.7930   26.7550 O.2   237  ASP237     -0.2718
     84  CB         6.6100   18.9810   29.5100 C.3   237  ASP237      0.1424
     85  CG         6.2380   17.4520   29.9230 C.2   237  ASP237      0.3668
     86  OD1        6.9440   16.5370   29.3390 O.co2 237  ASP237     -0.2456
     87  OD2        5.2680   17.1800   30.8030 O.co2 237  ASP237     -0.2456
     88  N          5.8390   18.6730   26.3660 N.am  238  THR238     -0.1953
     89  CA         6.3790   18.6910   25.0100 C.3   238  THR238      0.1897
     90  C          5.5640   19.6220   24.1280 C.2   238  THR238      0.2313
     91  O          6.1180   20.5260   23.4740 O.2   238  THR238     -0.2863
     92  CB         6.3440   17.3040   24.3440 C.3   238  THR238      0.1794
     93  OG1        4.9880   16.8990   24.3740 O.3   238  THR238     -0.2208
     94  CG2        7.0470   16.3240   25.0740 C.3   238  THR238      0.0378
     95  N         13.2490   17.5160   22.6940 N.3   281  VAL281     -0.1231
     96  CA        13.1310   16.4210   23.5660 C.3   281  VAL281      0.1692
     97  C         14.4040   15.5620   23.6630 C.2   281  VAL281      0.2592
     98  O         15.1200   15.4210   22.7200 O.2   281  VAL281     -0.2718
     99  CB        11.8350   15.5310   23.2170 C.3   281  VAL281      0.0266
    100  CG1       11.7470   14.1830   24.1680 C.3   281  VAL281      0.0020
    101  CG2       10.4300   16.3340   23.3240 C.3   281  VAL281      0.0020
    102  N         14.7030   14.9260   24.7810 N.am  282  ALA282     -0.1966
    103  CA        15.8930   14.0550   24.9090 C.3   282  ALA282      0.1728
    104  C         15.5480   12.8160   25.8070 C.2   282  ALA282      0.2612
    105  O         14.8840   12.9610   26.8430 O.2   282  ALA282     -0.2715
    106  CB        17.0620   14.8030   25.4750 C.3   282  ALA282      0.0334
    107  N         15.9870   11.6340   25.4450 N.am  283  VAL283     -0.2031
    108  CA        15.6420   10.5660   26.2480 C.3   283  VAL283      0.1282
    109  C         16.8480    9.7450   26.7690 C.3   283  VAL283      0.2035
    110  O         18.0180    9.7890   26.1980 O.3   283  VAL283     -0.2185
    111  CB        14.7190    9.6260   25.5230 C.3   283  VAL283      0.0226
    112  CG1       13.4040   10.2290   25.2950 C.3   283  VAL283      0.0018
    113  CG2       15.3580    9.0260   24.2660 C.3   283  VAL283      0.0018
    114  N         15.2160   17.5360   29.8930 N.3   383  ASN383     -0.1225
    115  CA        14.7480   16.6050   28.9180 C.3   383  ASN383      0.1785
    116  C         13.8230   17.2530   27.9660 C.2   383  ASN383      0.2597
    117  O         13.7690   16.8520   26.8290 O.2   383  ASN383     -0.2718
    118  CB        14.0470   15.4910   29.6410 C.3   383  ASN383      0.1169
    119  CG        15.0400   14.7070   30.4940 C.2   383  ASN383      0.2627
    120  OD1       16.2590   14.6420   30.1930 O.2   383  ASN383     -0.2716
    121  ND2       14.5620   14.1730   31.5880 N.am  383  ASN383     -0.0877
    122  N         13.0680   18.2380   28.4170 N.am  384  VAL384     -0.1980
    123  CA        12.2040   18.9420   27.4750 C.3   384  VAL384      0.1595
    124  C         12.5880   20.4650   27.4310 C.2   384  VAL384      0.2287
    125  O         12.1350   21.2750   28.2680 O.2   384  VAL384     -0.2864
    126  CB        10.6660   18.7140   27.7630 C.3   384  VAL384      0.0276
    127  CG1        9.8470   19.6340   26.8500 C.3   384  VAL384      0.0022
    128  CG2       10.2470   17.2730   27.5580 C.3   384  VAL384      0.0022
@<TRIPOS>BOND
     1    95    96    1
     2    98    97    2
     3    99   101    1
     4    99    96    1
     5    99   100    1
     6    91    90    2
     7    96    97    1
     8    97   102   am
     9    90    89    1
    10   113   111    1
    11    92    93    1
    12    92    89    1
    13    92    94    1
    14   102   103    1
    15   103   106    1
    16   103   104    1
    17    89    88    1
    18   112   111    1
    19   107   104   am
    20   107   108    1
    21    79    78    2
    22   111   108    1
    23   104   105    2
    24   110   109    1
    25   108   109    1
    26    88    82   am
    27    47    46    1
    28    78    77    1
    29    83    82    2
    30   117   116    2
    31   127   126    1
    32    82    81    1
    33    77    76    1
    34   124   123    1
    35   124   125    2
    36   123   126    1
    37   123   122    1
    38    42    41    1
    39    42    45    1
    40    42    43    1
    41   128   126    1
    42    44    43    2
    43    45    46    1
    44    46    48    1
    45   116   122   am
    46   116   115    1
    47    64    62   am
    48    81    80    1
    49    81    84    1
    50    63    62    2
    51    76    67   am
    52    60    59    2
    53   115   118    1
    54   115   114    1
    55    62    61    1
    56    68    67    2
    57    86    85   ar
    58    59    58    1
    59    84    85    1
    60    67    66    1
    61   118   119    1
    62    85    87   ar
    63   120   119    2
    64    61    58    1
    65   119   121   am
    66    58    57    1
    67    65    66    1
    68    66    69    1
    69    33    32    2
    70     4     3    2
    71    32    31    1
    72    34    35    1
    73    34    31    1
    74     7     6    1
    75    69    70    1
    76     3     2    1
    77     3     9   am
    78     2     1    1
    79     2     5    1
    80    35    37   ar
    81    35    36   ar
    82    31    30    1
    83    37    39   ar
    84    36    38   ar
    85     6     5    1
    86     6     8    1
    87     9    10    1
    88    10    11    1
    89    10    13    1
    90    39    40   ar
    91    70    71   ar
    92    70    72   ar
    93    38    40   ar
    94    71    73   ar
    95    11    12    2
    96    72    74   ar
    97    73    75   ar
    98    74    75   ar
    99    25    24    2
   100    26    27    1
   101    26    23    1
   102    24    23    1
   103    27    28    1
   104    21    19    1
   105    23    22    1
   106    28    29    1
   107    20    19    1
   108    17    16    2
   109    16    15    1
   110    19    18    1
   111    18    15    1
   112    15    14    1
   113    56    54    1
   114    54    55    1
   115    54    53    1
   116    52    51    2
   117    53    50    1
   118    51    50    1
   119    50    49    1
