@<TRIPOS>MOLECULE
tmp/3og2A01.pdb
 236 234 0 0 0
SMALL
GASTEIGER

@<TRIPOS>ATOM
      1  N        -12.8440   -0.3550   -0.0450 N.3   103  ASN103     -0.1240
      2  CA       -12.3570   -1.7210    0.2730 C.3   103  ASN103      0.1653
      3  C        -11.0040   -1.5680    0.9620 C.2   103  ASN103      0.2266
      4  O        -10.9870   -1.1890    2.1380 O.2   103  ASN103     -0.2867
      5  CB       -12.3510   -2.6020   -0.9970 C.3   103  ASN103      0.1155
      6  CG       -12.4880   -4.0640   -0.6440 C.2   103  ASN103      0.2627
      7  OD1      -13.4810   -4.4770    0.0240 O.2   103  ASN103     -0.2716
      8  ND2      -11.5220   -4.8940   -1.0100 N.am  103  ASN103     -0.0877
      9  N         -8.6720   -3.0820    2.3910 N.3   105  GLU105     -0.1245
     10  CA        -8.2970   -3.7470    3.6520 C.3   105  GLU105      0.1567
     11  C         -8.2880   -2.7780    4.8460 C.2   105  GLU105      0.2260
     12  O         -7.5520   -2.9300    5.8080 O.2   105  GLU105     -0.2867
     13  CB        -6.9570   -4.4830    3.5270 C.3   105  GLU105      0.0388
     14  CG        -7.0990   -5.7360    2.6180 C.3   105  GLU105      0.1160
     15  CD        -7.1660   -5.3940    1.1400 C.2   105  GLU105      0.3649
     16  OE1       -6.1950   -4.7700    0.6080 O.co2 105  GLU105     -0.2457
     17  OE2       -8.1480   -5.8050    0.4640 O.co2 105  GLU105     -0.2457
     18  N         -2.8300  -14.9460   -3.5870 N.3   227  PHE227     -0.1227
     19  CA        -2.3310  -14.5170   -2.2790 C.3   227  PHE227      0.1736
     20  C         -1.8850  -15.7120   -1.4570 C.2   227  PHE227      0.2595
     21  O         -1.8260  -15.6260   -0.2240 O.2   227  PHE227     -0.2718
     22  CB        -3.4150  -13.7130   -1.5500 C.3   227  PHE227      0.0547
     23  CG        -3.9720  -12.5980   -2.4300 C.ar  227  PHE227     -0.0202
     24  CD1       -5.2150  -12.7340   -3.0390 C.ar  227  PHE227     -0.0042
     25  CD2       -3.2240  -11.4490   -2.6270 C.ar  227  PHE227     -0.0042
     26  CE1       -5.7020  -11.7080   -3.8410 C.ar  227  PHE227     -0.0003
     27  CE2       -3.7170  -10.4220   -3.4140 C.ar  227  PHE227     -0.0003
     28  CZ        -4.9610  -10.5570   -4.0250 C.ar  227  PHE227     -0.0000
     29  N         -1.5470  -16.8240   -2.1050 N.am  228  ASP228     -0.1974
     30  CA        -1.0610  -17.9420   -1.3060 C.3   228  ASP228      0.1709
     31  C          0.4260  -17.8320   -0.9870 C.2   228  ASP228      0.2293
     32  O          1.2450  -18.6390   -1.4770 O.2   228  ASP228     -0.2864
     33  CB        -1.3500  -19.2490   -2.0500 C.3   228  ASP228      0.1436
     34  CG        -1.1700  -20.4750   -1.1700 C.2   228  ASP228      0.3671
     35  OD1       -1.2910  -20.2920    0.0740 O.co2 228  ASP228     -0.2456
     36  OD2       -0.9260  -21.5390   -1.7560 O.co2 228  ASP228     -0.2456
     37  N          1.6200  -18.7990    1.5230 N.3   230  ALA230     -0.1245
     38  CA         2.0980  -20.0560    2.0450 C.3   230  ALA230      0.1562
     39  C          3.0950  -20.7460    1.1150 C.2   230  ALA230      0.2260
     40  O          3.9690  -21.4630    1.5970 O.2   230  ALA230     -0.2867
     41  CB         0.9880  -21.0910    2.2250 C.3   230  ALA230      0.0290
     42  N         -2.0600   -8.9060    0.5610 N.3   267  PHE267     -0.1241
     43  CA        -2.3420   -8.6820    1.9800 C.3   267  PHE267      0.1605
     44  C         -2.0640   -9.9950    2.7160 C.2   267  PHE267      0.2264
     45  O         -1.8520  -11.0700    2.1270 O.2   267  PHE267     -0.2867
     46  CB        -3.7590   -8.1800    2.1680 C.3   267  PHE267      0.0534
     47  CG        -4.8920   -9.0190    1.6010 C.ar  267  PHE267     -0.0203
     48  CD1       -5.3120  -10.1870    2.2450 C.ar  267  PHE267     -0.0042
     49  CD2       -5.5600   -8.6700    0.4350 C.ar  267  PHE267     -0.0042
     50  CE1       -6.3470  -11.0020    1.7770 C.ar  267  PHE267     -0.0003
     51  CE2       -6.6060   -9.4710   -0.0360 C.ar  267  PHE267     -0.0003
     52  CZ        -7.0040  -10.6160    0.6240 C.ar  267  PHE267     -0.0000
     53  N         -3.3680  -12.0680    6.4550 N.3   269  PRO269     -0.2102
     54  CA        -4.2930  -12.0560    7.5860 C.3   269  PRO269      0.1504
     55  C         -3.5820  -12.2720    8.9180 C.2   269  PRO269      0.2576
     56  O         -2.4230  -12.7040    8.9780 O.2   269  PRO269     -0.2718
     57  CB        -5.2060  -13.2910    7.3470 C.3   269  PRO269      0.0282
     58  CG        -4.2500  -14.2450    6.6340 C.3   269  PRO269      0.0208
     59  CD        -3.3560  -13.3980    5.7390 C.3   269  PRO269      0.0893
     60  N         -4.3140  -11.9770    9.9920 N.am  270  PHE270     -0.1963
     61  CA        -3.8730  -12.5340   11.2610 C.3   270  PHE270      0.1771
     62  C         -3.6400  -14.0600   11.0800 C.2   270  PHE270      0.2620
     63  O         -4.4070  -14.7040   10.3590 O.2   270  PHE270     -0.2715
     64  CB        -4.9080  -12.2750   12.3420 C.3   270  PHE270      0.0574
     65  CG        -4.7470  -10.9620   13.0700 C.ar  270  PHE270     -0.0200
     66  CD1       -3.7440  -10.7910   14.0450 C.ar  270  PHE270     -0.0042
     67  CD2       -5.6330   -9.9180   12.7920 C.ar  270  PHE270     -0.0042
     68  CE1       -3.6100   -9.5950   14.7420 C.ar  270  PHE270     -0.0003
     69  CE2       -5.4950   -8.7160   13.4760 C.ar  270  PHE270     -0.0003
     70  CZ        -4.5140   -8.5530   14.4460 C.ar  270  PHE270     -0.0000
     71  N         -2.6190  -14.5670   11.7520 N.am  271  GLY271     -0.1940
     72  CA        -2.2160  -15.9790   11.6230 C.3   271  GLY271      0.2014
     73  C         -1.6140  -16.2650   10.2420 C.2   271  GLY271      0.2639
     74  O         -1.4760  -17.4370    9.8650 O.2   271  GLY271     -0.2714
     75  N         -1.2100  -15.2480    9.4970 N.am  272  GLY272     -0.1939
     76  CA        -0.6690  -15.3860    8.1570 C.3   272  GLY272      0.2014
     77  C          0.7930  -15.7120    8.1540 C.2   272  GLY272      0.2638
     78  O          1.4010  -16.1750    9.1240 O.2   272  GLY272     -0.2714
     79  N          1.3770  -15.4550    6.9870 N.am  273  TRP273     -0.1973
     80  CA         2.7120  -15.9470    6.6850 C.3   273  TRP273      0.1640
     81  C          3.7780  -14.8740    6.8490 C.2   273  TRP273      0.2290
     82  O          4.9850  -15.1730    6.7740 O.2   273  TRP273     -0.2864
     83  CB         2.8190  -16.5170    5.2410 C.3   273  TRP273      0.0576
     84  CG         1.8980  -17.7040    5.1800 C.ar  273  TRP273      0.0006
     85  CD1        0.6550  -17.6670    4.5980 C.ar  273  TRP273      0.0946
     86  CD2        2.0870  -19.0030    5.7000 C.ar  273  TRP273      0.0152
     87  NE1        0.0880  -18.9170    4.7360 N.ar  273  TRP273     -0.2442
     88  CE2        0.9410  -19.7440    5.4000 C.ar  273  TRP273      0.0810
     89  CE3        3.1400  -19.6320    6.3830 C.ar  273  TRP273      0.0012
     90  CZ2        0.7740  -21.0860    5.7550 C.ar  273  TRP273      0.0191
     91  CZ3        2.9790  -20.9770    6.7440 C.ar  273  TRP273      0.0001
     92  CH2        1.8160  -21.6650    6.4240 C.ar  273  TRP273      0.0015
     93  N         -8.9410   -3.4200    8.5870 N.3   318  HIS318     -0.1241
     94  CA       -10.0400   -4.3690    8.8100 C.3   318  HIS318      0.1621
     95  C         -9.5910   -5.6320    9.5020 C.2   318  HIS318      0.2264
     96  O         -8.3710   -5.8750    9.6290 O.2   318  HIS318     -0.2867
     97  CB       -10.6860   -4.6930    7.4290 C.3   318  HIS318      0.0745
     98  CG        -9.9400   -5.6810    6.6010 C.ar  318  HIS318      0.0817
     99  ND1      -10.6220   -6.5280    5.7360 N.ar  318  HIS318     -0.2268
    100  CD2       -8.6230   -5.9270    6.4270 C.ar  318  HIS318      0.1154
    101  CE1       -9.7360   -7.2670    5.1070 C.ar  318  HIS318      0.1986
    102  NE2       -8.5090   -6.9450    5.5000 N.ar  318  HIS318     -0.2212
    103  N         -9.4400   -8.6310    8.4820 N.3   320  GLY320     -0.1225
    104  CA        -8.7300   -9.5690    7.6000 C.3   320  GLY320      0.1811
    105  C         -7.2500   -9.2960    7.4450 C.2   320  GLY320      0.2280
    106  O         -6.6000   -9.9840    6.6160 O.2   320  GLY320     -0.2866
    107  N         -8.6420  -17.0420   17.6590 N.3   738  PHE738     -0.1227
    108  CA        -7.8050  -17.6620   16.6360 C.3   738  PHE738      0.1736
    109  C         -8.1170  -17.0110   15.2900 C.2   738  PHE738      0.2595
    110  O         -9.1060  -16.3050   15.1380 O.2   738  PHE738     -0.2718
    111  CB        -7.9370  -19.1750   16.6120 C.3   738  PHE738      0.0547
    112  CG        -9.3140  -19.7900   16.5080 C.ar  738  PHE738     -0.0202
    113  CD1      -10.0730  -20.0110   17.6510 C.ar  738  PHE738     -0.0042
    114  CD2       -9.8180  -20.1680   15.2490 C.ar  738  PHE738     -0.0042
    115  CE1      -11.3240  -20.6130   17.5280 C.ar  738  PHE738     -0.0003
    116  CE2      -11.0670  -20.7850   15.1170 C.ar  738  PHE738     -0.0003
    117  CZ       -11.8090  -21.0280   16.2710 C.ar  738  PHE738     -0.0000
    118  N         -7.2310  -17.2630   14.3300 N.am  739  ASP739     -0.1960
    119  CA        -7.3340  -16.5290   13.0510 C.3   739  ASP739      0.1840
    120  C         -8.6950  -16.6680   12.4040 C.2   739  ASP739      0.2621
    121  O         -9.2200  -15.7000   11.8140 O.2   739  ASP739     -0.2715
    122  CB        -6.1870  -16.9760   12.1110 C.3   739  ASP739      0.1450
    123  CG        -6.2720  -18.4020   11.6580 C.2   739  ASP739      0.3671
    124  OD1       -6.9670  -19.2460   12.3010 O.co2 739  ASP739     -0.2456
    125  OD2       -5.6430  -18.7160   10.6010 O.co2 739  ASP739     -0.2456
    126  N         -9.3000  -17.8420   12.4730 N.am  740  ALA740     -0.1977
    127  CA       -10.5410  -18.1330   11.7590 C.3   740  ALA740      0.1597
    128  C        -11.7780  -17.7760   12.5520 C.2   740  ALA740      0.2287
    129  O        -12.9070  -18.0120   12.0750 O.2   740  ALA740     -0.2864
    130  CB       -10.6000  -19.6280   11.4390 C.3   740  ALA740      0.0319
    131  N        -15.2210   -5.3940    5.6310 N.3   772  GLU772     -0.1245
    132  CA       -15.4830   -4.8480    4.3220 C.3   772  GLU772      0.1567
    133  C        -16.8790   -5.2110    3.8160 C.2   772  GLU772      0.2260
    134  O        -17.6480   -5.9590    4.4420 O.2   772  GLU772     -0.2867
    135  CB       -14.3900   -5.3650    3.3260 C.3   772  GLU772      0.0388
    136  CG       -13.0510   -4.6830    3.5960 C.3   772  GLU772      0.1160
    137  CD       -11.9460   -5.3090    2.7730 C.2   772  GLU772      0.3649
    138  OE1      -11.9940   -6.5860    2.5620 O.co2 772  GLU772     -0.2457
    139  OE2      -11.0400   -4.5890    2.3370 O.co2 772  GLU772     -0.2457
    140  N        -17.5800   -5.9310    0.1860 N.3   774  TRP774     -0.1241
    141  CA       -17.1670   -6.0800   -1.1980 C.3   774  TRP774      0.1605
    142  C        -18.2810   -6.5220   -2.1090 C.2   774  TRP774      0.2264
    143  O        -18.2350   -6.2580   -3.3230 O.2   774  TRP774     -0.2867
    144  CB       -15.9670   -7.0570   -1.3140 C.3   774  TRP774      0.0550
    145  CG       -15.4210   -6.9950   -2.7070 C.ar  774  TRP774      0.0003
    146  CD1      -14.5140   -6.1030   -3.1960 C.ar  774  TRP774      0.0946
    147  CD2      -15.7500   -7.8670   -3.7920 C.ar  774  TRP774      0.0152
    148  NE1      -14.2590   -6.3540   -4.5040 N.ar  774  TRP774     -0.2442
    149  CE2      -14.9980   -7.4340   -4.9150 C.ar  774  TRP774      0.0810
    150  CE3      -16.6360   -8.9680   -3.8470 C.ar  774  TRP774      0.0012
    151  CZ2      -15.0880   -8.0690   -6.1360 C.ar  774  TRP774      0.0191
    152  CZ3      -16.7200   -9.6080   -5.0910 C.ar  774  TRP774      0.0001
    153  CH2      -15.9550   -9.1440   -6.1740 C.ar  774  TRP774      0.0015
    154  N          8.7110  -13.6320   20.8230 N.3   893  ASN893     -0.1240
    155  CA         7.5920  -14.5480   20.9980 C.3   893  ASN893      0.1653
    156  C          8.1020  -15.8810   21.5250 C.2   893  ASN893      0.2266
    157  O          8.6570  -16.6620   20.7290 O.2   893  ASN893     -0.2867
    158  CB         6.8570  -14.7720   19.6870 C.3   893  ASN893      0.1155
    159  CG         5.6860  -15.6970   19.8620 C.2   893  ASN893      0.2627
    160  OD1        5.1770  -15.8990   20.9840 O.2   893  ASN893     -0.2716
    161  ND2        5.2160  -16.2920   18.7730 N.am  893  ASN893     -0.0877
    162  N          7.8220  -19.5010   23.0170 N.3   895  THR895     -0.1218
    163  CA         6.9400  -20.5720   22.5840 C.3   895  THR895      0.1862
    164  C          6.0980  -20.9830   23.7700 C.2   895  THR895      0.2287
    165  O          4.8980  -21.2390   23.7280 O.2   895  THR895     -0.2866
    166  CB         7.6660  -21.8040   22.0260 C.3   895  THR895      0.1770
    167  OG1        7.2450  -22.0400   20.6650 O.3   895  THR895     -0.2211
    168  CG2        7.3280  -23.0880   22.7760 C.3   895  THR895      0.0375
    169  N         -0.5910   -6.4410   18.8920 N.3   914  TYR914     -0.1227
    170  CA         0.2070   -7.6530   18.9810 C.3   914  TYR914      0.1736
    171  C         -0.6390   -8.7280   19.6270 C.2   914  TYR914      0.2595
    172  O         -1.2120   -8.5070   20.6870 O.2   914  TYR914     -0.2718
    173  CB         1.4370   -7.3670   19.8710 C.3   914  TYR914      0.0548
    174  CG         2.3060   -8.6040   20.0550 C.ar  914  TYR914     -0.0200
    175  CD1        3.1200   -9.0140   19.0000 C.ar  914  TYR914     -0.0009
    176  CD2        2.2860   -9.3270   21.2240 C.ar  914  TYR914     -0.0009
    177  CE1        3.9190  -10.1540   19.1380 C.ar  914  TYR914      0.0417
    178  CE2        3.0720  -10.4680   21.4290 C.ar  914  TYR914      0.0417
    179  CZ         3.8820  -10.8530   20.3620 C.ar  914  TYR914      0.1957
    180  OH         4.6840  -11.9680   20.4810 O.3   914  TYR914     -0.2866
    181  N         -0.6890   -9.9150   19.0150 N.am  915  VAL915     -0.1966
    182  CA        -1.5520  -10.9560   19.5160 C.3   915  VAL915      0.1727
    183  C         -0.6800  -12.2010   19.6410 C.2   915  VAL915      0.2617
    184  O         -0.3500  -12.8750   18.6620 O.2   915  VAL915     -0.2715
    185  CB        -2.8050  -11.2200   18.6310 C.3   915  VAL915      0.0290
    186  CG1       -3.6150  -12.3680   19.2310 C.3   915  VAL915      0.0023
    187  CG2       -3.6480   -9.9460   18.5140 C.3   915  VAL915      0.0023
    188  N         -0.3060  -12.4960   20.8890 N.am  916  SER916     -0.1936
    189  CA         0.8400  -13.4080   21.0790 C.3   916  SER916      0.2055
    190  C          0.5110  -14.8310   20.6380 C.2   916  SER916      0.2643
    191  O          1.4210  -15.5870   20.2470 O.2   916  SER916     -0.2714
    192  CB         1.3200  -13.3760   22.5440 C.3   916  SER916      0.2130
    193  OG         0.4780  -14.2230   23.3460 O.3   916  SER916     -0.2179
    194  N         -0.7800  -15.2060   20.6810 N.am  917  ASN917     -0.1957
    195  CA        -1.1790  -16.5840   20.3670 C.3   917  ASN917      0.1819
    196  C         -1.7560  -16.6930   18.9530 C.2   917  ASN917      0.2621
    197  O         -2.2230  -17.7680   18.6070 O.2   917  ASN917     -0.2715
    198  CB        -2.2000  -17.1080   21.3950 C.3   917  ASN917      0.1195
    199  CG        -3.4720  -16.2600   21.4080 C.2   917  ASN917      0.2630
    200  OD1       -3.4370  -15.0530   21.3040 O.2   917  ASN917     -0.2716
    201  ND2       -4.6370  -16.9290   21.5250 N.am  917  ASN917     -0.0877
    202  N         -1.6920  -15.6250   18.1390 N.am  918  ILE918     -0.1963
    203  CA        -2.2430  -15.6800   16.7920 C.3   918  ILE918      0.1727
    204  C         -1.2120  -15.1830   15.7720 C.2   918  ILE918      0.2617
    205  O         -0.9820  -15.8540   14.7360 O.2   918  ILE918     -0.2715
    206  CB        -3.5370  -14.8700   16.6560 C.3   918  ILE918      0.0290
    207  CG1       -4.5700  -15.4030   17.6640 C.3   918  ILE918      0.0022
    208  CG2       -4.0340  -14.9310   15.1970 C.3   918  ILE918      0.0023
    209  CD1       -5.9420  -14.6910   17.5750 C.3   918  ILE918      0.0001
    210  N         -0.5430  -14.0520   15.9910 N.am  919  GLY919     -0.1941
    211  CA         0.5130  -13.6310   15.0840 C.3   919  GLY919      0.1998
    212  C         -0.0190  -13.0930   13.7740 C.2   919  GLY919      0.2481
    213  O         -1.2340  -12.8920   13.6000 O.2   919  GLY919     -0.2729
    214  N          0.8390  -12.8640   12.7740 N.am  920  PRO920     -0.2715
    215  CA         2.2670  -13.2290   12.8020 C.3   920  PRO920      0.1536
    216  C          3.1910  -12.0870   13.1640 C.2   920  PRO920      0.2598
    217  O          4.4250  -12.2730   13.2160 O.2   920  PRO920     -0.2715
    218  CB         2.5110  -13.5740   11.3150 C.3   920  PRO920      0.0310
    219  CG         1.6940  -12.5220   10.6170 C.3   920  PRO920      0.0237
    220  CD         0.4350  -12.3400   11.4360 C.3   920  PRO920      0.0939
    221  N          2.6420  -10.8740   13.3680 N.am  921  GLN921     -0.1964
    222  CA         3.5820   -9.7320   13.5100 C.3   921  GLN921      0.1733
    223  C          4.3010   -9.6460   14.8520 C.2   921  GLN921      0.2617
    224  O          3.6310   -9.6350   15.8910 O.2   921  GLN921     -0.2715
    225  CB         2.7920   -8.4350   13.2430 C.3   921  GLN921      0.0408
    226  CG         3.7410   -7.2180   13.1560 C.3   921  GLN921      0.0908
    227  CD         3.0560   -5.9970   12.6060 C.2   921  GLN921      0.2608
    228  OE1        1.8090   -5.9340   12.4510 O.2   921  GLN921     -0.2717
    229  NE2        3.8590   -4.9830   12.2910 N.am  921  GLN921     -0.0878
    230  N          5.6180   -9.5440   14.7960 N.am  922  THR922     -0.1951
    231  CA         6.4130   -9.3320   16.0090 C.3   922  THR922      0.1897
    232  C          7.1950   -8.0290   15.9310 C.2   922  THR922      0.2313
    233  O          7.6230   -7.5000   16.9490 O.2   922  THR922     -0.2863
    234  CB         7.4320  -10.4710   16.2320 C.3   922  THR922      0.1794
    235  OG1        8.1880  -10.6840   15.0100 O.3   922  THR922     -0.2208
    236  CG2        6.7460  -11.7890   16.6100 C.3   922  THR922      0.0378
@<TRIPOS>BOND
     1   153   151   ar
     2   153   152   ar
     3   151   149   ar
     4   152   150   ar
     5   149   148   ar
     6   149   147   ar
     7   148   146   ar
     8    28    26   ar
     9    28    27   ar
    10   150   147   ar
    11    26    24   ar
    12   147   145   ar
    13    18    19    1
    14    27    25   ar
    15   143   142    2
    16   146   145   ar
    17    24    23   ar
    18   145   144    1
    19    25    23   ar
    20    23    22    1
    21    19    22    1
    22    19    20    1
    23   142   141    1
    24    29    20   am
    25    29    30    1
    26    33    30    1
    27    33    34    1
    28    36    34   ar
    29    32    31    2
    30    20    21    2
    31   144   141    1
    32    30    31    1
    33   141   140    1
    34    34    35   ar
    35     8     6   am
    36     5     6    1
    37     5     2    1
    38     6     7    2
    39     1     2    1
    40    51    49   ar
    41    51    52   ar
    42     2     3    1
    43    49    47   ar
    44    17    15   ar
    45    42    43    1
    46    16    15   ar
    47    52    50   ar
    48     3     4    2
    49    39    40    2
    50    39    38    1
    51    15    14    1
    52    37    38    1
    53    47    46    1
    54    47    48   ar
    55    50    48   ar
    56    43    46    1
    57    43    44    1
    58    38    41    1
    59    45    44    2
    60   139   137   ar
    61     9    10    1
    62   138   137   ar
    63    14    13    1
    64   137   136    1
    65   135   136    1
    66   135   132    1
    67    13    10    1
    68    10    11    1
    69   133   132    1
    70   133   134    2
    71   132   131    1
    72    85    87   ar
    73    85    84   ar
    74    87    88   ar
    75    11    12    2
    76   101   102   ar
    77   101    99   ar
    78    84    83    1
    79    84    86   ar
    80    83    80    1
    81    88    86   ar
    82    88    90   ar
    83   102   100   ar
    84    86    89   ar
    85    99    98   ar
    86    59    53    1
    87    59    58    1
    88    90    92   ar
    89    89    91   ar
    90    92    91   ar
    91   100    98   ar
    92    53    54    1
    93    98    97    1
    94   106   105    2
    95    58    57    1
    96    80    81    1
    97    80    79    1
    98    82    81    2
    99    79    77   am
   100    57    54    1
   101    97    94    1
   102   105   104    1
   103    54    55    1
   104   104   103    1
   105    77    76    1
   106    77    78    2
   107    76    75    1
   108    93    94    1
   109    94    95    1
   110    55    56    2
   111    55    60   am
   112    75    73   am
   113    95    96    2
   114    74    73    2
   115    60    61    1
   116    73    72    1
   117    63    62    2
   118   125   123   ar
   119   219   218    1
   120   219   220    1
   121    62    61    1
   122    62    71   am
   123    61    64    1
   124   218   215    1
   125   220   214    1
   126   130   127    1
   127    72    71    1
   128   123   122    1
   129   123   124   ar
   130   127   126    1
   131   127   128    1
   132   121   120    2
   133   129   128    2
   134   122   119    1
   135   229   227   am
   136    64    65    1
   137   120   126   am
   138   120   119    1
   139   228   227    2
   140   227   226    1
   141   214   215    1
   142   214   212   am
   143    67    65   ar
   144    67    69   ar
   145   215   216    1
   146   119   118    1
   147    65    66   ar
   148   226   225    1
   149   216   217    2
   150   216   221   am
   151   225   222    1
   152   221   222    1
   153    69    70   ar
   154   222   223    1
   155   213   212    2
   156   212   211    1
   157    66    68   ar
   158   118   109   am
   159    70    68   ar
   160   205   204    2
   161   230   223   am
   162   230   231    1
   163   223   224    2
   164   235   234    1
   165   211   210    1
   166   116   114   ar
   167   116   117   ar
   168   110   109    2
   169   208   206    1
   170   114   112   ar
   171   109   108    1
   172   204   210   am
   173   204   203    1
   174   232   231    1
   175   232   233    2
   176   231   234    1
   177   234   236    1
   178   117   115   ar
   179   112   111    1
   180   112   113   ar
   181   111   108    1
   182   108   107    1
   183   206   203    1
   184   206   207    1
   185   203   202    1
   186   115   113   ar
   187   209   207    1
   188   202   196   am
   189   187   185    1
   190   197   196    2
   191   185   186    1
   192   185   182    1
   193   184   183    2
   194   161   159   am
   195   169   170    1
   196   196   195    1
   197   170   171    1
   198   170   173    1
   199   175   177   ar
   200   175   174   ar
   201   181   182    1
   202   181   171   am
   203   177   179   ar
   204   182   183    1
   205   171   172    2
   206   183   188   am
   207   158   159    1
   208   158   155    1
   209   159   160    2
   210   173   174    1
   211   174   176   ar
   212   191   190    2
   213   179   180    1
   214   179   178   ar
   215   195   194    1
   216   195   198    1
   217   190   194   am
   218   190   189    1
   219   167   166    1
   220   157   156    2
   221   154   155    1
   222   188   189    1
   223   155   156    1
   224   189   192    1
   225   176   178   ar
   226   200   199    2
   227   198   199    1
   228   199   201   am
   229   166   163    1
   230   166   168    1
   231   192   193    1
   232   163   162    1
   233   163   164    1
   234   165   164    2
