@<TRIPOS>MOLECULE
tmp/3og7A00.pdb
 171 163 0 0 0
SMALL
GASTEIGER

@<TRIPOS>ATOM
      1  N          7.9310    2.2310  -25.9020 N.3    15  ILE15      -0.1245
      2  CA         8.4180    0.9590  -25.3840 C.3    15  ILE15       0.1561
      3  C          8.2430   -0.1850  -26.3780 C.2    15  ILE15       0.2260
      4  O          9.1790   -0.9350  -26.6470 O.2    15  ILE15      -0.2867
      5  CB         7.7330    0.6050  -24.0540 C.3    15  ILE15       0.0252
      6  CG1        8.1660    1.5850  -22.9610 C.3    15  ILE15       0.0019
      7  CG2        8.0640   -0.8130  -23.6400 C.3    15  ILE15       0.0019
      8  CD1        9.6670    1.7080  -22.8050 C.3    15  ILE15       0.0001
      9  N          2.7360    1.2650  -26.6130 N.3    23  VAL23      -0.1245
     10  CA         3.0060    1.5090  -25.2020 C.3    23  VAL23       0.1561
     11  C          4.1860    2.4530  -25.0030 C.2    23  VAL23       0.2260
     12  O          5.2830    2.2010  -25.5000 O.2    23  VAL23      -0.2867
     13  CB         3.2820    0.1940  -24.4490 C.3    23  VAL23       0.0252
     14  CG1        3.6700    0.4770  -23.0060 C.3    23  VAL23       0.0019
     15  CG2        2.0680   -0.7160  -24.5090 C.3    23  VAL23       0.0019
     16  N          2.4570    4.1430  -17.2680 N.3    33  ALA33      -0.1245
     17  CA         2.5390    3.5090  -18.5740 C.3    33  ALA33       0.1562
     18  C          1.3170    3.9050  -19.3900 C.2    33  ALA33       0.2260
     19  O          0.1860    3.7800  -18.9200 O.2    33  ALA33      -0.2867
     20  CB         2.6260    2.0060  -18.4320 C.3    33  ALA33       0.0290
     21  N         -0.8190    3.3760  -22.8900 N.3    35  LYS35      -0.1245
     22  CA        -1.0880    2.6130  -24.1030 C.3    35  LYS35       0.1561
     23  C         -1.9550    3.4190  -25.0630 C.2    35  LYS35       0.2260
     24  O         -3.1730    3.4900  -24.9040 O.2    35  LYS35      -0.2867
     25  CB        -1.7620    1.2740  -23.7810 C.3    35  LYS35       0.0271
     26  CG        -1.9910    0.3950  -25.0100 C.3    35  LYS35       0.0035
     27  CD        -2.9280   -0.7750  -24.7250 C.3    35  LYS35       0.0206
     28  CE        -2.1670   -2.0500  -24.3920 C.3    35  LYS35       0.1093
     29  NZ        -3.0840   -3.2140  -24.2060 N.3    35  LYS35      -0.1314
     30  N        -11.8530   -2.7690  -16.7320 N.3    57  LEU57      -0.1245
     31  CA       -10.5890   -2.5920  -16.0300 C.3    57  LEU57       0.1561
     32  C        -10.8510   -1.9250  -14.6860 C.2    57  LEU57       0.2260
     33  O        -10.0720   -2.0550  -13.7430 O.2    57  LEU57      -0.2867
     34  CB        -9.6360   -1.7200  -16.8490 C.3    57  LEU57       0.0270
     35  CG        -9.1740   -2.2290  -18.2130 C.3    57  LEU57       0.0019
     36  CD1       -8.3150   -1.1800  -18.9040 C.3    57  LEU57       0.0001
     37  CD2       -8.4130   -3.5330  -18.0680 C.3    57  LEU57       0.0001
     38  N        -10.7410   -3.9330  -11.2340 N.3    60  THR60      -0.1218
     39  CA        -9.5590   -4.7320  -10.9240 C.3    60  THR60       0.1862
     40  C         -8.6830   -4.0880   -9.8480 C.2    60  THR60       0.2287
     41  O         -7.9020   -3.1810  -10.1290 O.2    60  THR60      -0.2866
     42  CB        -8.7090   -5.0230  -12.1840 C.3    60  THR60       0.1770
     43  OG1       -8.4090   -3.7970  -12.8610 O.3    60  THR60      -0.2211
     44  CG2       -9.4580   -5.9470  -13.1310 C.3    60  THR60       0.0375
     45  N         -2.0110   -5.9580  -12.9750 N.3    66  LEU66      -0.1245
     46  CA        -1.4730   -4.6480  -13.3290 C.3    66  LEU66       0.1561
     47  C         -2.4270   -3.5420  -12.8860 C.2    66  LEU66       0.2260
     48  O         -3.6310   -3.6230  -13.1280 O.2    66  LEU66      -0.2867
     49  CB        -1.2390   -4.5610  -14.8370 C.3    66  LEU66       0.0270
     50  CG        -0.6210   -3.2650  -15.3600 C.3    66  LEU66       0.0019
     51  CD1        0.8340   -3.1610  -14.9290 C.3    66  LEU66       0.0001
     52  CD2       -0.7410   -3.1880  -16.8730 C.3    66  LEU66       0.0001
     53  N         -4.5280   -0.5230  -13.0200 N.3    68  PHE68      -0.1241
     54  CA        -5.1770    0.4530  -13.8840 C.3    68  PHE68       0.1605
     55  C         -5.2910    1.7750  -13.1390 C.2    68  PHE68       0.2264
     56  O         -5.8530    1.8270  -12.0460 O.2    68  PHE68      -0.2867
     57  CB        -6.5620   -0.0430  -14.2960 C.3    68  PHE68       0.0534
     58  CG        -7.4860    1.0480  -14.7580 C.ar   68  PHE68      -0.0203
     59  CD1       -7.3620    1.5920  -16.0260 C.ar   68  PHE68      -0.0042
     60  CD2       -8.4910    1.5180  -13.9270 C.ar   68  PHE68      -0.0042
     61  CE1       -8.2170    2.5910  -16.4520 C.ar   68  PHE68      -0.0003
     62  CE2       -9.3490    2.5160  -14.3460 C.ar   68  PHE68      -0.0003
     63  CZ        -9.2130    3.0540  -15.6110 C.ar   68  PHE68      -0.0000
     64  N         -4.9320    4.0810  -22.3560 N.3    79  ILE79      -0.1245
     65  CA        -5.1010    3.4530  -21.0580 C.3    79  ILE79       0.1561
     66  C         -3.8660    3.7430  -20.2150 C.2    79  ILE79       0.2260
     67  O         -2.7450    3.4500  -20.6290 O.2    79  ILE79      -0.2867
     68  CB        -5.2810    1.9300  -21.1900 C.3    79  ILE79       0.0252
     69  CG1       -6.5300    1.6090  -22.0120 C.3    79  ILE79       0.0019
     70  CG2       -5.3630    1.2790  -19.8190 C.3    79  ILE79       0.0019
     71  CD1       -7.8070    2.1680  -21.4210 C.3    79  ILE79       0.0001
     72  N         -1.7120    3.0820  -16.7790 N.3    81  THR81      -0.1203
     73  CA        -1.5040    2.1270  -15.6980 C.3    81  THR81       0.1994
     74  C         -0.2290    2.4520  -14.9370 C.2    81  THR81       0.2618
     75  O          0.3980    3.4830  -15.1710 O.2    81  THR81      -0.2717
     76  CB        -1.4010    0.6820  -16.2240 C.3    81  THR81       0.1784
     77  OG1       -0.1420    0.5000  -16.8840 O.3    81  THR81      -0.2211
     78  CG2       -2.5320    0.3800  -17.1910 C.3    81  THR81       0.0376
     79  N          0.1500    1.5640  -14.0270 N.am   82  GLN82      -0.1965
     80  CA         1.3960    1.7130  -13.2920 C.3    82  GLN82       0.1733
     81  C          2.5700    1.3920  -14.2050 C.2    82  GLN82       0.2616
     82  O          2.3970    0.7900  -15.2650 O.2    82  GLN82      -0.2715
     83  CB         1.4190    0.7730  -12.0900 C.3    82  GLN82       0.0408
     84  CG         1.3670   -0.6970  -12.4690 C.3    82  GLN82       0.0908
     85  CD         1.5860   -1.6180  -11.2860 C.2    82  GLN82       0.2608
     86  OE1        0.7110   -2.4050  -10.9290 O.2    82  GLN82      -0.2717
     87  NE2        2.7570   -1.5220  -10.6700 N.am   82  GLN82      -0.0878
     88  N          3.7670    1.7910  -13.7900 N.am   83  TRP83      -0.1960
     89  CA         4.9760    1.4470  -14.5260 C.3    83  TRP83       0.1771
     90  C          5.6910    0.2660  -13.8760 C.2    83  TRP83       0.2619
     91  O          6.0650    0.3230  -12.7050 O.2    83  TRP83      -0.2715
     92  CB         5.9170    2.6460  -14.6180 C.3    83  TRP83       0.0590
     93  CG         7.1710    2.3270  -15.3570 C.ar   83  TRP83       0.0006
     94  CD1        8.4360    2.2730  -14.8470 C.ar   83  TRP83       0.0946
     95  CD2        7.2810    1.9880  -16.7420 C.ar   83  TRP83       0.0152
     96  NE1        9.3280    1.9330  -15.8340 N.ar   83  TRP83      -0.2442
     97  CE2        8.6430    1.7520  -17.0070 C.ar   83  TRP83       0.0810
     98  CE3        6.3590    1.8670  -17.7860 C.ar   83  TRP83       0.0012
     99  CZ2        9.1070    1.4020  -18.2740 C.ar   83  TRP83       0.0191
    100  CZ3        6.8200    1.5200  -19.0400 C.ar   83  TRP83       0.0001
    101  CH2        8.1810    1.2910  -19.2750 C.ar   83  TRP83       0.0015
    102  N          5.8780   -0.8040  -14.6440 N.am   84  CYS84      -0.1968
    103  CA         6.5420   -2.0050  -14.1450 C.3    84  CYS84       0.1712
    104  C          8.0190   -2.0290  -14.5170 C.2    84  CYS84       0.2296
    105  O          8.3710   -2.1280  -15.6930 O.2    84  CYS84      -0.2864
    106  CB         5.8620   -3.2630  -14.6870 C.3    84  CYS84       0.0983
    107  SG         4.1580   -3.4910  -14.1420 S.3    84  CYS84      -0.0798
    108  N         11.8730   -3.6470  -14.6340 N.3    86  GLY86      -0.1210
    109  CA        12.3110   -4.9680  -15.0400 C.3    86  GLY86       0.1956
    110  C         11.8090   -5.3250  -16.4250 C.2    86  GLY86       0.2613
    111  O         11.9260   -4.5320  -17.3590 O.2    86  GLY86      -0.2717
    112  N         11.2400   -6.5170  -16.5600 N.am   87  SER87      -0.1938
    113  CA        10.7810   -6.9910  -17.8590 C.3    87  SER87       0.2055
    114  C          9.6420   -7.9960  -17.7270 C.2    87  SER87       0.2643
    115  O          9.2060   -8.3130  -16.6220 O.2    87  SER87      -0.2714
    116  CB        11.9450   -7.6170  -18.6270 C.3    87  SER87       0.2130
    117  OG        12.6480   -8.5330  -17.8070 O.3    87  SER87      -0.2179
    118  N          9.1640   -8.4900  -18.8650 N.am   88  SER88      -0.1949
    119  CA         8.0920   -9.4800  -18.8840 C.3    88  SER88       0.1924
    120  C          8.6110  -10.8460  -18.4540 C.2    88  SER88       0.2314
    121  O          9.8190  -11.0800  -18.4320 O.2    88  SER88      -0.2863
    122  CB         7.4750   -9.5720  -20.2820 C.3    88  SER88       0.2116
    123  OG         8.4560   -9.8750  -21.2580 O.3    88  SER88      -0.2180
    124  N         10.6360  -12.3570  -21.2910 N.3    91  HIS91      -0.1241
    125  CA        12.0220  -11.9290  -21.4350 C.3    91  HIS91       0.1621
    126  C         12.9490  -12.6670  -20.4760 C.2    91  HIS91       0.2264
    127  O         14.1080  -12.9210  -20.7950 O.2    91  HIS91      -0.2867
    128  CB        12.1500  -10.4190  -21.2260 C.3    91  HIS91       0.0745
    129  CG        13.5590   -9.9190  -21.2970 C.ar   91  HIS91       0.0817
    130  ND1       14.4260   -9.9750  -20.2250 N.ar   91  HIS91      -0.2268
    131  CD2       14.2550   -9.3500  -22.3100 C.ar   91  HIS91       0.1154
    132  CE1       15.5910   -9.4650  -20.5750 C.ar   91  HIS91       0.1986
    133  NE2       15.5150   -9.0780  -21.8380 N.ar   91  HIS91      -0.2212
    134  N          4.0820   -9.2140  -16.2700 N.3   132  PHE132     -0.1241
    135  CA         5.2380   -8.3590  -16.0180 C.3   132  PHE132      0.1605
    136  C          5.7770   -8.5400  -14.6040 C.2   132  PHE132      0.2264
    137  O          5.0420   -8.4080  -13.6260 O.2   132  PHE132     -0.2867
    138  CB         4.8740   -6.8940  -16.2700 C.3   132  PHE132      0.0534
    139  CG         4.0990   -6.6780  -17.5390 C.ar  132  PHE132     -0.0203
    140  CD1        2.7150   -6.6030  -17.5170 C.ar  132  PHE132     -0.0042
    141  CD2        4.7510   -6.5730  -18.7560 C.ar  132  PHE132     -0.0042
    142  CE1        1.9970   -6.4160  -18.6840 C.ar  132  PHE132     -0.0003
    143  CE2        4.0390   -6.3850  -19.9270 C.ar  132  PHE132     -0.0003
    144  CZ         2.6600   -6.3070  -19.8900 C.ar  132  PHE132     -0.0000
    145  N         -1.4530   -8.1610  -17.2450 N.3   142  GLY142     -0.1210
    146  CA        -2.1130   -7.1140  -18.0030 C.3   142  GLY142      0.1956
    147  C         -2.4730   -7.5290  -19.4160 C.2   142  GLY142      0.2612
    148  O         -2.2310   -8.6660  -19.8220 O.2   142  GLY142     -0.2717
    149  N         -3.0620   -6.5960  -20.1580 N.am  143  ASP143     -0.1959
    150  CA        -3.4300   -6.7990  -21.5590 C.3   143  ASP143      0.1840
    151  C         -4.6950   -7.6440  -21.7150 C.2   143  ASP143      0.2622
    152  O         -4.9660   -8.1840  -22.7880 O.2   143  ASP143     -0.2715
    153  CB        -2.2640   -7.3980  -22.3530 C.3   143  ASP143      0.1450
    154  CG        -2.2980   -7.0130  -23.8200 C.2   143  ASP143      0.3671
    155  OD1       -3.3410   -6.5020  -24.2800 O.co2 143  ASP143     -0.2456
    156  OD2       -1.2790   -7.2180  -24.5130 O.co2 143  ASP143     -0.2456
    157  N         -5.4680   -7.7480  -20.6380 N.am  144  PHE144     -0.1960
    158  CA        -6.7610   -8.4190  -20.6840 C.3   144  PHE144      0.1771
    159  C         -7.8560   -7.4220  -21.0530 C.2   144  PHE144      0.2620
    160  O         -8.9860   -7.8070  -21.3550 O.2   144  PHE144     -0.2715
    161  CB        -7.0750   -9.0840  -19.3390 C.3   144  PHE144      0.0574
    162  CG        -6.9950   -8.1500  -18.1620 C.ar  144  PHE144     -0.0200
    163  CD1       -5.7890   -7.9270  -17.5200 C.ar  144  PHE144     -0.0042
    164  CD2       -8.1270   -7.5010  -17.6960 C.ar  144  PHE144     -0.0042
    165  CE1       -5.7110   -7.0710  -16.4380 C.ar  144  PHE144     -0.0003
    166  CE2       -8.0560   -6.6430  -16.6150 C.ar  144  PHE144     -0.0003
    167  CZ        -6.8460   -6.4280  -15.9850 C.ar  144  PHE144     -0.0000
    168  N         -7.5000   -6.1400  -21.0350 N.am  145  GLY145     -0.1954
    169  CA        -8.4400   -5.0590  -21.2820 C.3   145  GLY145      0.1869
    170  C         -9.4000   -5.3130  -22.4260 C.2   145  GLY145      0.2309
    171  O         -9.3870   -4.5980  -23.4290 O.2   145  GLY145     -0.2863
@<TRIPOS>BOND
     1     4     3    2
     2     9    10    1
     3     3     2    1
     4     1     2    1
     5    12    11    2
     6     2     5    1
     7    10    11    1
     8    10    13    1
     9    23    24    2
    10    23    22    1
    11    26    27    1
    12    26    25    1
    13    27    28    1
    14   156   154   ar
    15    15    13    1
    16    13    14    1
    17    28    29    1
    18   155   154   ar
    19    22    25    1
    20    22    21    1
    21     5     7    1
    22     5     6    1
    23   154   153    1
    24   171   170    2
    25     6     8    1
    26   152   151    2
    27   170   169    1
    28    64    65    1
    29   153   150    1
    30   131   133   ar
    31   131   129   ar
    32    69    71    1
    33    69    68    1
    34   133   132   ar
    35   151   150    1
    36   151   157   am
    37   150   149    1
    38   125   124    1
    39   125   128    1
    40   125   126    1
    41   160   159    2
    42   129   128    1
    43   129   130   ar
    44   169   168    1
    45   123   122    1
    46    68    65    1
    47    68    70    1
    48    65    66    1
    49   159   168   am
    50   159   158    1
    51   127   126    2
    52   158   157    1
    53   158   161    1
    54    67    66    2
    55   132   130   ar
    56   122   119    1
    57   149   147   am
    58   143   144   ar
    59   143   141   ar
    60   144   142   ar
    61   148   147    2
    62   147   146    1
    63    18    19    2
    64    18    17    1
    65   161   162    1
    66   101   100   ar
    67   101    99   ar
    68   100    98   ar
    69    36    35    1
    70   119   118    1
    71   119   120    1
    72   118   114   am
    73   141   139   ar
    74   142   140   ar
    75   116   113    1
    76   116   117    1
    77    17    20    1
    78    17    16    1
    79   120   121    2
    80    99    97   ar
    81    35    37    1
    82    35    34    1
    83   162   164   ar
    84   162   163   ar
    85   146   145    1
    86   113   114    1
    87   113   112    1
    88    98    95   ar
    89   114   115    2
    90   164   166   ar
    91   139   140   ar
    92   139   138    1
    93   163   165   ar
    94   111   110    2
    95    78    76    1
    96    97    95   ar
    97    97    96   ar
    98    77    76    1
    99    52    50    1
   100    34    31    1
   101    72    73    1
   102    95    93   ar
   103    30    31    1
   104   166   167   ar
   105   112   110   am
   106    61    59   ar
   107    61    63   ar
   108   165   167   ar
   109   110   109    1
   110   138   135    1
   111   134   135    1
   112    76    73    1
   113    31    32    1
   114    59    58   ar
   115   135   136    1
   116    96    94   ar
   117    73    74    1
   118   105   104    2
   119    63    62   ar
   120    50    51    1
   121    50    49    1
   122    93    94   ar
   123    93    92    1
   124    82    81    2
   125    75    74    2
   126   109   108    1
   127    74    79   am
   128    49    46    1
   129    58    57    1
   130    58    60   ar
   131   106   103    1
   132   106   107    1
   133    32    33    2
   134   102   103    1
   135   102    90   am
   136    92    89    1
   137   136   137    2
   138    89    90    1
   139    89    88    1
   140   104   103    1
   141    62    60   ar
   142    57    54    1
   143    81    88   am
   144    81    80    1
   145    79    80    1
   146    54    55    1
   147    54    53    1
   148    90    91    2
   149    46    45    1
   150    46    47    1
   151    80    83    1
   152    55    56    2
   153    44    42    1
   154    48    47    2
   155    43    42    1
   156    84    83    1
   157    84    85    1
   158    42    39    1
   159    85    86    2
   160    85    87   am
   161    38    39    1
   162    39    40    1
   163    41    40    2
