@<TRIPOS>MOLECULE
tmp/3og9B00.pdb
 96 89 0 0 0
SMALL
GASTEIGER

@<TRIPOS>ATOM
      1  N          5.3120    5.4560   60.6170 N.3    22  THR22      -0.1218
      2  CA         4.4950    6.5780   61.1100 C.3    22  THR22       0.1862
      3  C          4.6900    7.7970   60.2130 C.2    22  THR22       0.2287
      4  O          5.8270    8.1410   59.9080 O.2    22  THR22      -0.2866
      5  CB         4.8690    6.9180   62.5640 C.3    22  THR22       0.1770
      6  OG1        4.5880    5.7580   63.3590 O.3    22  THR22      -0.2211
      7  CG2        4.0550    8.1040   63.0920 C.3    22  THR22       0.0375
      8  N         -0.8840    6.4560   60.7750 N.3    56  ARG56      -0.1245
      9  CA        -0.4260    5.3610   61.6130 C.3    56  ARG56       0.1563
     10  C         -1.3810    4.1850   61.4640 C.2    56  ARG56       0.2260
     11  O         -2.5320    4.3600   61.0460 O.2    56  ARG56      -0.2867
     12  CB        -0.4030    5.7680   63.1080 C.3    56  ARG56       0.0307
     13  CG         0.7700    6.6890   63.4870 C.3    56  ARG56       0.0489
     14  CD         0.7960    6.9730   64.9900 C.3    56  ARG56       0.2205
     15  NE         0.6370    5.7390   65.7710 N.pl3  56  ARG56      -0.0865
     16  CZ         1.6280    4.9010   66.0610 C.cat  56  ARG56       0.5346
     17  NH1        2.8820    5.1480   65.6730 N.pl3  56  ARG56       0.1354
     18  NH2        1.3670    3.8040   66.7490 N.pl3  56  ARG56       0.1354
     19  N         -2.2580    2.2300   64.2660 N.3    58  PHE58      -0.1241
     20  CA        -3.0080    2.0910   65.5210 C.3    58  PHE58       0.1605
     21  C         -2.6520    3.2990   66.4130 C.2    58  PHE58       0.2264
     22  O         -1.6330    3.9660   66.2040 O.2    58  PHE58      -0.2867
     23  CB        -2.7220    0.7400   66.2170 C.3    58  PHE58       0.0534
     24  CG        -1.3020    0.6130   66.7360 C.ar   58  PHE58      -0.0203
     25  CD1       -0.9700    1.0680   67.9980 C.ar   58  PHE58      -0.0042
     26  CD2       -0.2970    0.0630   65.9420 C.ar   58  PHE58      -0.0042
     27  CE1        0.3620    0.9830   68.4870 C.ar   58  PHE58      -0.0003
     28  CE2        1.0180   -0.0260   66.4140 C.ar   58  PHE58      -0.0003
     29  CZ         1.3500    0.4140   67.6800 C.ar   58  PHE58      -0.0000
     30  N         -1.7560    5.7190   69.7800 N.3    60  LEU60      -0.1245
     31  CA        -0.8840    5.7660   70.9360 C.3    60  LEU60       0.1561
     32  C         -1.7180    6.2410   72.1370 C.2    60  LEU60       0.2260
     33  O         -2.8390    6.7170   71.9580 O.2    60  LEU60      -0.2867
     34  CB         0.3210    6.6830   70.6900 C.3    60  LEU60       0.0270
     35  CG         1.2800    6.1800   69.5850 C.3    60  LEU60       0.0019
     36  CD1        2.4050    7.1580   69.3290 C.3    60  LEU60       0.0001
     37  CD2        1.8720    4.8020   69.9280 C.3    60  LEU60       0.0001
     38  N          1.4550    2.0600   73.6340 N.3    71  PHE71      -0.1241
     39  CA         0.7230    1.4210   72.5190 C.3    71  PHE71       0.1605
     40  C         -0.6820    1.0560   72.9330 C.2    71  PHE71       0.2264
     41  O         -0.8540    0.2240   73.7990 O.2    71  PHE71      -0.2867
     42  CB         1.4370    0.1450   72.0550 C.3    71  PHE71       0.0534
     43  CG         2.8610    0.3750   71.5880 C.ar   71  PHE71      -0.0203
     44  CD1        3.2040    1.5280   70.8800 C.ar   71  PHE71      -0.0042
     45  CD2        3.8450   -0.5820   71.8380 C.ar   71  PHE71      -0.0042
     46  CE1        4.5340    1.7510   70.4600 C.ar   71  PHE71      -0.0003
     47  CE2        5.1740   -0.3990   71.4010 C.ar   71  PHE71      -0.0003
     48  CZ         5.5230    0.7790   70.7260 C.ar   71  PHE71      -0.0000
     49  N          9.2230    0.3610   60.4880 N.3   107  SER107     -0.1202
     50  CA         8.8050    0.9970   61.7520 C.3   107  SER107      0.2020
     51  C          7.3410    0.5740   62.1130 C.2   107  SER107      0.2618
     52  O          7.0490   -0.6160   62.1800 O.2   107  SER107     -0.2717
     53  CB         9.0340    2.5240   61.6700 C.3   107  SER107      0.2103
     54  OG         8.9650    3.1440   62.9600 O.3   107  SER107     -0.2182
     55  N          6.4230    1.5310   62.3070 N.am  108  ASN108     -0.1974
     56  CA         5.0130    1.2210   62.6170 C.3   108  ASN108      0.1688
     57  C          4.4250    0.0330   61.8230 C.2   108  ASN108      0.2292
     58  O          3.8010   -0.8790   62.3840 O.2   108  ASN108     -0.2864
     59  CB         4.1460    2.4760   62.3630 C.3   108  ASN108      0.1181
     60  CG         2.7440    2.3910   63.0110 C.2   108  ASN108      0.2629
     61  OD1        1.7690    2.8620   62.4340 O.2   108  ASN108     -0.2716
     62  ND2        2.6580    1.8500   64.2330 N.am  108  ASN108     -0.0877
     63  N          5.9300   -3.2110   62.7080 N.3   111  ASN111     -0.1240
     64  CA         5.4650   -3.6620   64.0190 C.3   111  ASN111      0.1653
     65  C          4.0950   -4.3440   63.9250 C.2   111  ASN111      0.2266
     66  O          3.8450   -5.3700   64.6000 O.2   111  ASN111     -0.2867
     67  CB         5.4480   -2.4790   65.0040 C.3   111  ASN111      0.1155
     68  CG         6.8180   -1.8820   65.2020 C.2   111  ASN111      0.2627
     69  OD1        7.8260   -2.5330   64.9190 O.2   111  ASN111     -0.2716
     70  ND2        6.8730   -0.6450   65.6800 N.am  111  ASN111     -0.0877
     71  N          9.8340   -3.8870   66.2740 N.3   133  MET133     -0.1245
     72  CA         9.9280   -4.0510   67.7150 C.3   133  MET133      0.1570
     73  C          8.7400   -4.8550   68.1920 C.2   133  MET133      0.2261
     74  O          7.7950   -5.0860   67.4320 O.2   133  MET133     -0.2867
     75  CB         9.9580   -2.6690   68.3980 C.3   133  MET133      0.0387
     76  CG         8.6180   -1.9050   68.4130 C.3   133  MET133      0.0595
     77  SD         8.8160   -0.1340   68.7590 S.3   133  MET133     -0.1393
     78  CE         9.6510   -0.2790   70.3280 C.3   133  MET133      0.0692
     79  N         14.3240    4.6730   69.4260 N.3   159  ILE159     -0.1245
     80  CA        12.9210    4.3110   69.4740 C.3   159  ILE159      0.1561
     81  C         12.8140    2.8640   69.9030 C.2   159  ILE159      0.2260
     82  O         11.9440    2.5050   70.6990 O.2   159  ILE159     -0.2867
     83  CB        12.2390    4.5890   68.0930 C.3   159  ILE159      0.0252
     84  CG1       12.3320    6.1020   67.7910 C.3   159  ILE159      0.0019
     85  CG2       10.7870    4.0610   68.0300 C.3   159  ILE159      0.0019
     86  CD1       11.6370    6.5440   66.5370 C.3   159  ILE159      0.0001
     87  N         16.9740    4.9380   63.8350 N.3   188  HIS188     -0.1241
     88  CA        15.6780    4.4300   63.3620 C.3   188  HIS188      0.1621
     89  C         15.4540    4.5980   61.8340 C.2   188  HIS188      0.2264
     90  O         14.4870    4.0820   61.2680 O.2   188  HIS188     -0.2867
     91  CB        14.5750    5.0650   64.1820 C.3   188  HIS188      0.0745
     92  CG        13.2710    4.3440   64.1060 C.ar  188  HIS188      0.0817
     93  ND1       13.0900    3.0850   64.6230 N.ar  188  HIS188     -0.2268
     94  CD2       12.0830    4.7040   63.5620 C.ar  188  HIS188      0.1154
     95  CE1       11.8350    2.7080   64.4380 C.ar  188  HIS188      0.1986
     96  NE2       11.2010    3.6770   63.8020 N.ar  188  HIS188     -0.2212
@<TRIPOS>BOND
     1     4     3    2
     2     3     2    1
     3    49    50    1
     4     1     2    1
     5     8     9    1
     6    11    10    2
     7     2     5    1
     8    90    89    2
     9    10     9    1
    10     9    12    1
    11    53    50    1
    12    53    54    1
    13    50    51    1
    14    57    58    2
    15    57    56    1
    16    89    88    1
    17    51    52    2
    18    51    55   am
    19    55    56    1
    20    59    56    1
    21    59    60    1
    22    61    60    2
    23     5     7    1
    24     5     6    1
    25    63    64    1
    26    60    62   am
    27    12    13    1
    28    88    87    1
    29    88    91    1
    30    13    14    1
    31    94    96   ar
    32    94    92   ar
    33    96    95   ar
    34    65    64    1
    35    65    66    2
    36    64    67    1
    37    92    91    1
    38    92    93   ar
    39    19    20    1
    40    95    93   ar
    41    69    68    2
    42    14    15    1
    43    67    68    1
    44    68    70   am
    45    20    23    1
    46    20    21    1
    47    17    16    1
    48    15    16    2
    49    26    28   ar
    50    26    24   ar
    51    16    18    1
    52    22    21    2
    53    23    24    1
    54    71    72    1
    55    28    29   ar
    56    86    84    1
    57    24    25   ar
    58    74    73    2
    59    29    27   ar
    60    72    73    1
    61    72    75    1
    62    84    83    1
    63    25    27   ar
    64    85    83    1
    65    83    80    1
    66    75    76    1
    67    76    77    1
    68    77    78    1
    69    36    35    1
    70    79    80    1
    71    80    81    1
    72    35    37    1
    73    35    34    1
    74    30    31    1
    75    81    82    2
    76    46    48   ar
    77    46    44   ar
    78    34    31    1
    79    48    47   ar
    80    44    43   ar
    81    31    32    1
    82    47    45   ar
    83    43    45   ar
    84    43    42    1
    85    33    32    2
    86    42    39    1
    87    39    40    1
    88    39    38    1
    89    40    41    2
