@<TRIPOS>MOLECULE
tmp/3oglM00.pdb
 170 162 0 0 0
SMALL
GASTEIGER

@<TRIPOS>ATOM
      1  N        -50.9350  -46.4630  -25.0570 N.3    74  ARG74      -0.1231
      2  CA       -50.5850  -47.3780  -26.1290 C.3    74  ARG74       0.1694
      3  C        -51.4870  -47.1290  -27.3320 C.2    74  ARG74       0.2591
      4  O        -51.0840  -47.3300  -28.4750 O.2    74  ARG74      -0.2718
      5  CB       -50.7400  -48.8100  -25.6260 C.3    74  ARG74       0.0321
      6  CG       -49.4780  -49.6210  -25.7330 C.3    74  ARG74       0.0489
      7  CD       -49.6580  -51.0020  -25.1830 C.3    74  ARG74       0.2205
      8  NE       -50.8670  -51.5560  -25.7320 N.pl3  74  ARG74      -0.0865
      9  CZ       -50.9140  -52.2120  -26.8770 C.cat  74  ARG74       0.5346
     10  NH1      -49.8120  -52.4210  -27.5690 N.pl3  74  ARG74       0.1354
     11  NH2      -52.0660  -52.6750  -27.3210 N.pl3  74  ARG74       0.1354
     12  N        -52.7110  -46.6760  -27.0570 N.am   75  ALA75      -0.1980
     13  CA       -53.6980  -46.4650  -28.1030 C.3    75  ALA75       0.1597
     14  C        -53.1780  -45.4880  -29.1510 C.2    75  ALA75       0.2287
     15  O        -53.6610  -45.4520  -30.2790 O.2    75  ALA75      -0.2864
     16  CB       -55.0100  -45.9810  -27.5070 C.3    75  ALA75       0.0319
     17  N        -52.1480  -46.3260  -32.6430 N.3    78  PHE78      -0.1241
     18  CA       -53.2310  -46.7100  -33.5480 C.3    78  PHE78       0.1605
     19  C        -54.0850  -45.5200  -33.9310 C.2    78  PHE78       0.2264
     20  O        -55.2400  -45.6700  -34.2820 O.2    78  PHE78      -0.2867
     21  CB       -54.0950  -47.7860  -32.9030 C.3    78  PHE78       0.0534
     22  CG       -53.3350  -49.0100  -32.5440 C.ar   78  PHE78      -0.0203
     23  CD1      -53.2780  -50.0750  -33.4090 C.ar   78  PHE78      -0.0042
     24  CD2      -52.6400  -49.0810  -31.3580 C.ar   78  PHE78      -0.0042
     25  CE1      -52.5530  -51.2090  -33.0880 C.ar   78  PHE78      -0.0003
     26  CE2      -51.9150  -50.2070  -31.0330 C.ar   78  PHE78      -0.0003
     27  CZ       -51.8710  -51.2710  -31.9030 C.ar   78  PHE78      -0.0000
     28  N        -55.4630  -43.2510  -32.2320 N.3    80  LEU80      -0.1245
     29  CA       -56.6620  -43.1360  -31.4130 C.3    80  LEU80       0.1561
     30  C        -56.5110  -41.9920  -30.4320 C.2    80  LEU80       0.2260
     31  O        -57.4860  -41.4570  -29.9260 O.2    80  LEU80      -0.2867
     32  CB       -56.9500  -44.4560  -30.6900 C.3    80  LEU80       0.0270
     33  CG       -57.4350  -45.5730  -31.6220 C.3    80  LEU80       0.0019
     34  CD1      -58.1030  -46.6610  -30.8560 C.3    80  LEU80       0.0001
     35  CD2      -58.4050  -45.0130  -32.6410 C.3    80  LEU80       0.0001
     36  N        -45.2080  -62.7620  -34.6160 N.3   337  ARG337     -0.1245
     37  CA       -46.1930  -61.7160  -34.7400 C.3   337  ARG337      0.1563
     38  C        -46.8050  -61.7280  -36.1330 C.2   337  ARG337      0.2260
     39  O        -46.0860  -61.7020  -37.1210 O.2   337  ARG337     -0.2867
     40  CB       -45.5560  -60.3510  -34.4590 C.3   337  ARG337      0.0307
     41  CG       -46.5300  -59.1800  -34.5880 C.3   337  ARG337      0.0489
     42  CD       -46.0130  -57.9200  -33.9260 C.3   337  ARG337      0.2205
     43  NE       -47.0320  -56.8770  -33.9010 N.pl3 337  ARG337     -0.0865
     44  CZ       -47.7890  -56.6140  -32.8410 C.cat 337  ARG337      0.5346
     45  NH1      -47.6300  -57.3210  -31.7260 N.pl3 337  ARG337      0.1354
     46  NH2      -48.7010  -55.6470  -32.8910 N.pl3 337  ARG337      0.1354
     47  N        -49.2010  -59.3990  -37.9510 N.3   339  GLU339     -0.1245
     48  CA       -50.0070  -58.1810  -38.0630 C.3   339  GLU339      0.1567
     49  C        -51.0460  -58.3960  -39.1540 C.2   339  GLU339      0.2260
     50  O        -50.9090  -59.3140  -39.9610 O.2   339  GLU339     -0.2867
     51  CB       -49.1470  -56.9370  -38.3580 C.3   339  GLU339      0.0388
     52  CG       -48.8140  -56.0590  -37.1240 C.3   339  GLU339      0.1160
     53  CD       -49.9850  -55.1900  -36.6200 C.2   339  GLU339      0.3649
     54  OE1      -51.0200  -55.0810  -37.3190 O.co2 339  GLU339     -0.2457
     55  OE2      -49.8600  -54.6040  -35.5150 O.co2 339  GLU339     -0.2457
     56  N        -48.4240  -63.0410  -31.0540 N.3   373  ALA373     -0.1231
     57  CA       -49.4630  -62.0770  -31.3040 C.3   373  ALA373      0.1694
     58  C        -49.9830  -62.2880  -32.7140 C.2   373  ALA373      0.2592
     59  O        -49.2180  -62.3170  -33.6760 O.2   373  ALA373     -0.2718
     60  CB       -48.9380  -60.6930  -31.1360 C.3   373  ALA373      0.0304
     61  N        -51.2990  -62.4310  -32.8300 N.am  374  VAL374     -0.1966
     62  CA       -51.9240  -62.9290  -34.0510 C.3   374  VAL374      0.1727
     63  C        -53.2630  -62.2830  -34.3350 C.2   374  VAL374      0.2616
     64  O        -54.1420  -62.2170  -33.4430 O.2   374  VAL374     -0.2715
     65  CB       -52.2270  -64.4170  -33.9120 C.3   374  VAL374      0.0290
     66  CG1      -53.2570  -64.8550  -34.9500 C.3   374  VAL374      0.0023
     67  CG2      -50.9500  -65.2220  -33.9940 C.3   374  VAL374      0.0023
     68  N        -53.4180  -61.8270  -35.5800 N.am  375  TYR375     -0.1974
     69  CA       -54.7140  -61.3900  -36.0780 C.3   375  TYR375      0.1639
     70  C        -55.3000  -62.5450  -36.8810 C.2   375  TYR375      0.2290
     71  O        -54.8610  -62.8290  -37.9920 O.2   375  TYR375     -0.2864
     72  CB       -54.5870  -60.1780  -36.9900 C.3   375  TYR375      0.0560
     73  CG       -54.4710  -58.8290  -36.3220 C.ar  375  TYR375     -0.0198
     74  CD1      -53.2360  -58.3280  -35.9860 C.ar  375  TYR375     -0.0009
     75  CD2      -55.5890  -58.0340  -36.0850 C.ar  375  TYR375     -0.0009
     76  CE1      -53.1030  -57.0930  -35.4110 C.ar  375  TYR375      0.0417
     77  CE2      -55.4690  -56.7850  -35.5090 C.ar  375  TYR375      0.0417
     78  CZ       -54.2100  -56.3150  -35.1620 C.ar  375  TYR375      0.1957
     79  OH       -54.0130  -55.0660  -34.5690 O.3   375  TYR375     -0.2866
     80  N        -51.3510  -62.5400  -27.5720 N.3   398  ARG398     -0.1245
     81  CA       -52.3650  -61.5990  -28.0230 C.3   398  ARG398      0.1563
     82  C        -53.1010  -62.1530  -29.2290 C.2   398  ARG398      0.2260
     83  O        -52.4840  -62.6380  -30.1800 O.2   398  ARG398     -0.2867
     84  CB       -51.7350  -60.2550  -28.3610 C.3   398  ARG398      0.0307
     85  CG       -50.5860  -59.9020  -27.4660 C.3   398  ARG398      0.0489
     86  CD       -50.0760  -58.5230  -27.7180 C.3   398  ARG398      0.2205
     87  NE       -48.9510  -58.2280  -26.8390 N.pl3 398  ARG398     -0.0865
     88  CZ       -48.1030  -57.2190  -27.0180 C.cat 398  ARG398      0.5346
     89  NH1      -48.2270  -56.3930  -28.0530 N.pl3 398  ARG398      0.1354
     90  NH2      -47.1200  -57.0440  -26.1580 N.pl3 398  ARG398      0.1354
     91  N        -56.5100  -61.2710  -31.8350 N.3   400  VAL400     -0.1245
     92  CA       -57.5630  -60.3520  -32.2570 C.3   400  VAL400      0.1561
     93  C        -58.2730  -61.0060  -33.4360 C.2   400  VAL400      0.2260
     94  O        -57.5950  -61.3960  -34.3900 O.2   400  VAL400     -0.2867
     95  CB       -56.9660  -59.0050  -32.7260 C.3   400  VAL400      0.0252
     96  CG1      -58.0310  -58.1260  -33.3380 C.3   400  VAL400      0.0019
     97  CG2      -56.3230  -58.2870  -31.5850 C.3   400  VAL400      0.0019
     98  N        -53.7350  -60.3310  -24.3950 N.3   431  ALA431     -0.1245
     99  CA       -54.7380  -59.5160  -25.0740 C.3   431  ALA431      0.1562
    100  C        -55.6700  -60.4070  -25.8390 C.2   431  ALA431      0.2260
    101  O        -55.2340  -61.3490  -26.4810 O.2   431  ALA431     -0.2867
    102  CB       -54.0850  -58.5230  -26.0000 C.3   431  ALA431      0.0290
    103  N        -59.1270  -59.8400  -28.2040 N.3   433  TYR433     -0.1241
    104  CA       -60.0300  -58.8990  -28.8540 C.3   433  TYR433      0.1605
    105  C        -60.9730  -59.6360  -29.7870 C.2   433  TYR433      0.2264
    106  O        -60.5470  -60.1490  -30.8190 O.2   433  TYR433     -0.2867
    107  CB       -59.2020  -57.9110  -29.6590 C.3   433  TYR433      0.0534
    108  CG       -59.8700  -56.6020  -30.0390 C.ar  433  TYR433     -0.0201
    109  CD1      -59.5320  -55.4160  -29.3990 C.ar  433  TYR433     -0.0009
    110  CD2      -60.7940  -56.5410  -31.0680 C.ar  433  TYR433     -0.0009
    111  CE1      -60.1090  -54.2040  -29.7580 C.ar  433  TYR433      0.0417
    112  CE2      -61.3770  -55.3240  -31.4340 C.ar  433  TYR433      0.0417
    113  CZ       -61.0260  -54.1530  -30.7690 C.ar  433  TYR433      0.1957
    114  OH       -61.5760  -52.9340  -31.1270 O.3   433  TYR433     -0.2866
    115  N        -50.6130  -57.0670  -17.5460 N.3   456  TRP456     -0.1241
    116  CA       -51.2850  -56.2200  -18.5340 C.3   456  TRP456      0.1605
    117  C        -52.2830  -56.9800  -19.3570 C.2   456  TRP456      0.2264
    118  O        -51.9870  -58.0610  -19.8360 O.2   456  TRP456     -0.2867
    119  CB       -50.2740  -55.5790  -19.4730 C.3   456  TRP456      0.0550
    120  CG       -50.8900  -54.9870  -20.6890 C.ar  456  TRP456      0.0003
    121  CD1      -51.5110  -53.7900  -20.7870 C.ar  456  TRP456      0.0946
    122  CD2      -50.9290  -55.5650  -21.9810 C.ar  456  TRP456      0.0152
    123  NE1      -51.9350  -53.5820  -22.0640 N.ar  456  TRP456     -0.2442
    124  CE2      -51.5950  -54.6700  -22.8200 C.ar  456  TRP456      0.0810
    125  CE3      -50.4620  -56.7630  -22.5170 C.ar  456  TRP456      0.0012
    126  CZ2      -51.8150  -54.9350  -24.1750 C.ar  456  TRP456      0.0191
    127  CZ3      -50.6820  -57.0270  -23.8690 C.ar  456  TRP456      0.0001
    128  CH2      -51.3470  -56.1200  -24.6760 C.ar  456  TRP456      0.0015
    129  N        -55.2880  -56.4380  -22.5740 N.3   458  LEU458     -0.1245
    130  CA       -56.0970  -55.7050  -23.5400 C.3   458  LEU458      0.1561
    131  C        -57.2750  -56.5860  -23.8830 C.2   458  LEU458      0.2260
    132  O        -57.0910  -57.6590  -24.4490 O.2   458  LEU458     -0.2867
    133  CB       -55.3060  -55.3980  -24.8080 C.3   458  LEU458      0.0270
    134  CG       -56.1740  -54.9300  -25.9770 C.3   458  LEU458      0.0019
    135  CD1      -57.1230  -53.8180  -25.5390 C.3   458  LEU458      0.0001
    136  CD2      -55.3350  -54.5060  -27.1680 C.3   458  LEU458      0.0001
    137  N        -56.5810  -52.2760  -20.4990 N.3   483  GLU483     -0.1245
    138  CA       -57.0800  -51.5790  -21.6800 C.3   483  GLU483      0.1567
    139  C        -58.2390  -52.3690  -22.2530 C.2   483  GLU483      0.2260
    140  O        -58.0620  -53.5170  -22.6430 O.2   483  GLU483     -0.2867
    141  CB       -55.9670  -51.4660  -22.7200 C.3   483  GLU483      0.0388
    142  CG       -54.8060  -50.5830  -22.2560 C.3   483  GLU483      0.1160
    143  CD       -53.6550  -50.4810  -23.2530 C.2   483  GLU483      0.3649
    144  OE1      -53.3150  -51.5070  -23.8750 O.co2 483  GLU483     -0.2457
    145  OE2      -53.0730  -49.3740  -23.3920 O.co2 483  GLU483     -0.2457
    146  N        -61.5740  -51.8580  -25.0760 N.3   485  ARG485     -0.1245
    147  CA       -62.3680  -51.0260  -25.9680 C.3   485  ARG485      0.1563
    148  C        -63.4710  -51.8600  -26.5830 C.2   485  ARG485      0.2260
    149  O        -63.3500  -53.0820  -26.7240 O.2   485  ARG485     -0.2867
    150  CB       -61.5080  -50.3620  -27.0630 C.3   485  ARG485      0.0307
    151  CG       -61.6130  -51.0050  -28.4350 C.3   485  ARG485      0.0489
    152  CD       -60.5320  -50.5380  -29.3720 C.3   485  ARG485      0.2205
    153  NE       -60.8310  -49.2540  -30.0010 N.pl3 485  ARG485     -0.0865
    154  CZ       -61.1960  -49.1110  -31.2700 C.cat 485  ARG485      0.5346
    155  NH1      -61.3240  -50.1890  -32.0280 N.pl3 485  ARG485      0.1354
    156  NH2      -61.4330  -47.9040  -31.7740 N.pl3 485  ARG485      0.1354
    157  N        -57.2930  -47.6730  -19.4080 N.3   508  TRP508     -0.1241
    158  CA       -57.7370  -46.9780  -20.6170 C.3   508  TRP508      0.1605
    159  C        -58.9420  -47.7210  -21.2120 C.2   508  TRP508      0.2264
    160  O        -58.9330  -48.9530  -21.3130 O.2   508  TRP508     -0.2867
    161  CB       -56.6050  -46.8580  -21.6450 C.3   508  TRP508      0.0550
    162  CG       -57.0980  -47.0450  -23.0120 C.ar  508  TRP508      0.0003
    163  CD1      -57.3660  -48.2400  -23.6480 C.ar  508  TRP508      0.0946
    164  CD2      -57.4460  -46.0270  -23.9190 C.ar  508  TRP508      0.0152
    165  NE1      -57.8630  -48.0160  -24.9140 N.ar  508  TRP508     -0.2442
    166  CE2      -57.9160  -46.6660  -25.1120 C.ar  508  TRP508      0.0810
    167  CE3      -57.4270  -44.6410  -23.8550 C.ar  508  TRP508      0.0012
    168  CZ2      -58.3390  -45.9600  -26.2140 C.ar  508  TRP508      0.0191
    169  CZ3      -57.8480  -43.9290  -24.9470 C.ar  508  TRP508      0.0001
    170  CH2      -58.2960  -44.5860  -26.1200 C.ar  508  TRP508      0.0015
@<TRIPOS>BOND
     1    50    49    2
     2    49    48    1
     3    51    48    1
     4    51    52    1
     5    48    47    1
     6    71    70    2
     7    54    53   ar
     8    52    53    1
     9    39    38    2
    10    72    73    1
    11    72    69    1
    12    70    69    1
    13    53    55   ar
    14    73    75   ar
    15    73    74   ar
    16    38    37    1
    17    75    77   ar
    18    69    68    1
    19    74    76   ar
    20    68    63   am
    21    77    78   ar
    22    76    78   ar
    23    78    79    1
    24    66    65    1
    25    37    36    1
    26    37    40    1
    27    41    40    1
    28    41    42    1
    29    94    93    2
    30    63    62    1
    31    63    64    2
    32    20    19    2
    33    62    65    1
    34    62    61    1
    35    67    65    1
    36    19    18    1
    37    42    43    1
    38    43    44    2
    39    59    58    2
    40    18    21    1
    41    18    17    1
    42    93    92    1
    43    23    25   ar
    44    23    22   ar
    45    96    95    1
    46    25    27   ar
    47    21    22    1
    48    46    44    1
    49    44    45    1
    50    61    58   am
    51    95    92    1
    52    95    97    1
    53    58    57    1
    54    35    33    1
    55    22    24   ar
    56    92    91    1
    57    28    29    1
    58   155   154    1
    59    27    26   ar
    60   156   154    1
    61    33    34    1
    62    33    32    1
    63   112   110   ar
    64   112   113   ar
    65    29    32    1
    66    29    30    1
    67    24    26   ar
    68    57    60    1
    69    57    56    1
    70   154   153    2
    71   114   113    1
    72   110   108   ar
    73   106   105    2
    74   113   111   ar
    75    30    31    2
    76    15    14    2
    77    83    82    2
    78   108   107    1
    79   108   109   ar
    80   153   152    1
    81   105   104    1
    82   111   109   ar
    83   107   104    1
    84   152   151    1
    85    82    81    1
    86    14    13    1
    87   104   103    1
    88     4     3    2
    89   151   150    1
    90    84    81    1
    91    84    85    1
    92    13    16    1
    93    13    12    1
    94    89    88    1
    95    81    80    1
    96    86    85    1
    97    86    87    1
    98    10     9    1
    99     3    12   am
   100     3     2    1
   101    11     9    1
   102   136   134    1
   103   150   147    1
   104    88    87    2
   105    88    90    1
   106     9     8    2
   107   149   148    2
   108   148   147    1
   109   101   100    2
   110   168   170   ar
   111   168   166   ar
   112     2     5    1
   113     2     1    1
   114   170   169   ar
   115   102    99    1
   116   134   135    1
   117   134   133    1
   118   147   146    1
   119   100    99    1
   120     6     5    1
   121     6     7    1
   122     8     7    1
   123   166   165   ar
   124   166   164   ar
   125    99    98    1
   126   169   167   ar
   127   165   163   ar
   128   133   130    1
   129   128   126   ar
   130   128   127   ar
   131   132   131    2
   132   126   124   ar
   133   164   167   ar
   134   164   162   ar
   135   131   130    1
   136   144   143   ar
   137   127   125   ar
   138   163   162   ar
   139   130   129    1
   140   145   143   ar
   141   143   142    1
   142   162   161    1
   143   124   123   ar
   144   124   122   ar
   145   141   142    1
   146   141   138    1
   147   140   139    2
   148   125   122   ar
   149   139   138    1
   150   123   121   ar
   151   122   120   ar
   152   138   137    1
   153   161   158    1
   154   160   159    2
   155   159   158    1
   156   121   120   ar
   157   120   119    1
   158   158   157    1
   159   118   117    2
   160   119   116    1
   161   117   116    1
   162   116   115    1
