@<TRIPOS>MOLECULE
tmp/3ogmM00.pdb
 178 171 0 0 0
SMALL
GASTEIGER

@<TRIPOS>ATOM
      1  N        -51.2860  -46.4830  -25.0130 N.3    74  ARG74      -0.1231
      2  CA       -51.0650  -47.3460  -26.1650 C.3    74  ARG74       0.1694
      3  C        -51.9860  -47.0140  -27.3260 C.2    74  ARG74       0.2591
      4  O        -51.6290  -47.2190  -28.4830 O.2    74  ARG74      -0.2718
      5  CB       -51.2580  -48.8060  -25.7740 C.3    74  ARG74       0.0321
      6  CG       -49.9980  -49.5200  -25.3560 C.3    74  ARG74       0.0489
      7  CD       -50.3080  -50.9370  -24.9200 C.3    74  ARG74       0.2205
      8  NE       -51.4540  -51.4910  -25.6350 N.pl3  74  ARG74      -0.0865
      9  CZ       -51.3730  -52.1180  -26.7990 C.cat  74  ARG74       0.5346
     10  NH1      -50.2090  -52.2840  -27.3970 N.pl3  74  ARG74       0.1354
     11  NH2      -52.4670  -52.5730  -27.3670 N.pl3  74  ARG74       0.1354
     12  N        -53.1710  -46.5040  -27.0080 N.am   75  ALA75      -0.1980
     13  CA       -54.1860  -46.2320  -28.0170 C.3    75  ALA75       0.1597
     14  C        -53.6860  -45.2550  -29.0590 C.2    75  ALA75       0.2287
     15  O        -54.1460  -45.2640  -30.1900 O.2    75  ALA75      -0.2864
     16  CB       -55.4340  -45.7030  -27.3750 C.3    75  ALA75       0.0319
     17  N        -52.7400  -46.2100  -32.5310 N.3    78  PHE78      -0.1241
     18  CA       -53.8080  -46.5700  -33.4560 C.3    78  PHE78       0.1605
     19  C        -54.6300  -45.3470  -33.8300 C.2    78  PHE78       0.2264
     20  O        -55.8150  -45.4490  -34.1110 O.2    78  PHE78      -0.2867
     21  CB       -54.6880  -47.6650  -32.8590 C.3    78  PHE78       0.0534
     22  CG       -53.9280  -48.9050  -32.4920 C.ar   78  PHE78      -0.0203
     23  CD1      -53.7530  -49.9200  -33.4030 C.ar   78  PHE78      -0.0042
     24  CD2      -53.3690  -49.0460  -31.2470 C.ar   78  PHE78      -0.0042
     25  CE1      -53.0360  -51.0610  -33.0720 C.ar   78  PHE78      -0.0003
     26  CE2      -52.6560  -50.1810  -30.9150 C.ar   78  PHE78      -0.0003
     27  CZ       -52.4880  -51.1850  -31.8310 C.ar   78  PHE78      -0.0000
     28  N        -55.9110  -43.0270  -32.1790 N.3    80  LEU80      -0.1245
     29  CA       -57.1200  -42.8890  -31.3860 C.3    80  LEU80       0.1561
     30  C        -56.9860  -41.7740  -30.3780 C.2    80  LEU80       0.2260
     31  O        -57.9810  -41.3430  -29.8010 O.2    80  LEU80      -0.2867
     32  CB       -57.4490  -44.1910  -30.6730 C.3    80  LEU80       0.0270
     33  CG       -58.0480  -45.2810  -31.5570 C.3    80  LEU80       0.0019
     34  CD1      -58.4350  -46.4700  -30.7250 C.3    80  LEU80       0.0001
     35  CD2      -59.2560  -44.7510  -32.2990 C.3    80  LEU80       0.0001
     36  N        -45.9470  -62.7000  -34.6330 N.3   337  ARG337     -0.1231
     37  CA       -46.9430  -61.6400  -34.7030 C.3   337  ARG337      0.1694
     38  C        -47.5760  -61.5940  -36.0950 C.2   337  ARG337      0.2592
     39  O        -46.8740  -61.6360  -37.0950 O.2   337  ARG337     -0.2718
     40  CB       -46.2960  -60.2880  -34.3480 C.3   337  ARG337      0.0321
     41  CG       -47.2660  -59.2140  -33.8930 C.3   337  ARG337      0.0489
     42  CD       -46.6320  -57.8610  -33.8930 C.3   337  ARG337      0.2205
     43  NE       -47.6410  -56.8080  -33.9380 N.pl3 337  ARG337     -0.0865
     44  CZ       -48.4160  -56.4560  -32.9130 C.cat 337  ARG337      0.5346
     45  NH1      -48.3240  -57.0730  -31.7430 N.pl3 337  ARG337      0.1354
     46  NH2      -49.2940  -55.4790  -33.0640 N.pl3 337  ARG337      0.1354
     47  N        -48.9010  -61.4980  -36.1480 N.am  338  ILE338     -0.1966
     48  CA       -49.6390  -61.4980  -37.4050 C.3   338  ILE338      0.1727
     49  C        -50.5680  -60.2670  -37.5340 C.2   338  ILE338      0.2616
     50  O        -51.7700  -60.3700  -37.3150 O.2   338  ILE338     -0.2715
     51  CB       -50.5310  -62.7680  -37.5120 C.3   338  ILE338      0.0290
     52  CG1      -49.9190  -63.9560  -36.7500 C.3   338  ILE338      0.0022
     53  CG2      -50.8410  -63.1160  -38.9720 C.3   338  ILE338      0.0023
     54  CD1      -49.2460  -65.0010  -37.6010 C.3   338  ILE338      0.0001
     55  N        -50.0310  -59.1060  -37.8970 N.am  339  GLU339     -0.1977
     56  CA       -50.8600  -57.9020  -38.0330 C.3   339  GLU339      0.1602
     57  C        -51.8510  -58.0460  -39.1980 C.2   339  GLU339      0.2287
     58  O        -51.5650  -58.6990  -40.1930 O.2   339  GLU339     -0.2864
     59  CB       -49.9950  -56.6330  -38.2000 C.3   339  GLU339      0.0415
     60  CG       -49.7430  -55.8050  -36.9290 C.3   339  GLU339      0.1163
     61  CD       -50.9090  -54.8740  -36.5400 C.2   339  GLU339      0.3649
     62  OE1      -51.7900  -54.6180  -37.3940 O.co2 339  GLU339     -0.2457
     63  OE2      -50.9360  -54.3870  -35.3760 O.co2 339  GLU339     -0.2457
     64  N        -49.1070  -63.0800  -31.1100 N.3   373  ALA373     -0.1231
     65  CA       -50.1160  -62.0670  -31.3420 C.3   373  ALA373      0.1694
     66  C        -50.6690  -62.2060  -32.7400 C.2   373  ALA373      0.2592
     67  O        -49.9170  -62.1880  -33.7070 O.2   373  ALA373     -0.2718
     68  CB       -49.5420  -60.6840  -31.1270 C.3   373  ALA373      0.0304
     69  N        -51.9920  -62.3250  -32.8310 N.am  374  VAL374     -0.1966
     70  CA       -52.6640  -62.7360  -34.0460 C.3   374  VAL374      0.1727
     71  C        -53.9850  -62.0160  -34.2690 C.2   374  VAL374      0.2616
     72  O        -54.8430  -61.9620  -33.3720 O.2   374  VAL374     -0.2715
     73  CB       -53.0150  -64.2010  -33.9520 C.3   374  VAL374      0.0290
     74  CG1      -53.9680  -64.5750  -35.0640 C.3   374  VAL374      0.0023
     75  CG2      -51.7720  -65.0450  -33.9950 C.3   374  VAL374      0.0023
     76  N        -54.1400  -61.4690  -35.4730 N.am  375  TYR375     -0.1974
     77  CA       -55.4240  -60.9870  -35.9610 C.3   375  TYR375      0.1639
     78  C        -56.0190  -62.1340  -36.7830 C.2   375  TYR375      0.2290
     79  O        -55.6170  -62.3780  -37.9240 O.2   375  TYR375     -0.2864
     80  CB       -55.2480  -59.7520  -36.8520 C.3   375  TYR375      0.0560
     81  CG       -55.1310  -58.4090  -36.1650 C.ar  375  TYR375     -0.0198
     82  CD1      -53.9000  -57.9220  -35.7670 C.ar  375  TYR375     -0.0009
     83  CD2      -56.2430  -57.6070  -35.9670 C.ar  375  TYR375     -0.0009
     84  CE1      -53.7780  -56.6870  -35.1550 C.ar  375  TYR375      0.0417
     85  CE2      -56.1300  -56.3690  -35.3590 C.ar  375  TYR375      0.0417
     86  CZ       -54.8900  -55.9150  -34.9560 C.ar  375  TYR375      0.1957
     87  OH       -54.7450  -54.6850  -34.3600 O.3   375  TYR375     -0.2866
     88  N        -51.9520  -62.3360  -27.5080 N.3   398  ARG398     -0.1245
     89  CA       -52.9330  -61.3770  -28.0140 C.3   398  ARG398      0.1563
     90  C        -53.7300  -61.9420  -29.1810 C.2   398  ARG398      0.2260
     91  O        -53.1510  -62.4340  -30.1400 O.2   398  ARG398     -0.2867
     92  CB       -52.2490  -60.0730  -28.4130 C.3   398  ARG398      0.0307
     93  CG       -51.3070  -59.5600  -27.3570 C.3   398  ARG398      0.0489
     94  CD       -50.6590  -58.2590  -27.7500 C.3   398  ARG398      0.2205
     95  NE       -49.5130  -57.9620  -26.9020 N.pl3 398  ARG398     -0.0865
     96  CZ       -48.6550  -56.9840  -27.1390 C.cat 398  ARG398      0.5346
     97  NH1      -48.8160  -56.2050  -28.1950 N.pl3 398  ARG398      0.1354
     98  NH2      -47.6380  -56.7900  -26.3250 N.pl3 398  ARG398      0.1354
     99  N        -57.2160  -61.1150  -31.6980 N.3   400  VAL400     -0.1245
    100  CA       -58.2730  -60.2040  -32.1330 C.3   400  VAL400      0.1561
    101  C        -58.9370  -60.8260  -33.3380 C.2   400  VAL400      0.2260
    102  O        -58.2400  -61.2290  -34.2690 O.2   400  VAL400     -0.2867
    103  CB       -57.6950  -58.8430  -32.5740 C.3   400  VAL400      0.0252
    104  CG1      -58.7730  -57.9370  -33.1050 C.3   400  VAL400      0.0019
    105  CG2      -57.0040  -58.1760  -31.4350 C.3   400  VAL400      0.0019
    106  N        -54.3400  -60.1420  -24.3530 N.3   431  ALA431     -0.1245
    107  CA       -55.2490  -59.2820  -25.1070 C.3   431  ALA431      0.1562
    108  C        -56.2680  -60.1260  -25.8100 C.2   431  ALA431      0.2260
    109  O        -55.9180  -61.1000  -26.4360 O.2   431  ALA431     -0.2867
    110  CB       -54.4940  -58.4340  -26.1090 C.3   431  ALA431      0.0290
    111  N        -59.7870  -59.4330  -28.0500 N.3   433  TYR433     -0.1241
    112  CA       -60.6950  -58.4650  -28.6560 C.3   433  TYR433      0.1605
    113  C        -61.5970  -59.2250  -29.5880 C.2   433  TYR433      0.2264
    114  O        -61.1060  -59.8660  -30.5060 O.2   433  TYR433     -0.2867
    115  CB       -59.8720  -57.4220  -29.4230 C.3   433  TYR433      0.0534
    116  CG       -60.5870  -56.1620  -29.8980 C.ar  433  TYR433     -0.0201
    117  CD1      -60.3350  -54.9170  -29.3170 C.ar  433  TYR433     -0.0009
    118  CD2      -61.4700  -56.2070  -30.9660 C.ar  433  TYR433     -0.0009
    119  CE1      -60.9740  -53.7520  -29.7730 C.ar  433  TYR433      0.0417
    120  CE2      -62.1120  -55.0550  -31.4270 C.ar  433  TYR433      0.0417
    121  CZ       -61.8590  -53.8320  -30.8260 C.ar  433  TYR433      0.1957
    122  OH       -62.5000  -52.7030  -31.2990 O.3   433  TYR433     -0.2866
    123  N        -51.1870  -56.8310  -17.4360 N.3   456  TRP456     -0.1241
    124  CA       -51.8300  -55.9850  -18.4380 C.3   456  TRP456      0.1605
    125  C        -52.9020  -56.7550  -19.1860 C.2   456  TRP456      0.2264
    126  O        -52.6890  -57.9000  -19.5780 O.2   456  TRP456     -0.2867
    127  CB       -50.8030  -55.4670  -19.4430 C.3   456  TRP456      0.0550
    128  CG       -51.4370  -54.8600  -20.6510 C.ar  456  TRP456      0.0003
    129  CD1      -52.1220  -53.6910  -20.7070 C.ar  456  TRP456      0.0946
    130  CD2      -51.4560  -55.3980  -21.9810 C.ar  456  TRP456      0.0152
    131  NE1      -52.5670  -53.4640  -21.9830 N.ar  456  TRP456     -0.2442
    132  CE2      -52.1740  -54.5030  -22.7820 C.ar  456  TRP456      0.0810
    133  CE3      -50.9400  -56.5560  -22.5680 C.ar  456  TRP456      0.0012
    134  CZ2      -52.3870  -54.7260  -24.1450 C.ar  456  TRP456      0.0191
    135  CZ3      -51.1560  -56.7750  -23.9220 C.ar  456  TRP456      0.0001
    136  CH2      -51.8710  -55.8700  -24.6870 C.ar  456  TRP456      0.0015
    137  N        -55.9130  -56.1850  -22.4190 N.3   458  LEU458     -0.1245
    138  CA       -56.7390  -55.5040  -23.4130 C.3   458  LEU458      0.1561
    139  C        -57.9120  -56.4100  -23.7080 C.2   458  LEU458      0.2260
    140  O        -57.7310  -57.5660  -24.0860 O.2   458  LEU458     -0.2867
    141  CB       -55.9640  -55.2340  -24.7110 C.3   458  LEU458      0.0270
    142  CG       -56.7930  -54.6970  -25.8820 C.3   458  LEU458      0.0019
    143  CD1      -57.6220  -53.5090  -25.4560 C.3   458  LEU458      0.0001
    144  CD2      -55.9150  -54.3210  -27.0300 C.3   458  LEU458      0.0001
    145  N        -57.0560  -51.9900  -20.4110 N.3   483  GLU483     -0.1245
    146  CA       -57.5990  -51.2600  -21.5370 C.3   483  GLU483      0.1567
    147  C        -58.7640  -52.0570  -22.1280 C.2   483  GLU483      0.2260
    148  O        -58.6170  -53.2300  -22.4380 O.2   483  GLU483     -0.2867
    149  CB       -56.5130  -51.0440  -22.6010 C.3   483  GLU483      0.0388
    150  CG       -55.3420  -50.1810  -22.1410 C.3   483  GLU483      0.1160
    151  CD       -54.1810  -50.1300  -23.1390 C.2   483  GLU483      0.3649
    152  OE1      -53.9560  -51.1270  -23.8610 O.co2 483  GLU483     -0.2457
    153  OE2      -53.4800  -49.0890  -23.1760 O.co2 483  GLU483     -0.2457
    154  N        -62.1550  -51.5380  -25.0300 N.3   485  ARG485     -0.1245
    155  CA       -63.0170  -50.7480  -25.9030 C.3   485  ARG485      0.1563
    156  C        -64.0860  -51.6020  -26.5400 C.2   485  ARG485      0.2260
    157  O        -63.8850  -52.7970  -26.7650 O.2   485  ARG485     -0.2867
    158  CB       -62.2150  -50.0320  -26.9870 C.3   485  ARG485      0.0307
    159  CG       -62.0800  -50.7920  -28.2830 C.3   485  ARG485      0.0489
    160  CD       -61.1130  -50.0840  -29.2310 C.3   485  ARG485      0.2205
    161  NE       -61.6650  -48.9000  -29.9020 N.pl3 485  ARG485     -0.0865
    162  CZ       -61.8320  -48.8040  -31.2190 C.cat 485  ARG485      0.5346
    163  NH1      -61.5060  -49.8200  -32.0010 N.pl3 485  ARG485      0.1354
    164  NH2      -62.3250  -47.6990  -31.7540 N.pl3 485  ARG485      0.1354
    165  N        -57.6810  -47.3040  -19.3380 N.3   508  TRP508     -0.1241
    166  CA       -58.1890  -46.5890  -20.5270 C.3   508  TRP508      0.1605
    167  C        -59.4240  -47.3180  -21.0930 C.2   508  TRP508      0.2264
    168  O        -59.4450  -48.5480  -21.1550 O.2   508  TRP508     -0.2867
    169  CB       -57.1060  -46.4280  -21.6190 C.3   508  TRP508      0.0550
    170  CG       -57.6320  -46.7060  -22.9740 C.ar  508  TRP508      0.0003
    171  CD1      -57.9160  -47.9360  -23.5180 C.ar  508  TRP508      0.0946
    172  CD2      -57.9830  -45.7540  -23.9540 C.ar  508  TRP508      0.0152
    173  NE1      -58.4290  -47.7990  -24.7890 N.ar  508  TRP508     -0.2442
    174  CE2      -58.4800  -46.4680  -25.0820 C.ar  508  TRP508      0.0810
    175  CE3      -57.9470  -44.3680  -23.9940 C.ar  508  TRP508      0.0012
    176  CZ2      -58.9160  -45.8400  -26.2310 C.ar  508  TRP508      0.0191
    177  CZ3      -58.3840  -43.7330  -25.1410 C.ar  508  TRP508      0.0001
    178  CH2      -58.8630  -44.4710  -26.2490 C.ar  508  TRP508      0.0015
@<TRIPOS>BOND
     1    58    57    2
     2    57    56    1
     3    53    51    1
     4    59    56    1
     5    59    60    1
     6    56    55    1
     7    79    78    2
     8    55    49   am
     9    54    52    1
    10    49    48    1
    11    49    50    2
    12    51    48    1
    13    51    52    1
    14    48    47    1
    15    62    61   ar
    16    39    38    2
    17    60    61    1
    18    80    81    1
    19    80    77    1
    20    78    77    1
    21    61    63   ar
    22    81    83   ar
    23    81    82   ar
    24    47    38   am
    25    38    37    1
    26    83    85   ar
    27    77    76    1
    28    82    84   ar
    29    76    71   am
    30    85    86   ar
    31    84    86   ar
    32    74    73    1
    33    86    87    1
    34    37    36    1
    35    37    40    1
    36    40    41    1
    37    71    70    1
    38    71    72    2
    39   102   101    2
    40    20    19    2
    41    70    73    1
    42    70    69    1
    43    75    73    1
    44    43    42    1
    45    43    44    2
    46    42    41    1
    47    19    18    1
    48    67    66    2
    49    18    21    1
    50    18    17    1
    51    23    25   ar
    52    23    22   ar
    53   101   100    1
    54   104   103    1
    55    25    27   ar
    56    46    44    1
    57    44    45    1
    58    21    22    1
    59    69    66   am
    60    66    65    1
    61   103   100    1
    62   103   105    1
    63    22    24   ar
    64    35    33    1
    65    28    29    1
    66   100    99    1
    67   163   162    1
    68    27    26   ar
    69   164   162    1
    70    33    34    1
    71    33    32    1
    72   120   118   ar
    73   120   121   ar
    74    29    32    1
    75    29    30    1
    76    65    68    1
    77    65    64    1
    78   122   121    1
    79    24    26   ar
    80   162   161    2
    81   118   116   ar
    82   121   119   ar
    83   114   113    2
    84    30    31    2
    85    15    14    2
    86    91    90    2
    87   161   160    1
    88   116   115    1
    89   116   117   ar
    90   119   117   ar
    91   113   112    1
    92   115   112    1
    93   160   159    1
    94    90    89    1
    95    14    13    1
    96   112   111    1
    97     4     3    2
    98    92    89    1
    99    92    93    1
   100   159   158    1
   101    97    96    1
   102    13    16    1
   103    13    12    1
   104    89    88    1
   105    94    93    1
   106    94    95    1
   107    10     9    1
   108    11     9    1
   109     3    12   am
   110     3     2    1
   111    96    95    2
   112    96    98    1
   113   144   142    1
   114   158   155    1
   115     9     8    2
   116   157   156    2
   117   156   155    1
   118   109   108    2
   119   178   176   ar
   120   178   177   ar
   121   176   174   ar
   122     2     5    1
   123     2     1    1
   124   110   107    1
   125   155   154    1
   126   142   143    1
   127   142   141    1
   128   108   107    1
   129     5     6    1
   130     8     7    1
   131     6     7    1
   132   177   175   ar
   133   107   106    1
   134   174   173   ar
   135   174   172   ar
   136   173   171   ar
   137   141   138    1
   138   136   134   ar
   139   136   135   ar
   140   134   132   ar
   141   140   139    2
   142   175   172   ar
   143   172   170   ar
   144   135   133   ar
   145   152   151   ar
   146   139   138    1
   147   171   170   ar
   148   138   137    1
   149   153   151   ar
   150   151   150    1
   151   170   169    1
   152   132   131   ar
   153   132   130   ar
   154   149   150    1
   155   149   146    1
   156   133   130   ar
   157   148   147    2
   158   147   146    1
   159   131   129   ar
   160   130   128   ar
   161   169   166    1
   162   146   145    1
   163   168   167    2
   164   167   166    1
   165   129   128   ar
   166   128   127    1
   167   166   165    1
   168   126   125    2
   169   127   124    1
   170   125   124    1
   171   124   123    1
