@<TRIPOS>MOLECULE
tmp/3ognA00.pdb
 220 216 0 0 0
SMALL
GASTEIGER

@<TRIPOS>ATOM
      1  N         -3.2410   24.0860   21.4490 N.3     9  TYR9       -0.1241
      2  CA        -2.3430   24.2070   20.2890 C.3     9  TYR9        0.1605
      3  C         -2.2950   22.8160   19.6550 C.2     9  TYR9        0.2264
      4  O         -1.9420   21.8580   20.2850 O.2     9  TYR9       -0.2867
      5  CB        -0.9050   24.6810   20.7060 C.3     9  TYR9        0.0534
      6  CG        -0.1670   24.9650   19.4710 C.ar    9  TYR9       -0.0201
      7  CD1       -0.2110   26.2200   19.0130 C.ar    9  TYR9       -0.0009
      8  CD2        0.5800   23.9880   18.7740 C.ar    9  TYR9       -0.0009
      9  CE1        0.4340   26.5830   17.8030 C.ar    9  TYR9        0.0417
     10  CE2        1.1830   24.3120   17.5330 C.ar    9  TYR9        0.0417
     11  CZ         1.0980   25.6140   17.0650 C.ar    9  TYR9        0.1957
     12  OH         1.6440   26.0010   15.8830 O.3     9  TYR9       -0.2866
     13  N         -8.6200   27.1590   14.6570 N.3    14  LEU14      -0.1245
     14  CA        -7.8800   27.0390   13.4020 C.3    14  LEU14       0.1561
     15  C         -8.1130   25.6440   12.8200 C.2    14  LEU14       0.2260
     16  O         -8.3300   25.5180   11.6190 O.2    14  LEU14      -0.2867
     17  CB        -6.3840   27.3370   13.6190 C.3    14  LEU14       0.0270
     18  CG        -5.4990   27.2400   12.3700 C.3    14  LEU14       0.0019
     19  CD1       -5.9650   28.0940   11.2050 C.3    14  LEU14       0.0001
     20  CD2       -4.0810   27.5560   12.6600 C.3    14  LEU14       0.0001
     21  N         -9.7100   24.8620    9.1900 N.3    18  LEU18      -0.1245
     22  CA        -8.9530   24.0790    8.1700 C.3    18  LEU18       0.1561
     23  C         -9.6730   22.8910    7.7050 C.2    18  LEU18       0.2260
     24  O         -9.4710   22.5110    6.5340 O.2    18  LEU18      -0.2867
     25  CB        -7.5930   23.6870    8.7160 C.3    18  LEU18       0.0270
     26  CG        -6.5610   24.8280    8.8230 C.3    18  LEU18       0.0019
     27  CD1       -5.3300   24.4180    9.5790 C.3    18  LEU18       0.0001
     28  CD2       -6.2310   25.3940    7.4160 C.3    18  LEU18       0.0001
     29  N         -4.1590   24.0650   -0.1470 N.3    57  LEU57      -0.1231
     30  CA        -4.6380   24.7010    1.0740 C.3    57  LEU57       0.1693
     31  C         -4.4010   26.1690    1.0390 C.2    57  LEU57       0.2592
     32  O         -5.2310   26.9480    1.5460 O.2    57  LEU57      -0.2718
     33  CB        -3.9960   24.0950    2.2920 C.3    57  LEU57       0.0284
     34  CG        -4.3030   22.6790    2.7400 C.3    57  LEU57       0.0019
     35  CD1       -3.4650   22.3870    3.9950 C.3    57  LEU57       0.0001
     36  CD2       -5.8390   22.5600    3.0700 C.3    57  LEU57       0.0001
     37  N         -3.2540   26.6260    0.5460 N.am   58  PHE58      -0.1976
     38  CA        -3.0200   28.0790    0.4910 C.3    58  PHE58       0.1639
     39  C         -4.0310   28.7460   -0.4120 C.2    58  PHE58       0.2290
     40  O         -4.5210   29.8300   -0.1000 O.2    58  PHE58      -0.2864
     41  CB        -1.6320   28.3900   -0.0410 C.3    58  PHE58       0.0560
     42  CG        -0.4970   27.9710    0.8880 C.ar   58  PHE58      -0.0200
     43  CD1       -0.5080   28.2760    2.2550 C.ar   58  PHE58      -0.0042
     44  CD2        0.6010   27.2860    0.3580 C.ar   58  PHE58      -0.0042
     45  CE1        0.6310   27.9750    3.0180 C.ar   58  PHE58      -0.0003
     46  CE2        1.7080   26.9740    1.1680 C.ar   58  PHE58      -0.0003
     47  CZ         1.7050   27.3040    2.4750 C.ar   58  PHE58      -0.0000
     48  N          2.7690   36.0800    2.4170 N.3    72  LEU72      -0.1231
     49  CA         3.0250   35.7270    3.7750 C.3    72  LEU72       0.1693
     50  C          2.3160   36.6200    4.7460 C.2    72  LEU72       0.2591
     51  O          2.0510   36.2190    5.9030 O.2    72  LEU72      -0.2718
     52  CB         4.5400   35.6710    4.0690 C.3    72  LEU72       0.0284
     53  CG         5.2610   34.5620    3.3420 C.3    72  LEU72       0.0019
     54  CD1        6.7220   34.7540    3.5010 C.3    72  LEU72       0.0001
     55  CD2        4.8230   33.1740    3.9550 C.3    72  LEU72       0.0001
     56  N          2.0660   37.9050    4.3960 N.am   73  GLU73      -0.1979
     57  CA         1.3380   38.7930    5.3180 C.3    73  GLU73       0.1602
     58  C         -0.1310   38.3650    5.4350 C.2    73  GLU73       0.2287
     59  O         -0.6610   38.2940    6.5740 O.2    73  GLU73      -0.2864
     60  CB         1.3620   40.2750    4.8900 C.3    73  GLU73       0.0415
     61  CG         2.7610   40.7950    4.6700 C.3    73  GLU73       0.1163
     62  CD         2.7810   42.2120    4.1590 C.2    73  GLU73       0.3649
     63  OE1        1.7120   42.7260    3.6770 O.co2  73  GLU73      -0.2457
     64  OE2        3.8280   42.8660    4.2610 O.co2  73  GLU73      -0.2457
     65  N         -1.2090   35.3740    4.9970 N.3    75  LEU75      -0.1231
     66  CA        -1.1790   34.1400    5.7810 C.3    75  LEU75       0.1693
     67  C         -1.0520   34.4530    7.2620 C.2    75  LEU75       0.2592
     68  O         -1.7670   33.9090    8.1000 O.2    75  LEU75      -0.2718
     69  CB        -0.0620   33.2510    5.2520 C.3    75  LEU75       0.0284
     70  CG         0.1610   31.9510    6.0410 C.3    75  LEU75       0.0019
     71  CD1       -1.0570   31.0960    6.1010 C.3    75  LEU75       0.0001
     72  CD2        1.3290   31.1720    5.4250 C.3    75  LEU75       0.0001
     73  N         -0.0260   35.2250    7.6060 N.am   76  HIS76      -0.1976
     74  CA         0.1670   35.5800    9.0080 C.3    76  HIS76       0.1656
     75  C         -1.0640   36.1800    9.6460 C.2    76  HIS76       0.2291
     76  O         -1.4130   35.8040   10.7740 O.2    76  HIS76      -0.2864
     77  CB         1.3840   36.5430    9.0970 C.3    76  HIS76       0.0771
     78  CG         1.9860   36.6200   10.4480 C.ar   76  HIS76       0.0820
     79  ND1        2.8240   37.6570   10.7870 N.ar   76  HIS76      -0.2267
     80  CD2        1.9510   35.7840   11.5120 C.ar   76  HIS76       0.1154
     81  CE1        3.2550   37.4570   12.0210 C.ar   76  HIS76       0.1986
     82  NE2        2.7300   36.3530   12.5010 N.ar   76  HIS76      -0.2212
     83  N         -3.9890   33.7830   10.8360 N.3    79  LEU79      -0.1245
     84  CA        -3.8310   32.8980   11.9640 C.3    79  LEU79       0.1561
     85  C         -4.3960   33.5260   13.2020 C.2    79  LEU79       0.2260
     86  O         -4.4300   34.7370   13.2770 O.2    79  LEU79      -0.2867
     87  CB        -2.3340   32.5910   12.1720 C.3    79  LEU79       0.0270
     88  CG        -1.6650   31.9650   10.9680 C.3    79  LEU79       0.0019
     89  CD1       -0.1360   31.8900   11.1880 C.3    79  LEU79       0.0001
     90  CD2       -2.2420   30.5360   10.7030 C.3    79  LEU79       0.0001
     91  N         -1.1070   32.6520   17.8830 N.3    83  MET83      -0.1245
     92  CA        -0.0110   32.0420   17.0900 C.3    83  MET83       0.1570
     93  C          0.8390   33.0960   16.3860 C.2    83  MET83       0.2261
     94  O          1.7780   32.7400   15.6940 O.2    83  MET83      -0.2867
     95  CB        -0.6150   31.1900   15.9500 C.3    83  MET83       0.0387
     96  CG        -1.2120   29.9500   16.4630 C.3    83  MET83       0.0595
     97  SD        -1.9340   29.0340   15.1480 S.3    83  MET83      -0.1393
     98  CE        -0.7610   28.8310   14.2370 C.3    83  MET83       0.0692
     99  N          4.6310   32.8320   17.3760 N.3    86  ILE86      -0.1231
    100  CA         5.1440   31.5120   16.9520 C.3    86  ILE86       0.1692
    101  C          5.3340   31.4950   15.4370 C.2    86  ILE86       0.2592
    102  O          6.4190   31.0870   14.9670 O.2    86  ILE86      -0.2718
    103  CB         4.1720   30.4540   17.3740 C.3    86  ILE86       0.0266
    104  CG1        4.2690   30.2160   18.8970 C.3    86  ILE86       0.0019
    105  CG2        4.3430   29.1020   16.6430 C.3    86  ILE86       0.0020
    106  CD1        3.0110   29.5140   19.4780 C.3    86  ILE86       0.0001
    107  N          4.3310   31.9740   14.7280 N.am   87  ALA87      -0.1966
    108  CA         4.4220   31.9490   13.2700 C.3    87  ALA87       0.1728
    109  C          5.5290   32.8610   12.7790 C.2    87  ALA87       0.2616
    110  O          6.2560   32.5370   11.8140 O.2    87  ALA87      -0.2715
    111  CB         3.0880   32.3620   12.7220 C.3    87  ALA87       0.0334
    112  N          5.6940   34.0510   13.3900 N.am   88  MET88      -0.1977
    113  CA         6.6980   34.9710   12.9560 C.3    88  MET88       0.1605
    114  C          8.1060   34.3600   13.0800 C.2    88  MET88       0.2287
    115  O          8.9430   34.4480   12.1790 O.2    88  MET88      -0.2864
    116  CB         6.5490   36.2500   13.7900 C.3    88  MET88       0.0414
    117  CG         7.5720   37.2480   13.6540 C.3    88  MET88       0.0606
    118  SD         7.1860   38.7390   14.6750 S.3    88  MET88      -0.1393
    119  CE         6.7520   38.8840   13.1990 C.3    88  MET88       0.0684
    120  N          8.8600   31.1770   13.2400 N.3    90  MET90      -0.1230
    121  CA         8.9280   30.0150   12.3540 C.3    90  MET90       0.1702
    122  C          9.2010   30.4790   10.9160 C.2    90  MET90       0.2593
    123  O          9.8660   29.7920   10.1510 O.2    90  MET90      -0.2718
    124  CB         7.5190   29.3200   12.3990 C.3    90  MET90       0.0401
    125  CG         7.4610   28.0740   11.5120 C.3    90  MET90       0.0596
    126  SD         5.8050   27.3260   11.6210 S.3    90  MET90      -0.1393
    127  CE         6.0310   26.3890   13.0370 C.3    90  MET90       0.0692
    128  N          8.6250   31.6280   10.5340 N.am   91  GLY91      -0.1942
    129  CA         8.6510   32.0130    9.1170 C.3    91  GLY91       0.2014
    130  C          9.6750   33.0640    8.7610 C.2    91  GLY91       0.2638
    131  O          9.8530   33.3330    7.5740 O.2    91  GLY91      -0.2714
    132  N         10.4360   33.6430    9.7240 N.am   92  LYS92      -0.1977
    133  CA        11.2710   34.8110    9.4230 C.3    92  LYS92       0.1596
    134  C         12.5010   34.4990    8.5680 C.2    92  LYS92       0.2287
    135  O         13.0930   35.4220    8.0130 O.2    92  LYS92      -0.2864
    136  CB        11.6720   35.4670   10.7550 C.3    92  LYS92       0.0298
    137  CG        12.5970   34.6060   11.5970 C.3    92  LYS92       0.0038
    138  CD        12.7820   35.2220   12.9870 C.3    92  LYS92       0.0206
    139  CE        13.6250   34.2610   13.8850 C.3    92  LYS92       0.1093
    140  NZ        13.7320   34.8950   15.2360 N.3    92  LYS92      -0.1314
    141  N         11.2370   33.4430    3.9390 N.3    95  LEU95      -0.1245
    142  CA        10.5110   34.4480    3.2420 C.3    95  LEU95       0.1561
    143  C         10.3940   34.2490    1.7600 C.2    95  LEU95       0.2260
    144  O          9.5000   34.8110    1.1620 O.2    95  LEU95      -0.2867
    145  CB        11.1020   35.8430    3.4780 C.3    95  LEU95       0.0270
    146  CG        11.1720   36.3040    4.9090 C.3    95  LEU95       0.0019
    147  CD1       11.7500   37.7230    4.9450 C.3    95  LEU95       0.0001
    148  CD2        9.8110   36.3000    5.5800 C.3    95  LEU95       0.0001
    149  N          6.6470   24.5940    3.6440 N.3   110  HIS110     -0.1241
    150  CA         6.3320   23.6820    4.7420 C.3   110  HIS110      0.1621
    151  C          7.5840   23.0250    5.2950 C.2   110  HIS110      0.2264
    152  O          7.7380   22.8890    6.5170 O.2   110  HIS110     -0.2867
    153  CB         5.3020   22.6590    4.3030 C.3   110  HIS110      0.0745
    154  CG         3.9140   23.2080    4.3170 C.ar  110  HIS110      0.0817
    155  ND1        3.1020   23.1080    5.4400 N.ar  110  HIS110     -0.2268
    156  CD2        3.2100   23.8630    3.3810 C.ar  110  HIS110      0.1154
    157  CE1        1.9390   23.6810    5.1290 C.ar  110  HIS110      0.1986
    158  NE2        1.9640   24.1500    3.8860 N.ar  110  HIS110     -0.2212
    159  N          9.4100   25.7360    7.3520 N.3   113  TRP113     -0.1241
    160  CA         8.7690   25.9550    8.6440 C.3   113  TRP113      0.1605
    161  C          8.9860   24.8070    9.5750 C.2   113  TRP113      0.2264
    162  O          9.2300   25.0310   10.7880 O.2   113  TRP113     -0.2867
    163  CB         7.2470   26.1230    8.4070 C.3   113  TRP113      0.0550
    164  CG         6.8900   27.3860    7.6880 C.ar  113  TRP113      0.0003
    165  CD1        7.5600   28.5970    7.6550 C.ar  113  TRP113      0.0946
    166  CD2        5.7140   27.5760    6.8870 C.ar  113  TRP113      0.0152
    167  NE1        6.8630   29.4980    6.9060 N.ar  113  TRP113     -0.2442
    168  CE2        5.7140   28.9000    6.4270 C.ar  113  TRP113      0.0810
    169  CE3        4.6470   26.7140    6.5390 C.ar  113  TRP113      0.0012
    170  CZ2        4.7100   29.4040    5.6300 C.ar  113  TRP113      0.0191
    171  CZ3        3.6610   27.2110    5.7010 C.ar  113  TRP113      0.0001
    172  CH2        3.6670   28.5500    5.2830 C.ar  113  TRP113      0.0015
    173  N          6.1850   23.5200   16.9370 N.3   120  HIS120     -0.1226
    174  CA         4.9030   24.1660   16.6250 C.3   120  HIS120      0.1752
    175  C          4.4100   23.8580   15.2200 C.2   120  HIS120      0.2596
    176  O          3.2730   24.1650   14.9030 O.2   120  HIS120     -0.2718
    177  CB         5.0410   25.6920   16.8030 C.3   120  HIS120      0.0759
    178  CG         5.1890   26.0520   18.2350 C.ar  120  HIS120      0.0818
    179  ND1        6.3870   26.5240   18.7300 N.ar  120  HIS120     -0.2268
    180  CD2        4.3380   25.8970   19.2720 C.ar  120  HIS120      0.1154
    181  CE1        6.2320   26.7190   20.0590 C.ar  120  HIS120      0.1986
    182  NE2        5.0100   26.3350   20.3890 N.ar  120  HIS120     -0.2212
    183  N          5.2300   23.2360   14.3750 N.am  121  TYR121     -0.1962
    184  CA         4.7390   22.9010   13.0260 C.3   121  TYR121      0.1771
    185  C          3.6600   21.8740   13.1420 C.2   121  TYR121      0.2620
    186  O          3.7620   20.9180   13.9550 O.2   121  TYR121     -0.2715
    187  CB         5.9400   22.3750   12.2120 C.3   121  TYR121      0.0574
    188  CG         5.4290   22.0370   10.8150 C.ar  121  TYR121     -0.0198
    189  CD1        5.2390   23.0420    9.8740 C.ar  121  TYR121     -0.0009
    190  CD2        5.0380   20.7300   10.5140 C.ar  121  TYR121     -0.0009
    191  CE1        4.6320   22.7620    8.6440 C.ar  121  TYR121      0.0417
    192  CE2        4.4130   20.4400    9.2970 C.ar  121  TYR121      0.0417
    193  CZ         4.2300   21.4660    8.3900 C.ar  121  TYR121      0.1957
    194  OH         3.6170   21.1280    7.2200 O.3   121  TYR121     -0.2866
    195  N          2.6330   21.9780   12.2870 N.am  122  PHE122     -0.1960
    196  CA         1.6590   20.9000   12.1450 C.3   122  PHE122      0.1771
    197  C          1.0930   21.0290   10.7340 C.2   122  PHE122      0.2619
    198  O          1.2020   22.0830   10.1180 O.2   122  PHE122     -0.2715
    199  CB         0.5410   20.9880   13.2210 C.3   122  PHE122      0.0574
    200  CG        -0.3010   22.2050   13.0500 C.ar  122  PHE122     -0.0200
    201  CD1       -1.5250   22.1070   12.3930 C.ar  122  PHE122     -0.0042
    202  CD2        0.0710   23.4180   13.6100 C.ar  122  PHE122     -0.0042
    203  CE1       -2.3800   23.1760   12.2320 C.ar  122  PHE122     -0.0003
    204  CE2       -0.7130   24.5520   13.4600 C.ar  122  PHE122     -0.0003
    205  CZ        -1.9710   24.4340   12.7360 C.ar  122  PHE122     -0.0000
    206  N          0.4020   19.9790   10.3080 N.am  123  LEU123     -0.1963
    207  CA        -0.3190   20.0100    9.0250 C.3   123  LEU123      0.1728
    208  C         -1.5460   19.1500    9.2440 C.2   123  LEU123      0.2616
    209  O         -1.4750   18.0700    9.8140 O.2   123  LEU123     -0.2715
    210  CB         0.5710   19.3880    7.9210 C.3   123  LEU123      0.0311
    211  CG        -0.0490   19.4380    6.5540 C.3   123  LEU123      0.0022
    212  CD1       -0.1780   20.8430    5.9970 C.3   123  LEU123      0.0001
    213  CD2        0.7820   18.5000    5.6150 C.3   123  LEU123      0.0001
    214  N         -2.6670   19.6120    8.7750 N.am  124  VAL124     -0.1977
    215  CA        -3.9060   18.8160    8.7970 C.3   124  VAL124      0.1596
    216  C         -4.5650   18.8490    7.4660 C.2   124  VAL124      0.2287
    217  O         -4.0450   19.5610    6.6110 O.2   124  VAL124     -0.2864
    218  CB        -4.8980   19.2640    9.9320 C.3   124  VAL124      0.0276
    219  CG1       -4.3090   18.9490   11.3200 C.3   124  VAL124      0.0022
    220  CG2       -5.2270   20.7230    9.8180 C.3   124  VAL124      0.0022
@<TRIPOS>BOND
     1    39    40    2
     2    39    38    1
     3    29    30    1
     4    41    38    1
     5    41    42    1
     6    44    42   ar
     7    44    46   ar
     8    38    37    1
     9    37    31   am
    10    42    43   ar
    11    31    30    1
    12    31    32    2
    13    30    33    1
    14   144   143    2
    15    46    47   ar
    16   143   142    1
    17    43    45   ar
    18    33    34    1
    19    48    49    1
    20    47    45   ar
    21    34    36    1
    22    34    35    1
    23   142   145    1
    24   142   141    1
    25    53    54    1
    26    53    55    1
    27    53    52    1
    28   156   158   ar
    29   156   154   ar
    30   145   146    1
    31   149   150    1
    32    63    62   ar
    33    49    52    1
    34    49    50    1
    35   158   157   ar
    36    62    64   ar
    37    62    61    1
    38   153   154    1
    39   153   150    1
    40   154   155   ar
    41    56    50   am
    42    56    57    1
    43    61    60    1
    44   150   151    1
    45    50    51    2
    46    60    57    1
    47   146   147    1
    48   146   148    1
    49    65    66    1
    50   157   155   ar
    51    69    66    1
    52    69    70    1
    53   172   170   ar
    54   172   171   ar
    55   151   152    2
    56    57    58    1
    57    72    70    1
    58    58    59    2
    59   213   211    1
    60   170   168   ar
    61   171   169   ar
    62    66    67    1
    63   212   211    1
    64    70    71    1
    65   168   166   ar
    66   168   167   ar
    67    24    23    2
    68   169   166   ar
    69   211   210    1
    70   217   216    2
    71   166   164   ar
    72   167   165   ar
    73   194   193    1
    74    67    73   am
    75    67    68    2
    76   159   160    1
    77    28    26    1
    78   216   215    1
    79   131   130    2
    80    73    74    1
    81   165   164   ar
    82   164   163    1
    83    23    22    1
    84   210   207    1
    85   135   134    2
    86    22    25    1
    87    22    21    1
    88   193   191   ar
    89   193   192   ar
    90   163   160    1
    91   134   133    1
    92   160   161    1
    93   191   189   ar
    94    25    26    1
    95   130   129    1
    96   130   132   am
    97   214   215    1
    98   214   208   am
    99   215   218    1
   100    26    27    1
   101    74    77    1
   102    74    75    1
   103   207   208    1
   104   207   206    1
   105    77    78    1
   106   129   128    1
   107   208   209    2
   108   192   190   ar
   109   133   132    1
   110   133   136    1
   111   161   162    2
   112    75    76    2
   113   220   218    1
   114   189   188   ar
   115   218   219    1
   116   198   197    2
   117   123   122    2
   118   206   197   am
   119    78    79   ar
   120    78    80   ar
   121   190   188   ar
   122   128   122   am
   123    90    88    1
   124   197   196    1
   125   136   137    1
   126    79    81   ar
   127   188   187    1
   128    83    84    1
   129   122   121    1
   130    88    89    1
   131    88    87    1
   132    19    18    1
   133    80    82   ar
   134   125   126    1
   135   125   124    1
   136   137   138    1
   137    16    15    2
   138   126   127    1
   139   110   109    2
   140    84    87    1
   141    84    85    1
   142    81    82   ar
   143   196   195    1
   144   196   199    1
   145   115   114    2
   146   187   184    1
   147   203   201   ar
   148   203   205   ar
   149   195   185   am
   150   121   124    1
   151   121   120    1
   152    18    20    1
   153    18    17    1
   154   201   200   ar
   155   111   108    1
   156   205   204   ar
   157   109   108    1
   158   109   112   am
   159    15    14    1
   160   113   114    1
   161   113   112    1
   162   113   116    1
   163   138   139    1
   164   184   185    1
   165   184   183    1
   166   200   199    1
   167   200   202   ar
   168   185   186    2
   169   119   117    1
   170   119   118    1
   171    85    86    2
   172   108   107    1
   173    14    17    1
   174    14    13    1
   175   204   202   ar
   176   117   116    1
   177   117   118    1
   178   139   140    1
   179    98    97    1
   180   183   175   am
   181   107   101   am
   182   176   175    2
   183   102   101    2
   184    97    96    1
   185   175   174    1
   186   101   100    1
   187    94    93    2
   188    12    11    1
   189    95    96    1
   190    95    92    1
   191    93    92    1
   192   174   177    1
   193   174   173    1
   194   105   103    1
   195   177   178    1
   196   100   103    1
   197   100    99    1
   198    11    10   ar
   199    11     9   ar
   200    92    91    1
   201   103   104    1
   202    10     8   ar
   203     9     7   ar
   204   178   179   ar
   205   178   180   ar
   206   179   181   ar
   207     8     6   ar
   208   104   106    1
   209     7     6   ar
   210   180   182   ar
   211     6     5    1
   212     3     4    2
   213     3     2    1
   214   181   182   ar
   215     2     5    1
   216     2     1    1
