@<TRIPOS>MOLECULE
tmp/3ogrA00.pdb
 140 138 0 0 0
SMALL
GASTEIGER

@<TRIPOS>ATOM
      1  N         -6.6920    5.7570   -2.2490 N.3    59  TYR59      -0.1241
      2  CA        -7.9960    5.7920   -1.5880 C.3    59  TYR59       0.1605
      3  C         -8.0980    6.9000   -0.5780 C.2    59  TYR59       0.2264
      4  O         -7.0680    7.3880    0.0030 O.2    59  TYR59      -0.2867
      5  CB        -8.2660    4.4380   -0.8240 C.3    59  TYR59       0.0534
      6  CG        -8.6160    3.2640   -1.7090 C.ar   59  TYR59      -0.0201
      7  CD1       -9.6020    3.3510   -2.7450 C.ar   59  TYR59      -0.0009
      8  CD2       -8.0790    1.9970   -1.3900 C.ar   59  TYR59      -0.0009
      9  CE1       -9.9600    2.1540   -3.4970 C.ar   59  TYR59       0.0417
     10  CE2       -8.4540    0.8480   -2.0960 C.ar   59  TYR59       0.0417
     11  CZ        -9.3680    0.9420   -3.1510 C.ar   59  TYR59       0.1957
     12  OH        -9.6950   -0.1820   -3.8560 O.3    59  TYR59      -0.2866
     13  N        -14.4840    1.6770   -0.3290 N.3   102  ILE102     -0.1231
     14  CA       -13.1120    1.4320   -0.8840 C.3   102  ILE102      0.1692
     15  C        -12.5730    0.0100   -0.6830 C.2   102  ILE102      0.2592
     16  O        -11.6600   -0.3880   -1.3730 O.2   102  ILE102     -0.2718
     17  CB       -12.0440    2.4940   -0.3210 C.3   102  ILE102      0.0266
     18  CG1      -11.9470    2.4010    1.2050 C.3   102  ILE102      0.0019
     19  CG2      -12.3940    3.8690   -0.8200 C.3   102  ILE102      0.0020
     20  CD1      -10.6640    3.0600    1.7240 C.3   102  ILE102      0.0001
     21  N        -13.1800   -0.7290    0.2330 N.am  103  ASN103     -0.1960
     22  CA       -12.7360   -2.1150    0.5920 C.3   103  ASN103      0.1819
     23  C        -11.3650   -1.9630    1.2740 C.2   103  ASN103      0.2621
     24  O        -11.3450   -1.5530    2.4440 O.2   103  ASN103     -0.2715
     25  CB       -12.7570   -3.0810   -0.6400 C.3   103  ASN103      0.1195
     26  CG       -12.9330   -4.5110   -0.2400 C.2   103  ASN103      0.2630
     27  OD1      -13.9670   -4.8640    0.3850 O.2   103  ASN103     -0.2716
     28  ND2      -11.8880   -5.3660   -0.5430 N.am  103  ASN103     -0.0877
     29  N        -10.2370   -2.2720    0.5830 N.am  104  ALA104     -0.1963
     30  CA        -8.9060   -1.7780    1.0180 C.3   104  ALA104      0.1728
     31  C         -8.3480   -2.3990    2.2630 C.2   104  ALA104      0.2616
     32  O         -7.3110   -1.9750    2.8000 O.2   104  ALA104     -0.2715
     33  CB        -8.8550   -0.2240    1.1590 C.3   104  ALA104      0.0334
     34  N         -8.9890   -3.4640    2.7200 N.am  105  GLU105     -0.1977
     35  CA        -8.6270   -4.0910    4.0330 C.3   105  GLU105      0.1602
     36  C         -8.6480   -3.0650    5.1810 C.2   105  GLU105      0.2287
     37  O         -7.9240   -3.1900    6.1550 O.2   105  GLU105     -0.2864
     38  CB        -7.2610   -4.8120    3.9740 C.3   105  GLU105      0.0415
     39  CG        -7.3940   -6.0910    3.0630 C.3   105  GLU105      0.1163
     40  CD        -7.4670   -5.8090    1.5770 C.2   105  GLU105      0.3649
     41  OE1       -6.5330   -5.1310    1.0370 O.co2 105  GLU105     -0.2457
     42  OE2       -8.4380   -6.3160    0.9000 O.co2 105  GLU105     -0.2457
     43  N        -16.0750    1.2180   -5.9770 N.3   162  ASN162     -0.1225
     44  CA       -14.9040    0.3300   -5.9970 C.3   162  ASN162      0.1785
     45  C        -15.3600   -1.0920   -6.3280 C.2   162  ASN162      0.2597
     46  O        -16.1310   -1.6950   -5.5410 O.2   162  ASN162     -0.2718
     47  CB       -14.1710    0.3130   -4.6380 C.3   162  ASN162      0.1169
     48  CG       -12.8480   -0.4370   -4.7610 C.2   162  ASN162      0.2627
     49  OD1      -11.8830    0.1230   -5.3150 O.2   162  ASN162     -0.2716
     50  ND2      -12.7600   -1.6720   -4.2840 N.am  162  ASN162     -0.0877
     51  N        -14.8590   -1.6570   -7.4220 N.am  163  GLU163     -0.1979
     52  CA       -15.2190   -3.0270   -7.8030 C.3   163  GLU163      0.1602
     53  C        -16.7330   -3.3020   -7.6800 C.2   163  GLU163      0.2287
     54  O        -17.2000   -4.2040   -6.9910 O.2   163  GLU163     -0.2864
     55  CB       -14.4310   -4.0940   -7.0200 C.3   163  GLU163      0.0415
     56  CG       -12.9230   -4.0350   -7.4060 C.3   163  GLU163      0.1163
     57  CD       -12.1780   -5.3630   -7.1250 C.2   163  GLU163      0.3649
     58  OE1      -12.6910   -6.2480   -6.4170 O.co2 163  GLU163     -0.2457
     59  OE2      -11.0110   -5.5040   -7.6190 O.co2 163  GLU163     -0.2457
     60  N         -5.6910   -9.9660   -9.6410 N.3   223  TYR223     -0.1241
     61  CA        -4.7960  -10.5350   -8.6470 C.3   223  TYR223      0.1605
     62  C         -4.6030  -11.9840   -8.9380 C.2   223  TYR223      0.2264
     63  O         -5.0760  -12.8780   -8.1820 O.2   223  TYR223     -0.2867
     64  CB        -5.3350  -10.3140   -7.2220 C.3   223  TYR223      0.0534
     65  CG        -5.3840   -8.8270   -6.8720 C.ar  223  TYR223     -0.0201
     66  CD1       -6.4660   -8.0310   -7.2620 C.ar  223  TYR223     -0.0009
     67  CD2       -4.3260   -8.2220   -6.1430 C.ar  223  TYR223     -0.0009
     68  CE1       -6.5500   -6.6170   -6.8970 C.ar  223  TYR223      0.0417
     69  CE2       -4.3910   -6.8760   -5.7720 C.ar  223  TYR223      0.0417
     70  CZ        -5.4700   -6.1040   -6.1840 C.ar  223  TYR223      0.1957
     71  OH        -5.5280   -4.7840   -5.8000 O.3   223  TYR223     -0.2866
     72  N         -4.2440  -14.4320   -2.5110 N.3   227  PHE227     -0.1241
     73  CA        -3.7520  -13.7880   -1.2840 C.3   227  PHE227      0.1605
     74  C         -3.2400  -14.6440   -0.1660 C.2   227  PHE227      0.2264
     75  O         -2.8990  -14.1370    0.9550 O.2   227  PHE227     -0.2867
     76  CB        -4.8170  -12.8150   -0.7720 C.3   227  PHE227      0.0534
     77  CG        -5.2890  -11.8690   -1.8050 C.ar  227  PHE227     -0.0203
     78  CD1       -6.4940  -12.1030   -2.4670 C.ar  227  PHE227     -0.0042
     79  CD2       -4.5180  -10.7400   -2.1490 C.ar  227  PHE227     -0.0042
     80  CE1       -6.9890  -11.1840   -3.3890 C.ar  227  PHE227     -0.0003
     81  CE2       -4.9680   -9.8560   -3.1080 C.ar  227  PHE227     -0.0003
     82  CZ        -6.1990  -10.0420   -3.7310 C.ar  227  PHE227     -0.0000
     83  N         -6.1820   -1.8230  -10.7820 N.3   261  GLU261     -0.1245
     84  CA        -5.4050   -2.4830   -9.6890 C.3   261  GLU261      0.1567
     85  C         -4.8320   -3.7610  -10.2480 C.2   261  GLU261      0.2260
     86  O         -5.6050   -4.6400  -10.6930 O.2   261  GLU261     -0.2867
     87  CB        -6.2990   -2.8790   -8.5140 C.3   261  GLU261      0.0388
     88  CG        -6.9950   -1.6720   -7.8040 C.3   261  GLU261      0.1160
     89  CD        -7.9180   -2.1590   -6.7330 C.2   261  GLU261      0.3649
     90  OE1       -7.6610   -3.2700   -6.1860 O.co2 261  GLU261     -0.2457
     91  OE2       -8.8820   -1.4600   -6.4300 O.co2 261  GLU261     -0.2457
     92  N         -2.4910   -9.1040    0.8410 N.3   267  PHE267     -0.1241
     93  CA        -2.7830   -8.8710    2.2630 C.3   267  PHE267      0.1605
     94  C         -2.5230  -10.1730    3.0220 C.2   267  PHE267      0.2264
     95  O         -2.2300  -11.2450    2.4200 O.2   267  PHE267     -0.2867
     96  CB        -4.2500   -8.3980    2.4590 C.3   267  PHE267      0.0534
     97  CG        -5.2930   -9.3210    1.8790 C.ar  267  PHE267     -0.0203
     98  CD1       -5.5390  -10.5860    2.4910 C.ar  267  PHE267     -0.0042
     99  CD2       -5.9660   -8.9680    0.7430 C.ar  267  PHE267     -0.0042
    100  CE1       -6.5560  -11.4580    1.9710 C.ar  267  PHE267     -0.0003
    101  CE2       -6.9770   -9.8070    0.1960 C.ar  267  PHE267     -0.0003
    102  CZ        -7.2830  -11.0200    0.8120 C.ar  267  PHE267     -0.0000
    103  N         -1.0820   -2.3580   -7.0730 N.3   305  TYR305     -0.1241
    104  CA        -1.6690   -2.2860   -5.7530 C.3   305  TYR305      0.1605
    105  C         -1.0620   -3.4060   -4.8850 C.2   305  TYR305      0.2264
    106  O         -1.2470   -4.5550   -5.2640 O.2   305  TYR305     -0.2867
    107  CB        -3.2080   -2.5000   -5.8860 C.3   305  TYR305      0.0534
    108  CG        -3.9530   -2.3610   -4.5680 C.ar  305  TYR305     -0.0201
    109  CD1       -3.8330   -3.2950   -3.5450 C.ar  305  TYR305     -0.0009
    110  CD2       -4.8150   -1.2460   -4.3370 C.ar  305  TYR305     -0.0009
    111  CE1       -4.4740   -3.1440   -2.3260 C.ar  305  TYR305      0.0417
    112  CE2       -5.4760   -1.0810   -3.1130 C.ar  305  TYR305      0.0417
    113  CZ        -5.2870   -2.0080   -2.1100 C.ar  305  TYR305      0.1957
    114  OH        -5.9150   -1.7920   -0.8930 O.3   305  TYR305     -0.2866
    115  N          2.2170   -5.4810    2.9370 N.3   327  TYR327     -0.1241
    116  CA         1.6210   -6.0320    1.7020 C.3   327  TYR327      0.1605
    117  C          2.6480   -6.8030    0.8560 C.2   327  TYR327      0.2264
    118  O          2.3050   -7.2950   -0.2250 O.2   327  TYR327     -0.2867
    119  CB         1.0350   -4.8680    0.8190 C.3   327  TYR327      0.0534
    120  CG        -0.1500   -5.2910   -0.0190 C.ar  327  TYR327     -0.0201
    121  CD1       -1.4050   -5.4030    0.5330 C.ar  327  TYR327     -0.0009
    122  CD2        0.0070   -5.6000   -1.3520 C.ar  327  TYR327     -0.0009
    123  CE1       -2.5080   -5.7770   -0.2350 C.ar  327  TYR327      0.0417
    124  CE2       -1.0910   -5.9800   -2.1570 C.ar  327  TYR327      0.0417
    125  CZ        -2.3370   -6.1160   -1.5740 C.ar  327  TYR327      0.1957
    126  OH        -3.4260   -6.5460   -2.3380 O.3   327  TYR327     -0.2866
    127  N        -17.9130   -6.3430    0.5170 N.3   774  TRP774     -0.1241
    128  CA       -17.4710   -6.4210   -0.8440 C.3   774  TRP774      0.1605
    129  C        -18.5680   -6.8970   -1.7880 C.2   774  TRP774      0.2264
    130  O        -18.4240   -6.7010   -3.0210 O.2   774  TRP774     -0.2867
    131  CB       -16.1870   -7.2900   -0.9610 C.3   774  TRP774      0.0550
    132  CG       -15.6410   -7.2980   -2.3410 C.ar  774  TRP774      0.0003
    133  CD1      -14.6270   -6.5300   -2.7770 C.ar  774  TRP774      0.0946
    134  CD2      -16.0140   -8.1860   -3.4560 C.ar  774  TRP774      0.0152
    135  NE1      -14.3480   -6.8070   -4.1210 N.ar  774  TRP774     -0.2442
    136  CE2      -15.1920   -7.8070   -4.5690 C.ar  774  TRP774      0.0810
    137  CE3      -17.0120   -9.2150   -3.6370 C.ar  774  TRP774      0.0012
    138  CZ2      -15.3050   -8.4210   -5.8510 C.ar  774  TRP774      0.0191
    139  CZ3      -17.1280   -9.8490   -4.9450 C.ar  774  TRP774      0.0001
    140  CH2      -16.2750   -9.4340   -6.0190 C.ar  774  TRP774      0.0015
@<TRIPOS>BOND
     1    83    84    1
     2    86    85    2
     3    85    84    1
     4    84    87    1
     5    60    61    1
     6    62    61    1
     7    62    63    2
     8    61    64    1
     9    87    88    1
    10    88    89    1
    11    52    53    1
    12    52    51    1
    13    52    55    1
    14    53    54    2
    15    59    57   ar
    16    51    45   am
    17    56    57    1
    18    56    55    1
    19    66    68   ar
    20    66    65   ar
    21    64    65    1
    22    57    58   ar
    23   103   104    1
    24    68    70   ar
    25    65    67   ar
    26    89    91   ar
    27    89    90   ar
    28    45    44    1
    29    45    46    2
    30    70    71    1
    31    70    69   ar
    32    67    69   ar
    33   140   138   ar
    34   140   139   ar
    35    44    43    1
    36    44    47    1
    37   107   104    1
    38   107   108    1
    39   138   136   ar
    40   104   105    1
    41    49    48    2
    42   106   105    2
    43   139   137   ar
    44    48    47    1
    45    48    50   am
    46   136   135   ar
    47   136   134   ar
    48   108   110   ar
    49   108   109   ar
    50   110   112   ar
    51   135   133   ar
    52    12    11    1
    53    82    80   ar
    54    82    81   ar
    55   137   134   ar
    56   109   111   ar
    57     9    11   ar
    58     9     7   ar
    59   134   132   ar
    60    80    78   ar
    61    11    10   ar
    62   112   113   ar
    63    81    79   ar
    64   130   129    2
    65   133   132   ar
    66     7     6   ar
    67    72    73    1
    68    78    77   ar
    69   132   131    1
    70   126   125    1
    71   111   113   ar
    72     1     2    1
    73   124   125   ar
    74   124   122   ar
    75    79    77   ar
    76   113   114    1
    77    10     8   ar
    78    77    76    1
    79   129   128    1
    80     6     8   ar
    81     6     5    1
    82     2     5    1
    83     2     3    1
    84   125   123   ar
    85    16    15    2
    86   122   120   ar
    87    73    76    1
    88    73    74    1
    89   131   128    1
    90    14    15    1
    91    14    13    1
    92    14    17    1
    93   128   127    1
    94    19    17    1
    95    15    21   am
    96    25    26    1
    97    25    22    1
    98     3     4    2
    99    28    26   am
   100    17    18    1
   101    26    27    2
   102   123   121   ar
   103   118   117    2
   104    74    75    2
   105   120   121   ar
   106   120   119    1
   107   101    99   ar
   108   101   102   ar
   109    21    22    1
   110    29    30    1
   111    29    23   am
   112    22    23    1
   113    99    97   ar
   114   102   100   ar
   115   119   116    1
   116    92    93    1
   117   117   116    1
   118    42    40   ar
   119    30    33    1
   120    30    31    1
   121    41    40   ar
   122    18    20    1
   123    23    24    2
   124    40    39    1
   125   116   115    1
   126    97    96    1
   127    97    98   ar
   128   100    98   ar
   129    31    34   am
   130    31    32    2
   131    93    96    1
   132    93    94    1
   133    95    94    2
   134    34    35    1
   135    39    38    1
   136    38    35    1
   137    35    36    1
   138    36    37    2
