@<TRIPOS>MOLECULE
tmp/3ogsA01.pdb
 224 214 0 0 0
SMALL
GASTEIGER

@<TRIPOS>ATOM
      1  N          6.9700  -11.2750    4.7660 N.3   276  GLU276     -0.1245
      2  CA         8.2460  -11.7650    4.1200 C.3   276  GLU276      0.1567
      3  C          7.9160  -12.8900    3.1850 C.2   276  GLU276      0.2260
      4  O          8.4000  -12.8850    2.0150 O.2   276  GLU276     -0.2867
      5  CB         9.2940  -12.2160    5.1470 C.3   276  GLU276      0.0388
      6  CG        10.0700  -11.0700    5.7120 C.3   276  GLU276      0.1160
      7  CD        10.8010  -10.2230    4.6140 C.2   276  GLU276      0.3649
      8  OE1       10.5590   -9.0060    4.5850 O.co2 276  GLU276     -0.2457
      9  OE2       11.5820  -10.7830    3.7800 O.co2 276  GLU276     -0.2457
     10  N          6.1110  -11.4840    0.1160 N.3   279  SER279     -0.1202
     11  CA         7.1090  -10.8910   -0.8330 C.3   279  SER279      0.2020
     12  C          7.8990  -11.9510   -1.6630 C.2   279  SER279      0.2618
     13  O          8.3750  -11.6200   -2.7730 O.2   279  SER279     -0.2717
     14  CB         8.1030   -9.8970   -0.1980 C.3   279  SER279      0.2103
     15  OG         9.1600  -10.5810    0.5000 O.3   279  SER279     -0.2182
     16  N          8.0150  -13.1860   -1.1420 N.am  280  ALA280     -0.1979
     17  CA         8.7040  -14.3030   -1.8400 C.3   280  ALA280      0.1597
     18  C          7.7800  -14.9280   -2.9110 C.2   280  ALA280      0.2287
     19  O          8.2650  -15.4260   -3.9360 O.2   280  ALA280     -0.2864
     20  CB         9.2130  -15.3880   -0.8530 C.3   280  ALA280      0.0319
     21  N          7.3800  -11.9590   -6.1740 N.3   283  ASN283     -0.1225
     22  CA         8.8520  -11.5180   -6.2380 C.3   283  ASN283      0.1785
     23  C          9.2740  -10.9760   -7.5830 C.2   283  ASN283      0.2597
     24  O          8.4240  -10.6490   -8.4590 O.2   283  ASN283     -0.2718
     25  CB         9.7850  -12.6980   -5.7450 C.3   283  ASN283      0.1169
     26  CG         9.8310  -13.8420   -6.7750 C.2   283  ASN283      0.2627
     27  OD1        9.0420  -13.8330   -7.7440 O.2   283  ASN283     -0.2716
     28  ND2       10.6990  -14.7920   -6.5790 N.am  283  ASN283     -0.0877
     29  N         10.5840  -10.8080   -7.7780 N.am  284  HIS284     -0.1961
     30  CA        11.0930  -10.2220   -9.0340 C.3   284  HIS284      0.1787
     31  C         10.7710  -11.1220  -10.2230 C.2   284  HIS284      0.2620
     32  O         10.5870  -10.6070  -11.3310 O.2   284  HIS284     -0.2715
     33  CB        12.6740   -9.9270   -8.9600 C.3   284  HIS284      0.0785
     34  CG        13.5440  -11.1410   -8.7650 C.ar  284  HIS284      0.0821
     35  ND1       14.2230  -11.7540   -9.8170 N.ar  284  HIS284     -0.2267
     36  CD2       13.7850  -11.9130   -7.6580 C.ar  284  HIS284      0.1154
     37  CE1       14.8650  -12.8230   -9.3640 C.ar  284  HIS284      0.1986
     38  NE2       14.6370  -12.9260   -8.0640 N.ar  284  HIS284     -0.2212
     39  N         10.7630  -12.4410  -10.0270 N.am  285  GLU285     -0.1977
     40  CA        10.3410  -13.4160  -11.1010 C.3   285  GLU285      0.1602
     41  C          8.8500  -13.3380  -11.4740 C.2   285  GLU285      0.2287
     42  O          8.5130  -13.3330  -12.7100 O.2   285  GLU285     -0.2864
     43  CB        10.6930  -14.8790  -10.7140 C.3   285  GLU285      0.0415
     44  CG        12.2160  -15.1100  -10.4560 C.3   285  GLU285      0.1163
     45  CD        12.5620  -16.5010   -9.8270 C.2   285  GLU285      0.3649
     46  OE1       11.7240  -17.0850   -9.0730 O.co2 285  GLU285     -0.2457
     47  OE2       13.6960  -16.9970  -10.1020 O.co2 285  GLU285     -0.2457
     48  N          8.6380  -10.0910  -13.6710 N.3   288  ARG288     -0.1245
     49  CA         9.1040  -10.1220  -15.0820 C.3   288  ARG288      0.1563
     50  C          8.1900  -11.0220  -15.9600 C.2   288  ARG288      0.2260
     51  O          7.9350  -10.6140  -17.1120 O.2   288  ARG288     -0.2867
     52  CB        10.6050  -10.4070  -15.1900 C.3   288  ARG288      0.0307
     53  CG        10.9980  -11.7020  -14.6790 C.3   288  ARG288      0.0489
     54  CD        12.5690  -11.7200  -14.4190 C.3   288  ARG288      0.2205
     55  NE        12.9700  -13.0970  -14.0830 N.pl3 288  ARG288     -0.0865
     56  CZ        14.1740  -13.5180  -13.6700 C.cat 288  ARG288      0.5346
     57  NH1       15.1850  -12.6470  -13.4360 N.pl3 288  ARG288      0.1354
     58  NH2       14.3540  -14.8550  -13.5060 N.pl3 288  ARG288      0.1354
     59  N         12.1910    1.4070    3.0640 N.3   336  ARG336     -0.1231
     60  CA        13.4910    0.9160    2.4510 C.3   336  ARG336      0.1694
     61  C         13.1490    0.2790    1.0450 C.2   336  ARG336      0.2592
     62  O         12.0400   -0.3290    0.8170 O.2   336  ARG336     -0.2718
     63  CB        14.2220   -0.1270    3.3340 C.3   336  ARG336      0.0321
     64  CG        14.9260    0.4430    4.5920 C.3   336  ARG336      0.0489
     65  CD        15.6200   -0.7730    5.4170 C.3   336  ARG336      0.2205
     66  NE        14.6410   -1.7030    5.9770 N.pl3 336  ARG336     -0.0865
     67  CZ        14.7330   -3.0560    6.0300 C.cat 336  ARG336      0.5346
     68  NH1       15.7600   -3.7490    5.5140 N.pl3 336  ARG336      0.1354
     69  NH2       13.7700   -3.7240    6.6570 N.pl3 336  ARG336      0.1354
     70  N         14.1380    0.4090    0.1490 N.am  337  ILE337     -0.1966
     71  CA        13.9860    0.0120   -1.2350 C.3   337  ILE337      0.1727
     72  C         15.1380   -0.9990   -1.5510 C.2   337  ILE337      0.2616
     73  O         15.8160   -0.9350   -2.6070 O.2   337  ILE337     -0.2715
     74  CB        13.9390    1.2810   -2.1930 C.3   337  ILE337      0.0290
     75  CG1       15.1670    2.2410   -2.0040 C.3   337  ILE337      0.0022
     76  CG2       12.5670    2.0160   -2.0840 C.3   337  ILE337      0.0023
     77  CD1       15.3990    3.2740   -3.2490 C.3   337  ILE337      0.0001
     78  N         15.4060   -1.9190   -0.6200 N.am  338  ASP338     -0.1957
     79  CA        16.4500   -2.9230   -0.8750 C.3   338  ASP338      0.1840
     80  C         15.9030   -4.1960   -1.5450 C.2   338  ASP338      0.2622
     81  O         16.7250   -5.0160   -2.0480 O.2   338  ASP338     -0.2715
     82  CB        17.0450   -3.3550    0.5330 C.3   338  ASP338      0.1450
     83  CG        15.9610   -3.9810    1.4430 C.2   338  ASP338      0.3671
     84  OD1       14.9480   -3.3000    1.7740 O.co2 338  ASP338     -0.2456
     85  OD2       16.0560   -5.2390    1.7420 O.co2 338  ASP338     -0.2456
     86  N         14.5820   -4.4320   -1.5610 N.am  339  ARG339     -0.1963
     87  CA        14.1140   -5.7840   -2.1460 C.3   339  ARG339      0.1729
     88  C         14.4230   -5.8780   -3.6070 C.2   339  ARG339      0.2616
     89  O         14.3200   -4.8780   -4.3100 O.2   339  ARG339     -0.2715
     90  CB        12.5340   -6.0130   -1.9560 C.3   339  ARG339      0.0348
     91  CG        12.0690   -6.1730   -0.4120 C.3   339  ARG339      0.0492
     92  CD        10.5270   -6.2310   -0.3510 C.3   339  ARG339      0.2205
     93  NE        10.1370   -6.8730    0.8850 N.pl3 339  ARG339     -0.0865
     94  CZ         8.9910   -6.6790    1.5850 C.cat 339  ARG339      0.5346
     95  NH1        8.0660   -5.7880    1.2110 N.pl3 339  ARG339      0.1354
     96  NH2        8.7640   -7.4260    2.6740 N.pl3 339  ARG339      0.1354
     97  N         14.7350   -7.0680   -4.1430 N.am  340  GLU340     -0.1977
     98  CA        15.1380   -7.1910   -5.5590 C.3   340  GLU340      0.1602
     99  C         13.9960   -6.7980   -6.4790 C.2   340  GLU340      0.2287
    100  O         14.2300   -6.2790   -7.5820 O.2   340  GLU340     -0.2864
    101  CB        15.5940   -8.6850   -5.8720 C.3   340  GLU340      0.0415
    102  CG        16.3820   -8.7390   -7.3250 C.3   340  GLU340      0.1163
    103  CD        17.2240  -10.0200   -7.5520 C.2   340  GLU340      0.3649
    104  OE1       17.7410  -10.5950   -6.5480 O.co2 340  GLU340     -0.2457
    105  OE2       17.4490  -10.3820   -8.7130 O.co2 340  GLU340     -0.2457
    106  N         14.2320   -3.1060   -7.7360 N.3   343  SER343     -0.1217
    107  CA        15.2570   -2.8990   -8.8210 C.3   343  SER343      0.1889
    108  C         14.7580   -3.4470  -10.1700 C.2   343  SER343      0.2288
    109  O         14.8840   -2.7830  -11.1890 O.2   343  SER343     -0.2866
    110  CB        16.6640   -3.4520   -8.3990 C.3   343  SER343      0.2089
    111  OG        17.1770   -2.6990   -7.2900 O.3   343  SER343     -0.2183
    112  N         15.8700  -24.1980  -18.2230 N.3   403  THR403     -0.1218
    113  CA        16.5810  -23.3000  -19.1720 C.3   403  THR403      0.1862
    114  C         16.3270  -23.8050  -20.6130 C.2   403  THR403      0.2287
    115  O         16.4290  -25.0270  -20.8960 O.2   403  THR403     -0.2866
    116  CB        18.0840  -23.2920  -18.8390 C.3   403  THR403      0.1770
    117  OG1       18.2540  -22.7180  -17.5210 O.3   403  THR403     -0.2211
    118  CG2       18.8490  -22.4830  -19.8270 C.3   403  THR403      0.0375
    119  N         16.3250  -18.5130  -19.2180 N.3   429  THR429     -0.1203
    120  CA        16.5340  -19.2530  -17.9910 C.3   429  THR429      0.1994
    121  C         15.1640  -19.3730  -17.2230 C.2   429  THR429      0.2618
    122  O         14.1040  -18.9190  -17.6770 O.2   429  THR429     -0.2717
    123  CB        17.7060  -18.6430  -17.1120 C.3   429  THR429      0.1784
    124  OG1       17.2990  -17.3770  -16.5510 O.3   429  THR429     -0.2211
    125  CG2       19.0410  -18.4060  -17.9580 C.3   429  THR429      0.0376
    126  N         15.1740  -20.0000  -16.0710 N.am  430  GLY430     -0.1956
    127  CA        13.8590  -20.3500  -15.4140 C.3   430  GLY430      0.1869
    128  C         13.0700  -19.1150  -14.9180 C.2   430  GLY430      0.2309
    129  O         13.6790  -18.1180  -14.4800 O.2   430  GLY430     -0.2863
    130  N         23.3820  -12.7450  -16.7230 N.3   472  ALA472     -0.1245
    131  CA        24.7750  -13.2340  -16.7990 C.3   472  ALA472      0.1562
    132  C         24.8720  -14.5490  -17.5810 C.2   472  ALA472      0.2260
    133  O         23.9530  -15.3990  -17.5190 O.2   472  ALA472     -0.2867
    134  CB        25.3580  -13.4460  -15.4150 C.3   472  ALA472      0.0290
    135  N         22.3390   -7.8110  -16.0070 N.3   535  ARG535     -0.1231
    136  CA        21.1100   -7.3530  -15.2550 C.3   535  ARG535      0.1694
    137  C         21.4620   -6.7640  -13.8640 C.2   535  ARG535      0.2592
    138  O         20.9540   -5.6540  -13.4460 O.2   535  ARG535     -0.2718
    139  CB        20.1030   -8.4890  -15.1180 C.3   535  ARG535      0.0321
    140  CG        18.7400   -8.1690  -14.3110 C.3   535  ARG535      0.0489
    141  CD        17.9470   -9.5220  -13.9550 C.3   535  ARG535      0.2205
    142  NE        17.4020  -10.2240  -15.1390 N.pl3 535  ARG535     -0.0865
    143  CZ        17.6390  -11.4690  -15.5580 C.cat 535  ARG535      0.5346
    144  NH1       18.4620  -12.3420  -14.9120 N.pl3 535  ARG535      0.1354
    145  NH2       16.9840  -11.8820  -16.6330 N.pl3 535  ARG535      0.1354
    146  N         22.3060   -7.4810  -13.1320 N.am  536  ASN536     -0.1974
    147  CA        22.6930   -7.0400  -11.7890 C.3   536  ASN536      0.1688
    148  C         23.4230   -5.6910  -11.7400 C.2   536  ASN536      0.2292
    149  O         23.2050   -4.9010  -10.7900 O.2   536  ASN536     -0.2864
    150  CB        23.4240   -8.1580  -11.0310 C.3   536  ASN536      0.1181
    151  CG        22.4920   -9.3520  -10.7180 C.2   536  ASN536      0.2629
    152  OD1       22.1620  -10.1670  -11.6050 O.2   536  ASN536     -0.2716
    153  ND2       22.0760   -9.4610   -9.4770 N.am  536  ASN536     -0.0877
    154  N         20.7000   -2.9060  -12.3390 N.3   539  TYR539     -0.1227
    155  CA        19.9210   -2.5930  -11.0940 C.3   539  TYR539      0.1736
    156  C         20.4110   -1.2780  -10.3760 C.2   539  TYR539      0.2592
    157  O         19.6150   -0.6700   -9.6390 O.2   539  TYR539     -0.2718
    158  CB        20.0410   -3.7230  -10.0810 C.3   539  TYR539      0.0548
    159  CG        19.2380   -5.0390  -10.3230 C.ar  539  TYR539     -0.0200
    160  CD1       18.0840   -5.1100  -11.1840 C.ar  539  TYR539     -0.0009
    161  CD2       19.5480   -6.1940   -9.5370 C.ar  539  TYR539     -0.0009
    162  CE1       17.3110   -6.3520  -11.3230 C.ar  539  TYR539      0.0417
    163  CE2       18.7930   -7.4250   -9.6670 C.ar  539  TYR539      0.0417
    164  CZ        17.6610   -7.4810  -10.5100 C.ar  539  TYR539      0.1957
    165  OH        16.8970   -8.6980  -10.5910 O.3   539  TYR539     -0.2866
    166  N         21.6940   -0.9270  -10.5300 N.am  540  ASN540     -0.2028
    167  CA        22.3140    0.3170   -9.8800 C.3   540  ASN540      0.1374
    168  C         22.4400    1.5780  -10.7680 C.3   540  ASN540      0.2041
    169  O         23.0750    2.6170  -10.3460 O.3   540  ASN540     -0.2185
    170  CB        23.7310    0.0180   -9.2940 C.3   540  ASN540      0.1128
    171  CG        23.7530   -1.2210   -8.3310 C.2   540  ASN540      0.2626
    172  OD1       22.9330   -1.3520   -7.4370 O.2   540  ASN540     -0.2716
    173  ND2       24.5970   -2.1850   -8.6480 N.am  540  ASN540     -0.0877
    174  N         20.3930    4.8960  -12.7060 N.3   542  TRP542     -0.1241
    175  CA        19.3020    5.8270  -12.3530 C.3   542  TRP542      0.1605
    176  C         19.1920    6.8850  -13.4690 C.2   542  TRP542      0.2264
    177  O         20.2030    7.1760  -14.1490 O.2   542  TRP542     -0.2867
    178  CB        19.6210    6.5990  -11.0960 C.3   542  TRP542      0.0550
    179  CG        19.8780    5.6380   -9.9450 C.ar  542  TRP542      0.0003
    180  CD1       21.1490    5.1750   -9.5090 C.ar  542  TRP542      0.0946
    181  CD2       18.9010    5.0570   -9.0550 C.ar  542  TRP542      0.0152
    182  NE1       20.9820    4.3060   -8.4390 N.ar  542  TRP542     -0.2442
    183  CE2       19.6470    4.2370   -8.0970 C.ar  542  TRP542      0.0810
    184  CE3       17.4780    5.1710   -8.9420 C.ar  542  TRP542      0.0012
    185  CZ2       19.0180    3.4320   -7.1120 C.ar  542  TRP542      0.0191
    186  CZ3       16.8030    4.3970   -7.9210 C.ar  542  TRP542      0.0001
    187  CH2       17.5820    3.5280   -7.0010 C.ar  542  TRP542      0.0015
    188  N         24.8800    4.0450   -6.4730 N.3   570  GLY570     -0.1210
    189  CA        24.0370    4.7200   -5.4250 C.3   570  GLY570      0.1956
    190  C         22.7950    3.8400   -5.0760 C.2   570  GLY570      0.2611
    191  O         22.2780    3.0610   -5.9280 O.2   570  GLY570     -0.2717
    192  N         22.3960    3.8860   -3.7960 N.am  571  TYR571     -0.1976
    193  CA        21.1530    3.2270   -3.3030 C.3   571  TYR571      0.1639
    194  C         19.8650    3.9150   -3.7740 C.2   571  TYR571      0.2290
    195  O         18.8020    3.2600   -3.9680 O.2   571  TYR571     -0.2864
    196  CB        21.2570    3.2180   -1.7660 C.3   571  TYR571      0.0560
    197  CG        19.9850    2.8570   -1.0090 C.ar  571  TYR571     -0.0198
    198  CD1       19.6050    1.5180   -0.8730 C.ar  571  TYR571     -0.0009
    199  CD2       19.2610    3.8340   -0.3250 C.ar  571  TYR571     -0.0009
    200  CE1       18.4360    1.1400   -0.1150 C.ar  571  TYR571      0.0417
    201  CE2       18.0720    3.4960    0.4630 C.ar  571  TYR571      0.0417
    202  CZ        17.7080    2.1170    0.5630 C.ar  571  TYR571      0.1957
    203  OH        16.5770    1.8170    1.3250 O.3   571  TYR571     -0.2866
    204  N         23.4800    3.3930    1.0360 N.3   590  ASN590     -0.1225
    205  CA        23.4070    2.3990    2.1130 C.3   590  ASN590      0.1785
    206  C         24.7380    1.5990    2.2360 C.2   590  ASN590      0.2597
    207  O         24.9530    0.8620    3.2300 O.2   590  ASN590     -0.2718
    208  CB        22.0930    1.4910    1.9940 C.3   590  ASN590      0.1169
    209  CG        22.2690    0.4480    0.9120 C.2   590  ASN590      0.2627
    210  OD1       23.0060    0.7270   -0.0950 O.2   590  ASN590     -0.2716
    211  ND2       21.6310   -0.6960    1.0740 N.am  590  ASN590     -0.0877
    212  N         25.6170    1.7260    1.2220 N.am  591  VAL591     -0.1980
    213  CA        26.9770    1.1050    1.1800 C.3   591  VAL591      0.1595
    214  C         27.9610    2.0440    0.4600 C.2   591  VAL591      0.2287
    215  O         27.5290    2.9560   -0.3280 O.2   591  VAL591     -0.2864
    216  CB        27.0000   -0.2430    0.3860 C.3   591  VAL591      0.0276
    217  CG1       26.0420   -1.3100    0.9460 C.3   591  VAL591      0.0022
    218  CG2       26.5400    0.0490   -1.1070 C.3   591  VAL591      0.0022
    219  N         20.3210   -1.0000    9.2950 N.3   962  SER962     -0.1217
    220  CA        21.6020   -0.3520    8.8580 C.3   962  SER962      0.1889
    221  C         21.3810    1.1300    8.3970 C.2   962  SER962      0.2288
    222  O         20.4910    1.3850    7.5580 O.2   962  SER962     -0.2866
    223  CB        22.2320   -1.1990    7.7160 C.3   962  SER962      0.2089
    224  OG        23.5400   -0.6110    7.3890 O.3   962  SER962     -0.2183
@<TRIPOS>BOND
     1   115   114    2
     2   114   113    1
     3   118   116    1
     4   119   120    1
     5   113   116    1
     6   113   112    1
     7   116   117    1
     8   120   121    1
     9   120   123    1
    10   125   123    1
    11   122   121    2
    12   132   133    2
    13   132   131    1
    14   121   126   am
    15   123   124    1
    16    51    50    2
    17   131   130    1
    18   131   134    1
    19   145   143    1
    20   126   127    1
    21   135   136    1
    22    50    49    1
    23   143   142    2
    24   143   144    1
    25   127   128    1
    26   136   139    1
    27   136   137    1
    28    52    49    1
    29    52    53    1
    30   142   141    1
    31   139   140    1
    32    49    48    1
    33   128   129    2
    34    53    54    1
    35    54    55    1
    36   140   141    1
    37   177   176    2
    38    55    56    2
    39   137   138    2
    40   137   146   am
    41    56    58    1
    42    56    57    1
    43   176   175    1
    44   146   147    1
    45    42    41    2
    46   174   175    1
    47   175   178    1
    48   154   155    1
    49   147   148    1
    50   147   150    1
    51   148   149    2
    52   152   151    2
    53    41    40    1
    54    32    31    2
    55   162   160   ar
    56   162   164   ar
    57   109   108    2
    58   160   159   ar
    59    40    43    1
    60    40    39    1
    61   178   179    1
    62   155   156    1
    63   155   158    1
    64   150   151    1
    65   168   169    1
    66   168   167    1
    67   151   153   am
    68    43    44    1
    69   165   164    1
    70   166   156   am
    71   166   167    1
    72   164   163   ar
    73    44    45    1
    74   156   157    2
    75   159   158    1
    76   159   161   ar
    77    31    39   am
    78    31    30    1
    79   108   107    1
    80    47    45   ar
    81   179   180   ar
    82   179   181   ar
    83   167   170    1
    84    45    46   ar
    85    35    37   ar
    86    35    34   ar
    87   163   161   ar
    88   180   182   ar
    89    37    38   ar
    90   170   171    1
    91   181   184   ar
    92   181   183   ar
    93    30    33    1
    94    30    29    1
    95    33    34    1
    96   184   186   ar
    97   107   110    1
    98   107   106    1
    99    34    36   ar
   100   105   103   ar
   101   173   171   am
   102    24    23    2
   103   182   183   ar
   104   110   111    1
   105   171   172    2
   106   183   185   ar
   107    38    36   ar
   108   186   187   ar
   109    29    23   am
   110    27    26    2
   111    23    22    1
   112   100    99    2
   113   103   102    1
   114   103   104   ar
   115   102   101    1
   116   185   187   ar
   117    26    28   am
   118    26    25    1
   119    99    98    1
   120   188   189    1
   121    22    21    1
   122    22    25    1
   123   191   190    2
   124   101    98    1
   125    98    97    1
   126   189   190    1
   127   190   192   am
   128    89    88    2
   129    97    88   am
   130   195   194    2
   131    19    18    2
   132   192   193    1
   133   194   193    1
   134    88    87    1
   135   193   196    1
   136    77    75    1
   137    18    17    1
   138    13    12    2
   139    73    72    2
   140    74    76    1
   141    74    75    1
   142    74    71    1
   143    87    90    1
   144    87    86    1
   145    81    80    2
   146    90    91    1
   147    17    16    1
   148    17    20    1
   149   196   197    1
   150    12    16   am
   151    12    11    1
   152    86    80   am
   153    72    71    1
   154    72    78   am
   155    80    79    1
   156    71    70    1
   157   218   216    1
   158   197   198   ar
   159   197   199   ar
   160    79    78    1
   161    79    82    1
   162   198   200   ar
   163    11    14    1
   164    11    10    1
   165    91    92    1
   166    92    93    1
   167   215   214    2
   168   199   201   ar
   169    14    15    1
   170   200   202   ar
   171   210   209    2
   172    70    61   am
   173   216   217    1
   174   216   213    1
   175   214   213    1
   176   201   202   ar
   177    82    83    1
   178   202   203    1
   179    62    61    2
   180    93    94    2
   181   209   211   am
   182   209   208    1
   183   204   205    1
   184    61    60    1
   185   213   212    1
   186    95    94    1
   187   212   206   am
   188    83    85   ar
   189    83    84   ar
   190    94    96    1
   191   208   205    1
   192     4     3    2
   193   205   206    1
   194   206   207    2
   195    60    59    1
   196    60    63    1
   197     3     2    1
   198    63    64    1
   199     9     7   ar
   200     2     1    1
   201     2     5    1
   202     8     7   ar
   203    64    65    1
   204     7     6    1
   205     5     6    1
   206    65    66    1
   207    68    67    1
   208    66    67    2
   209    67    69    1
   210   224   223    1
   211   222   221    2
   212   223   220    1
   213   221   220    1
   214   220   219    1
