@<TRIPOS>MOLECULE
tmp/3ogsA04.pdb
 79 76 0 0 0
SMALL
GASTEIGER

@<TRIPOS>ATOM
      1  N          6.7000  -20.8490   -3.8020 N.3   233  SER233     -0.1202
      2  CA         7.2590  -21.2800   -5.0990 C.3   233  SER233      0.2020
      3  C          6.2530  -21.9360   -6.0910 C.2   233  SER233      0.2619
      4  O          6.6340  -22.2170   -7.2460 O.2   233  SER233     -0.2717
      5  CB         8.4900  -22.1660   -4.8500 C.3   233  SER233      0.2103
      6  OG         8.0520  -23.4190   -4.3390 O.3   233  SER233     -0.2182
      7  N          5.0000  -22.1680   -5.6680 N.am  234  ALA234     -0.1965
      8  CA         3.9500  -22.8170   -6.5270 C.3   234  ALA234      0.1728
      9  C          3.1390  -21.8410   -7.3420 C.2   234  ALA234      0.2616
     10  O          2.4760  -20.9310   -6.7660 O.2   234  ALA234     -0.2715
     11  CB         2.9680  -23.7260   -5.6860 C.3   234  ALA234      0.0334
     12  N          3.1990  -21.9730   -8.6590 N.am  235  TRP235     -0.1974
     13  CA         2.3350  -21.1920   -9.5460 C.3   235  TRP235      0.1640
     14  C          1.2640  -22.1310  -10.1520 C.2   235  TRP235      0.2290
     15  O          1.6160  -23.0820  -10.8350 O.2   235  TRP235     -0.2864
     16  CB         3.1760  -20.4900  -10.6360 C.3   235  TRP235      0.0576
     17  CG         4.1570  -19.3600  -10.1610 C.ar  235  TRP235      0.0006
     18  CD1        4.4350  -18.9590   -8.8570 C.ar  235  TRP235      0.0946
     19  CD2        4.9670  -18.5170  -11.0260 C.ar  235  TRP235      0.0152
     20  NE1        5.3720  -17.9050   -8.8870 N.ar  235  TRP235     -0.2442
     21  CE2        5.6800  -17.6080  -10.1960 C.ar  235  TRP235      0.0810
     22  CE3        5.1140  -18.4200  -12.4480 C.ar  235  TRP235      0.0012
     23  CZ2        6.6160  -16.6670  -10.7270 C.ar  235  TRP235      0.0191
     24  CZ3        6.0280  -17.5000  -12.9770 C.ar  235  TRP235      0.0001
     25  CH2        6.7500  -16.6030  -12.1070 C.ar  235  TRP235      0.0015
     26  N         -1.4130  -24.3870  -12.4270 N.3   237  ASP237     -0.1239
     27  CA        -1.7280  -24.6260  -13.8630 C.3   237  ASP237      0.1674
     28  C         -2.8200  -23.7070  -14.3650 C.2   237  ASP237      0.2266
     29  O         -3.7660  -23.4440  -13.6380 O.2   237  ASP237     -0.2867
     30  CB        -2.2360  -26.0710  -14.1000 C.3   237  ASP237      0.1410
     31  CG        -1.1400  -27.0140  -14.4030 C.2   237  ASP237      0.3668
     32  OD1        0.0420  -26.6030  -14.2620 O.co2 237  ASP237     -0.2456
     33  OD2       -1.4620  -28.1910  -14.7790 O.co2 237  ASP237     -0.2456
     34  N          5.1380  -23.7000  -20.9690 N.3   397  ASN397     -0.1240
     35  CA         4.5190  -23.8710  -19.6420 C.3   397  ASN397      0.1653
     36  C          4.9920  -22.6770  -18.8430 C.2   397  ASN397      0.2266
     37  O          6.2000  -22.6380  -18.5100 O.2   397  ASN397     -0.2867
     38  CB         5.0440  -25.1490  -19.0250 C.3   397  ASN397      0.1155
     39  CG         4.7070  -25.2760  -17.5420 C.2   397  ASN397      0.2627
     40  OD1        3.9760  -24.4490  -16.9590 O.2   397  ASN397     -0.2716
     41  ND2        5.2490  -26.3250  -16.9200 N.am  397  ASN397     -0.0877
     42  N          5.0110  -21.5010  -15.9400 N.3   399  SER399     -0.1202
     43  CA         5.5200  -21.8260  -14.5870 C.3   399  SER399      0.2020
     44  C          6.9320  -22.4450  -14.6340 C.2   399  SER399      0.2619
     45  O          7.5740  -22.5970  -13.6140 O.2   399  SER399     -0.2717
     46  CB         4.5100  -22.8310  -13.9190 C.3   399  SER399      0.2103
     47  OG         5.0330  -23.4370  -12.7370 O.3   399  SER399     -0.2182
     48  N          7.4270  -22.8220  -15.8290 N.am  400  SER400     -0.1937
     49  CA         8.6900  -23.6240  -15.9420 C.3   400  SER400      0.2055
     50  C          9.9410  -22.9930  -15.2950 C.2   400  SER400      0.2644
     51  O         10.2370  -21.7780  -15.5470 O.2   400  SER400     -0.2714
     52  CB         9.0420  -23.8910  -17.4170 C.3   400  SER400      0.2130
     53  OG        10.2370  -24.7300  -17.4770 O.3   400  SER400     -0.2179
     54  N         10.6750  -23.8010  -14.4860 N.am  401  THR401     -0.1936
     55  CA        11.9880  -23.3640  -13.9510 C.3   401  THR401      0.2028
     56  C         13.1670  -23.9150  -14.7900 C.2   401  THR401      0.2642
     57  O         14.3400  -23.7270  -14.3920 O.2   401  THR401     -0.2714
     58  CB        12.1690  -23.7940  -12.4670 C.3   401  THR401      0.1808
     59  OG1       11.9670  -25.2180  -12.3840 O.3   401  THR401     -0.2208
     60  CG2       11.1010  -23.0550  -11.5410 C.3   401  THR401      0.0379
     61  N         12.8700  -24.5520  -15.9310 N.am  402  ASP402     -0.1971
     62  CA        13.9720  -25.0480  -16.8210 C.3   402  ASP402      0.1709
     63  C         14.6890  -23.9150  -17.6420 C.2   402  ASP402      0.2293
     64  O         14.1750  -22.8100  -17.7320 O.2   402  ASP402     -0.2864
     65  CB        13.4060  -26.0820  -17.7890 C.3   402  ASP402      0.1436
     66  CG        12.8440  -27.3090  -17.0810 C.2   402  ASP402      0.3671
     67  OD1       13.2580  -27.6120  -15.9200 O.co2 402  ASP402     -0.2456
     68  OD2       11.9780  -27.9900  -17.7100 O.co2 402  ASP402     -0.2456
     69  N         11.7430  -19.1630  -15.0440 N.3   431  ARG431     -0.1245
     70  CA        10.8190  -17.9810  -14.6920 C.3   431  ARG431      0.1563
     71  C         11.3120  -16.6370  -15.1500 C.2   431  ARG431      0.2260
     72  O         11.3110  -15.6380  -14.3550 O.2   431  ARG431     -0.2867
     73  CB        10.4870  -17.9900  -13.2110 C.3   431  ARG431      0.0307
     74  CG         9.5960  -19.2390  -13.0150 C.3   431  ARG431      0.0489
     75  CD         9.1570  -19.4720  -11.5590 C.3   431  ARG431      0.2205
     76  NE         8.2700  -20.6470  -11.4290 N.pl3 431  ARG431     -0.0865
     77  CZ         7.7340  -21.0860  -10.2820 C.cat 431  ARG431      0.5346
     78  NH1        7.9170  -20.4270   -9.0900 N.pl3 431  ARG431      0.1354
     79  NH2        6.9520  -22.1820  -10.3280 N.pl3 431  ARG431      0.1354
@<TRIPOS>BOND
     1    34    35    1
     2    35    38    1
     3    35    36    1
     4    38    39    1
     5    36    37    2
     6    65    66    1
     7    65    62    1
     8    64    63    2
     9    68    66   ar
    10    63    62    1
    11    39    40    2
    12    39    41   am
    13    53    52    1
    14    52    49    1
    15    66    67   ar
    16    62    61    1
    17    49    48    1
    18    49    50    1
    19    42    43    1
    20    61    56   am
    21    48    44   am
    22    51    50    2
    23    50    54   am
    24    71    70    1
    25    71    72    2
    26    69    70    1
    27    56    57    2
    28    56    55    1
    29    33    31   ar
    30    70    73    1
    31    44    43    1
    32    44    45    2
    33    43    46    1
    34    54    55    1
    35    31    32   ar
    36    31    30    1
    37    28    27    1
    38    28    29    2
    39    30    27    1
    40    55    58    1
    41    46    47    1
    42    27    26    1
    43    73    74    1
    44    74    75    1
    45    24    22   ar
    46    24    25   ar
    47    58    59    1
    48    58    60    1
    49    22    19   ar
    50    25    23   ar
    51    75    76    1
    52    76    77    2
    53    19    21   ar
    54    19    17   ar
    55    15    14    2
    56    23    21   ar
    57    16    17    1
    58    16    13    1
    59    79    77    1
    60    77    78    1
    61    21    20   ar
    62    17    18   ar
    63    14    13    1
    64    13    12    1
    65    20    18   ar
    66    12     9   am
    67     9    10    2
    68     9     8    1
    69     4     3    2
    70     8    11    1
    71     8     7    1
    72     3     7   am
    73     3     2    1
    74     2     5    1
    75     2     1    1
    76     5     6    1
