@<TRIPOS>MOLECULE
tmp/3ogsA00.pdb
 147 141 0 0 0
SMALL
GASTEIGER

@<TRIPOS>ATOM
      1  N         -6.7430    5.8800   -2.2410 N.3    59  TYR59      -0.1241
      2  CA        -8.0900    5.9050   -1.5720 C.3    59  TYR59       0.1605
      3  C         -8.2050    7.1010   -0.5720 C.2    59  TYR59       0.2264
      4  O         -7.1500    7.5570   -0.0210 O.2    59  TYR59      -0.2867
      5  CB        -8.4190    4.5730   -0.7890 C.3    59  TYR59       0.0534
      6  CG        -8.7880    3.3560   -1.6890 C.ar   59  TYR59      -0.0201
      7  CD1       -9.7750    3.4690   -2.7390 C.ar   59  TYR59      -0.0009
      8  CD2       -8.2290    2.1100   -1.4450 C.ar   59  TYR59      -0.0009
      9  CE1      -10.1560    2.2660   -3.5210 C.ar   59  TYR59       0.0417
     10  CE2       -8.5990    0.9350   -2.1780 C.ar   59  TYR59       0.0417
     11  CZ        -9.5500    1.0410   -3.2330 C.ar   59  TYR59       0.1957
     12  OH        -9.8720   -0.1320   -3.9440 O.3    59  TYR59      -0.2866
     13  N        -14.8070    1.7900   -0.3360 N.3   102  ILE102     -0.1231
     14  CA       -13.3940    1.5770   -0.8710 C.3   102  ILE102      0.1692
     15  C        -12.8620    0.0980   -0.7150 C.2   102  ILE102      0.2592
     16  O        -11.9510   -0.3070   -1.4340 O.2   102  ILE102     -0.2718
     17  CB       -12.3010    2.6050   -0.2970 C.3   102  ILE102      0.0266
     18  CG1      -12.1030    2.4850    1.2690 C.3   102  ILE102      0.0019
     19  CG2      -12.6390    4.0430   -0.8060 C.3   102  ILE102      0.0020
     20  CD1      -10.7970    3.2630    1.7450 C.3   102  ILE102      0.0001
     21  N        -13.5150   -0.7080    0.1340 N.am  103  ASN103     -0.1960
     22  CA       -13.0720   -2.1130    0.5310 C.3   103  ASN103      0.1819
     23  C        -11.6540   -1.9560    1.2300 C.2   103  ASN103      0.2621
     24  O        -11.6400   -1.5680    2.3850 O.2   103  ASN103     -0.2715
     25  CB       -13.1270   -3.1170   -0.7040 C.3   103  ASN103      0.1195
     26  CG       -13.2870   -4.5800   -0.2900 C.2   103  ASN103      0.2630
     27  OD1      -14.3270   -4.9170    0.3370 O.2   103  ASN103     -0.2716
     28  ND2      -12.3150   -5.4620   -0.6240 N.am  103  ASN103     -0.0877
     29  N        -10.5130   -2.1820    0.5330 N.am  104  ALA104     -0.1963
     30  CA        -9.1370   -1.7630    1.0010 C.3   104  ALA104      0.1728
     31  C         -8.5990   -2.4120    2.2710 C.2   104  ALA104      0.2616
     32  O         -7.5200   -1.9960    2.7740 O.2   104  ALA104     -0.2715
     33  CB        -9.0790   -0.1670    1.1680 C.3   104  ALA104      0.0334
     34  N         -9.2540   -3.5090    2.7080 N.am  105  GLU105     -0.1977
     35  CA        -8.9120   -4.1110    4.0060 C.3   105  GLU105      0.1602
     36  C         -8.9390   -3.1030    5.1730 C.2   105  GLU105      0.2287
     37  O         -8.1890   -3.2500    6.1480 O.2   105  GLU105     -0.2864
     38  CB        -7.5280   -4.8790    3.9280 C.3   105  GLU105      0.0415
     39  CG        -7.6020   -6.2570    3.0400 C.3   105  GLU105      0.1163
     40  CD        -7.6680   -5.9820    1.5050 C.2   105  GLU105      0.3649
     41  OE1       -6.6950   -5.3600    1.0200 O.co2 105  GLU105     -0.2457
     42  OE2       -8.6720   -6.3790    0.8120 O.co2 105  GLU105     -0.2457
     43  N        -16.4420    1.3060   -5.9920 N.3   162  ASN162     -0.1225
     44  CA       -15.2660    0.3730   -6.0280 C.3   162  ASN162      0.1785
     45  C        -15.7150   -1.0910   -6.3470 C.2   162  ASN162      0.2597
     46  O        -16.5110   -1.7160   -5.5890 O.2   162  ASN162     -0.2718
     47  CB       -14.4670    0.3920   -4.6540 C.3   162  ASN162      0.1169
     48  CG       -13.1440   -0.4050   -4.7410 C.2   162  ASN162      0.2627
     49  OD1      -12.1660    0.1010   -5.3090 O.2   162  ASN162     -0.2716
     50  ND2      -13.1220   -1.6890   -4.2060 N.am  162  ASN162     -0.0877
     51  N        -15.1770   -1.6520   -7.4200 N.am  163  GLU163     -0.1979
     52  CA       -15.3950   -3.0720   -7.7320 C.3   163  GLU163      0.1602
     53  C        -16.9150   -3.4680   -7.6650 C.2   163  GLU163      0.2287
     54  O        -17.3300   -4.4760   -7.0040 O.2   163  GLU163     -0.2864
     55  CB       -14.4550   -3.9280   -6.8150 C.3   163  GLU163      0.0415
     56  CG       -14.4310   -5.4540   -7.2140 C.3   163  GLU163      0.1163
     57  CD       -15.1500   -6.3020   -6.1910 C.2   163  GLU163      0.3649
     58  OE1      -15.2400   -5.8870   -4.9860 O.co2 163  GLU163     -0.2457
     59  OE2      -15.6300   -7.3910   -6.5960 O.co2 163  GLU163     -0.2457
     60  N        -13.3060   -0.1010  -11.9740 N.3   198  ASN198     -0.1240
     61  CA       -12.3600   -1.1680  -11.6180 C.3   198  ASN198      0.1653
     62  C        -13.1470   -2.4790  -11.3730 C.2   198  ASN198      0.2266
     63  O        -13.1780   -3.0130  -10.2860 O.2   198  ASN198     -0.2867
     64  CB       -11.4190   -0.8030  -10.4190 C.3   198  ASN198      0.1155
     65  CG       -12.1860   -0.6050   -9.0870 C.2   198  ASN198      0.2627
     66  OD1      -13.3410   -0.1620   -9.0870 O.2   198  ASN198     -0.2716
     67  ND2      -11.5580   -1.0070   -7.9500 N.am  198  ASN198     -0.0877
     68  N        -14.1030   -6.4190  -11.1320 N.3   200  ALA200     -0.1245
     69  CA       -13.3220   -7.5630  -10.5680 C.3   200  ALA200      0.1562
     70  C        -12.7490   -8.4840  -11.6440 C.2   200  ALA200      0.2260
     71  O        -11.6440   -9.0550  -11.4500 O.2   200  ALA200     -0.2867
     72  CB       -14.1710   -8.3900   -9.5700 C.3   200  ALA200      0.0290
     73  N         -9.5400   -5.5010  -13.0600 N.3   221  ASP221     -0.1295
     74  CA        -8.4850   -5.8320  -12.0370 C.3   221  ASP221      0.1359
     75  C         -7.8620   -7.1890  -12.3530 C.3   221  ASP221      0.2015
     76  O         -8.4010   -7.9670  -13.2460 O.3   221  ASP221     -0.2188
     77  CB        -9.0890   -5.8390  -10.5990 C.3   221  ASP221      0.1357
     78  CG        -9.9140   -4.6030  -10.2930 C.2   221  ASP221      0.3664
     79  OD1       -9.5360   -3.5100  -10.7900 O.co2 221  ASP221     -0.2456
     80  OD2      -10.9770   -4.7350   -9.5790 O.co2 221  ASP221     -0.2456
     81  N         -5.7400  -10.4680   -9.9640 N.3   223  TYR223     -0.1241
     82  CA        -4.8670  -11.0080   -8.8860 C.3   223  TYR223      0.1605
     83  C         -4.7200  -12.5020   -9.1320 C.2   223  TYR223      0.2264
     84  O         -5.2970  -13.3110   -8.4030 O.2   223  TYR223     -0.2867
     85  CB        -5.5050  -10.7480   -7.5000 C.3   223  TYR223      0.0534
     86  CG        -5.5550   -9.2320   -7.0960 C.ar  223  TYR223     -0.0201
     87  CD1       -6.5980   -8.3790   -7.5470 C.ar  223  TYR223     -0.0009
     88  CD2       -4.5630   -8.6690   -6.2760 C.ar  223  TYR223     -0.0009
     89  CE1       -6.6270   -6.9110   -7.1680 C.ar  223  TYR223      0.0417
     90  CE2       -4.6180   -7.2620   -5.8520 C.ar  223  TYR223      0.0417
     91  CZ        -5.6220   -6.4150   -6.3460 C.ar  223  TYR223      0.1957
     92  OH        -5.6350   -5.0920   -5.8940 O.3   223  TYR223     -0.2866
     93  N         -4.5560  -14.7940   -2.7650 N.3   227  PHE227     -0.1241
     94  CA        -4.0950  -14.1890   -1.5120 C.3   227  PHE227      0.1605
     95  C         -3.5170  -15.0460   -0.3800 C.2   227  PHE227      0.2264
     96  O         -3.1230  -14.4980    0.6910 O.2   227  PHE227     -0.2867
     97  CB        -5.2160  -13.2690   -0.9570 C.3   227  PHE227      0.0534
     98  CG        -5.6760  -12.2580   -1.9360 C.ar  227  PHE227     -0.0203
     99  CD1       -6.9120  -12.4170   -2.6350 C.ar  227  PHE227     -0.0042
    100  CD2       -4.8910  -11.1010   -2.1810 C.ar  227  PHE227     -0.0042
    101  CE1       -7.3500  -11.4420   -3.5680 C.ar  227  PHE227     -0.0003
    102  CE2       -5.3300  -10.1490   -3.1580 C.ar  227  PHE227     -0.0003
    103  CZ        -6.5430  -10.3260   -3.8110 C.ar  227  PHE227     -0.0000
    104  N         -6.2180   -2.0900  -11.0340 N.3   261  GLU261     -0.1245
    105  CA        -5.5300   -2.7210   -9.8410 C.3   261  GLU261      0.1567
    106  C         -4.9560   -4.0180  -10.3550 C.2   261  GLU261      0.2260
    107  O         -5.7230   -4.9290  -10.7770 O.2   261  GLU261     -0.2867
    108  CB        -6.4690   -3.1120   -8.7260 C.3   261  GLU261      0.0388
    109  CG        -7.0750   -1.9850   -7.9250 C.3   261  GLU261      0.1160
    110  CD        -8.0640   -2.4940   -6.8600 C.2   261  GLU261      0.3649
    111  OE1       -7.8760   -3.5810   -6.2750 O.co2 261  GLU261     -0.2457
    112  OE2       -9.0390   -1.7730   -6.5410 O.co2 261  GLU261     -0.2457
    113  N         -2.6110   -9.3550    0.8700 N.3   267  PHE267     -0.1298
    114  CA        -2.9730   -9.0320    2.2690 C.3   267  PHE267      0.1290
    115  C         -2.6670  -10.3320    3.0550 C.3   267  PHE267      0.2013
    116  O         -2.3530  -11.4420    2.4240 O.3   267  PHE267     -0.2188
    117  CB        -4.4680   -8.5500    2.4040 C.3   267  PHE267      0.0480
    118  CG        -5.5390   -9.5060    1.8210 C.ar  267  PHE267     -0.0206
    119  CD1       -5.8480  -10.7140    2.4660 C.ar  267  PHE267     -0.0042
    120  CD2       -6.2490   -9.1700    0.6620 C.ar  267  PHE267     -0.0042
    121  CE1       -6.9030  -11.6610    1.9370 C.ar  267  PHE267     -0.0003
    122  CE2       -7.2720  -10.0380    0.1350 C.ar  267  PHE267     -0.0003
    123  CZ        -7.6000  -11.2920    0.7680 C.ar  267  PHE267     -0.0000
    124  N         -1.0960   -2.4680   -7.2330 N.3   305  TYR305     -0.1241
    125  CA        -1.7560   -2.4250   -5.8850 C.3   305  TYR305      0.1605
    126  C         -1.1120   -3.4970   -4.9470 C.2   305  TYR305      0.2264
    127  O         -1.2250   -4.7030   -5.3280 O.2   305  TYR305     -0.2867
    128  CB        -3.2910   -2.6750   -5.9890 C.3   305  TYR305      0.0534
    129  CG        -4.0650   -2.5090   -4.6780 C.ar  305  TYR305     -0.0201
    130  CD1       -3.8680   -3.3870   -3.5990 C.ar  305  TYR305     -0.0009
    131  CD2       -4.9680   -1.4100   -4.4920 C.ar  305  TYR305     -0.0009
    132  CE1       -4.5170   -3.1960   -2.3170 C.ar  305  TYR305      0.0417
    133  CE2       -5.6420   -1.2250   -3.2220 C.ar  305  TYR305      0.0417
    134  CZ        -5.3860   -2.1140   -2.1160 C.ar  305  TYR305      0.1957
    135  OH        -6.0250   -1.9000   -0.8700 O.3   305  TYR305     -0.2866
    136  N          2.2010   -5.5580    2.9040 N.3   327  TYR327     -0.1241
    137  CA         1.6660   -6.1530    1.6670 C.3   327  TYR327      0.1605
    138  C          2.7020   -7.0020    0.8640 C.2   327  TYR327      0.2264
    139  O          2.3490   -7.5280   -0.2340 O.2   327  TYR327     -0.2867
    140  CB         1.0280   -5.0370    0.7450 C.3   327  TYR327      0.0534
    141  CG        -0.1870   -5.4890   -0.0620 C.ar  327  TYR327     -0.0201
    142  CD1       -1.5070   -5.5740    0.5280 C.ar  327  TYR327     -0.0009
    143  CD2       -0.0750   -5.7510   -1.4730 C.ar  327  TYR327     -0.0009
    144  CE1       -2.6440   -5.9910   -0.2370 C.ar  327  TYR327      0.0417
    145  CE2       -1.2290   -6.1830   -2.2580 C.ar  327  TYR327      0.0417
    146  CZ        -2.4820   -6.3160   -1.6310 C.ar  327  TYR327      0.1957
    147  OH        -3.5640   -6.7380   -2.4400 O.3   327  TYR327     -0.2866
@<TRIPOS>BOND
     1    76    75    1
     2    73    74    1
     3    75    74    1
     4    74    77    1
     5    60    61    1
     6    70    71    2
     7    70    69    1
     8    61    62    1
     9    61    64    1
    10    62    63    2
    11    68    69    1
    12   104   105    1
    13    79    78   ar
    14   107   106    2
    15    77    78    1
    16    69    72    1
    17    64    65    1
    18   106   105    1
    19    78    80   ar
    20    81    82    1
    21   105   108    1
    22    83    82    1
    23    83    84    2
    24    65    66    2
    25    65    67   am
    26    82    85    1
    27   108   109    1
    28   109   110    1
    29    52    53    1
    30    52    51    1
    31    52    55    1
    32    53    54    2
    33    87    89   ar
    34    87    86   ar
    35    85    86    1
    36    51    45   am
    37   124   125    1
    38    56    55    1
    39    56    57    1
    40    89    91   ar
    41    86    88   ar
    42   110   112   ar
    43   110   111   ar
    44    59    57   ar
    45    45    44    1
    46    45    46    2
    47    91    92    1
    48    91    90   ar
    49    88    90   ar
    50    57    58   ar
    51    44    43    1
    52    44    47    1
    53   128   125    1
    54   128   129    1
    55   125   126    1
    56   127   126    2
    57    49    48    2
    58    48    47    1
    59    48    50   am
    60   129   131   ar
    61   129   130   ar
    62   131   133   ar
    63    12    11    1
    64   103   101   ar
    65   103   102   ar
    66   130   132   ar
    67   101    99   ar
    68     9    11   ar
    69     9     7   ar
    70    11    10   ar
    71   133   134   ar
    72   102   100   ar
    73    93    94    1
    74     7     6   ar
    75    99    98   ar
    76   147   146    1
    77   132   134   ar
    78   145   146   ar
    79   145   143   ar
    80     1     2    1
    81   100    98   ar
    82    10     8   ar
    83   134   135    1
    84    98    97    1
    85     6     8   ar
    86     6     5    1
    87   146   144   ar
    88     2     5    1
    89     2     3    1
    90    94    97    1
    91    94    95    1
    92   143   141   ar
    93    16    15    2
    94    14    15    1
    95    14    13    1
    96    14    17    1
    97    19    17    1
    98    15    21   am
    99    25    26    1
   100    25    22    1
   101    28    26   am
   102     3     4    2
   103    95    96    2
   104    17    18    1
   105    26    27    2
   106   144   142   ar
   107   139   138    2
   108   141   142   ar
   109   141   140    1
   110    21    22    1
   111   122   120   ar
   112   122   123   ar
   113    22    23    1
   114    29    30    1
   115    29    23   am
   116   120   118   ar
   117   140   137    1
   118   123   121   ar
   119    42    40   ar
   120   138   137    1
   121   113   114    1
   122    30    33    1
   123    30    31    1
   124    41    40   ar
   125    23    24    2
   126    18    20    1
   127    40    39    1
   128   137   136    1
   129   118   117    1
   130   118   119   ar
   131   121   119   ar
   132   114   117    1
   133   114   115    1
   134    31    34   am
   135    31    32    2
   136   116   115    1
   137    34    35    1
   138    39    38    1
   139    38    35    1
   140    35    36    1
   141    36    37    2
