@<TRIPOS>MOLECULE
tmp/3oguA00.pdb
 90 87 0 0 0
SMALL
GASTEIGER

@<TRIPOS>ATOM
      1  N         70.9440   30.3550   62.8930 N.3   139  LYS139     -0.1245
      2  CA        72.3340   30.7630   63.0700 C.3   139  LYS139      0.1561
      3  C         72.9270   31.3180   61.7810 C.2   139  LYS139      0.2260
      4  O         72.5500   30.9060   60.6820 O.2   139  LYS139     -0.2867
      5  CB        73.1860   29.5880   63.5450 C.3   139  LYS139      0.0271
      6  CG        72.8830   29.1210   64.9560 C.3   139  LYS139      0.0035
      7  CD        73.7410   27.9210   65.3230 C.3   139  LYS139      0.0206
      8  CE        73.4070   27.4040   66.7150 C.3   139  LYS139      0.1093
      9  NZ        74.0750   26.1040   66.9970 N.3   139  LYS139     -0.1314
     10  N         83.3330   29.0570   57.3550 N.3   145  GLU145     -0.1245
     11  CA        82.6120   27.8140   57.1020 C.3   145  GLU145      0.1567
     12  C         82.0180   27.7770   55.6940 C.2   145  GLU145      0.2260
     13  O         81.9420   26.7150   55.0830 O.2   145  GLU145     -0.2867
     14  CB        81.5200   27.5870   58.1510 C.3   145  GLU145      0.0388
     15  CG        82.0630   27.3060   59.5460 C.3   145  GLU145      0.1160
     16  CD        80.9720   26.9610   60.5440 C.2   145  GLU145      0.3649
     17  OE1       79.8710   26.5530   60.1120 O.co2 145  GLU145     -0.2457
     18  OE2       81.2140   27.1010   61.7630 O.co2 145  GLU145     -0.2457
     19  N         83.0050   16.2830   60.5560 N.3   234  SER234     -0.1202
     20  CA        83.8270   16.4740   61.7430 C.3   234  SER234      0.2020
     21  C         84.5240   15.1670   62.1060 C.2   234  SER234      0.2618
     22  O         84.0670   14.0870   61.7350 O.2   234  SER234     -0.2717
     23  CB        82.9740   16.9670   62.9130 C.3   234  SER234      0.2103
     24  OG        81.9540   16.0360   63.2290 O.3   234  SER234     -0.2182
     25  N         85.6350   15.2710   62.8250 N.am  235  LYS235     -0.1979
     26  CA        86.3880   14.0960   63.2420 C.3   235  LYS235      0.1596
     27  C         85.7700   13.5120   64.5020 C.2   235  LYS235      0.2287
     28  O         85.1880   14.2360   65.3110 O.2   235  LYS235     -0.2864
     29  CB        87.8560   14.4510   63.4920 C.3   235  LYS235      0.0298
     30  CG        88.2860   15.7820   62.8960 C.3   235  LYS235      0.0038
     31  CD        87.7350   16.9460   63.7060 C.3   235  LYS235      0.0206
     32  CE        87.2040   18.0460   62.8040 C.3   235  LYS235      0.1093
     33  NZ        86.4870   19.0920   63.5810 N.3   235  LYS235     -0.1314
     34  N         85.0010   15.2980   68.1450 N.3   238  GLU238     -0.1231
     35  CA        84.9280   16.7530   68.0670 C.3   238  GLU238      0.1699
     36  C         83.5040   17.1860   67.7420 C.2   238  GLU238      0.2592
     37  O         82.8280   16.5650   66.9230 O.2   238  GLU238     -0.2718
     38  CB        85.9100   17.3110   67.0330 C.3   238  GLU238      0.0402
     39  CG        87.3660   17.2880   67.4730 C.3   238  GLU238      0.1161
     40  CD        88.2460   18.2100   66.6470 C.2   238  GLU238      0.3649
     41  OE1       87.7230   19.2080   66.1060 O.co2 238  GLU238     -0.2457
     42  OE2       89.4600   17.9340   66.5350 O.co2 238  GLU238     -0.2457
     43  N         83.0520   18.2530   68.3920 N.am  239  LYS239     -0.1966
     44  CA        81.6740   18.7090   68.2510 C.3   239  LYS239      0.1728
     45  C         81.2930   18.9070   66.7860 C.2   239  LYS239      0.2616
     46  O         82.0920   19.3890   65.9850 O.2   239  LYS239     -0.2715
     47  CB        81.4520   19.9920   69.0550 C.3   239  LYS239      0.0311
     48  CG        81.9080   19.8790   70.5020 C.3   239  LYS239      0.0038
     49  CD        81.3410   18.6270   71.1600 C.3   239  LYS239      0.0206
     50  CE        81.9310   18.4020   72.5430 C.3   239  LYS239      0.1093
     51  NZ        81.5090   17.0920   73.1150 N.3   239  LYS239     -0.1314
     52  N         80.0700   18.5200   66.4390 N.am  240  GLU240     -0.1963
     53  CA        79.6110   18.6060   65.0590 C.3   240  GLU240      0.1733
     54  C         79.2560   20.0330   64.6600 C.2   240  GLU240      0.2616
     55  O         78.8730   20.8510   65.4980 O.2   240  GLU240     -0.2715
     56  CB        78.4130   17.6800   64.8290 C.3   240  GLU240      0.0429
     57  CG        78.7400   16.2010   64.9530 C.3   240  GLU240      0.1163
     58  CD        77.5770   15.3120   64.5590 C.2   240  GLU240      0.3649
     59  OE1       76.4380   15.8200   64.4760 O.co2 240  GLU240     -0.2457
     60  OE2       77.8030   14.1050   64.3250 O.co2 240  GLU240     -0.2457
     61  N         79.3990   20.3300   63.3730 N.am  241  TYR241     -0.1960
     62  CA        78.9760   21.6120   62.8330 C.3   241  TYR241      0.1756
     63  C         77.4560   21.6700   62.7880 C.2   241  TYR241      0.2461
     64  O         76.7970   20.6340   62.7570 O.2   241  TYR241     -0.2730
     65  CB        79.5300   21.7990   61.4210 C.3   241  TYR241      0.0574
     66  CG        80.9950   22.1540   61.3750 C.ar  241  TYR241     -0.0198
     67  CD1       81.4070   23.4760   61.4670 C.ar  241  TYR241     -0.0009
     68  CD2       81.9660   21.1720   61.2310 C.ar  241  TYR241     -0.0009
     69  CE1       82.7470   23.8110   61.4210 C.ar  241  TYR241      0.0417
     70  CE2       83.3090   21.4990   61.1830 C.ar  241  TYR241      0.0417
     71  CZ        83.6920   22.8200   61.2790 C.ar  241  TYR241      0.1957
     72  OH        85.0280   23.1510   61.2330 O.3   241  TYR241     -0.2866
     73  N         76.8960   22.8850   62.7810 N.am  242  PRO242     -0.2727
     74  CA        75.4460   23.0450   62.6480 C.3   242  PRO242      0.1402
     75  C         74.9890   22.5950   61.2650 C.2   242  PRO242      0.2269
     76  O         75.7910   22.6030   60.3240 O.2   242  PRO242     -0.2865
     77  CB        75.2440   24.5580   62.7840 C.3   242  PRO242      0.0296
     78  CG        76.5130   25.0810   63.4000 C.3   242  PRO242      0.0237
     79  CD        77.5880   24.1770   62.9080 C.3   242  PRO242      0.0939
     80  N         72.9820   23.3210   57.8620 N.3   244  ARG244     -0.1245
     81  CA        72.7910   24.5690   57.1390 C.3   244  ARG244      0.1563
     82  C         71.8330   24.3840   55.9690 C.2   244  ARG244      0.2260
     83  O         71.7430   23.3030   55.3960 O.2   244  ARG244     -0.2867
     84  CB        74.1300   25.0800   56.5970 C.3   244  ARG244      0.0307
     85  CG        75.2600   25.1200   57.6130 C.3   244  ARG244      0.0489
     86  CD        74.9700   26.1220   58.7110 C.3   244  ARG244      0.2205
     87  NE        76.1740   26.4340   59.4770 N.pl3 244  ARG244     -0.0865
     88  CZ        76.2280   27.3440   60.4440 C.cat 244  ARG244      0.5346
     89  NH1       75.1430   28.0320   60.7720 N.pl3 244  ARG244      0.1354
     90  NH2       77.3700   27.5620   61.0840 N.pl3 244  ARG244      0.1354
@<TRIPOS>BOND
     1    13    12    2
     2    83    82    2
     3    12    11    1
     4    82    81    1
     5    84    81    1
     6    84    85    1
     7    11    10    1
     8    11    14    1
     9    81    80    1
    10    85    86    1
    11    14    15    1
    12    86    87    1
    13    87    88    2
    14    15    16    1
    15    17    16   ar
    16    76    75    2
    17    88    89    1
    18    88    90    1
    19    16    18   ar
    20    19    20    1
    21     4     3    2
    22    70    68   ar
    23    70    71   ar
    24    68    66   ar
    25    72    71    1
    26    75    74    1
    27    71    69   ar
    28    66    65    1
    29    66    67   ar
    30    65    62    1
    31    69    67   ar
    32    22    21    2
    33    20    21    1
    34    20    23    1
    35     3     2    1
    36    21    25   am
    37    74    73    1
    38    74    77    1
    39    64    63    2
    40    73    63   am
    41    73    79    1
    42    77    78    1
    43    63    62    1
    44    32    33    1
    45    32    31    1
    46    25    26    1
    47    62    61    1
    48     1     2    1
    49    30    29    1
    50    30    31    1
    51    79    78    1
    52    23    24    1
    53     2     5    1
    54    26    29    1
    55    26    27    1
    56    61    54   am
    57     5     6    1
    58    60    58   ar
    59    59    58   ar
    60    27    28    2
    61    58    57    1
    62    54    53    1
    63    54    55    2
    64    56    57    1
    65    56    53    1
    66     6     7    1
    67    53    52    1
    68     7     8    1
    69    46    45    2
    70    41    40   ar
    71    52    45   am
    72    42    40   ar
    73    40    39    1
    74     8     9    1
    75    45    44    1
    76    37    36    2
    77    38    39    1
    78    38    35    1
    79    36    35    1
    80    36    43   am
    81    35    34    1
    82    44    43    1
    83    44    47    1
    84    47    48    1
    85    48    49    1
    86    49    50    1
    87    50    51    1
