@<TRIPOS>MOLECULE
tmp/3ogvA00.pdb
 166 162 0 0 0
SMALL
GASTEIGER

@<TRIPOS>ATOM
      1  N         -6.6480    5.8500   -2.2270 N.3    59  TYR59      -0.1241
      2  CA        -7.9670    5.8820   -1.5370 C.3    59  TYR59       0.1605
      3  C         -8.0640    6.9840   -0.5750 C.2    59  TYR59       0.2264
      4  O         -7.0570    7.4360    0.0480 O.2    59  TYR59      -0.2867
      5  CB        -8.2490    4.5460   -0.8560 C.3    59  TYR59       0.0534
      6  CG        -8.5940    3.3640   -1.7160 C.ar   59  TYR59      -0.0201
      7  CD1       -9.5890    3.4460   -2.7570 C.ar   59  TYR59      -0.0009
      8  CD2       -8.1040    2.0860   -1.4700 C.ar   59  TYR59      -0.0009
      9  CE1       -9.9430    2.2970   -3.4740 C.ar   59  TYR59       0.0417
     10  CE2       -8.4370    0.9610   -2.1320 C.ar   59  TYR59       0.0417
     11  CZ        -9.4020    1.1040   -3.1780 C.ar   59  TYR59       0.1957
     12  OH        -9.6940   -0.0320   -3.8720 O.3    59  TYR59      -0.2866
     13  N        -14.4720    1.8080   -0.2770 N.3   102  ILE102     -0.1231
     14  CA       -13.1250    1.5900   -0.8680 C.3   102  ILE102      0.1692
     15  C        -12.6400    0.1610   -0.6580 C.2   102  ILE102      0.2592
     16  O        -11.6990   -0.2670   -1.3590 O.2   102  ILE102     -0.2718
     17  CB       -12.0340    2.5500   -0.3320 C.3   102  ILE102      0.0266
     18  CG1      -11.8950    2.4350    1.2160 C.3   102  ILE102      0.0019
     19  CG2      -12.3990    3.9370   -0.7790 C.3   102  ILE102      0.0020
     20  CD1      -10.6430    3.1580    1.8180 C.3   102  ILE102      0.0001
     21  N        -13.2570   -0.6700    0.2440 N.am  103  ASN103     -0.1960
     22  CA       -12.7900   -2.0220    0.5450 C.3   103  ASN103      0.1819
     23  C        -11.4070   -1.9080    1.2800 C.2   103  ASN103      0.2621
     24  O        -11.3550   -1.4870    2.4490 O.2   103  ASN103     -0.2715
     25  CB       -12.7960   -2.9790   -0.6660 C.3   103  ASN103      0.1195
     26  CG       -12.9370   -4.3840   -0.2730 C.2   103  ASN103      0.2630
     27  OD1      -13.9590   -4.7730    0.3870 O.2   103  ASN103     -0.2716
     28  ND2      -11.9960   -5.2870   -0.5980 N.am  103  ASN103     -0.0877
     29  N        -10.2620   -2.1630    0.5440 N.am  104  ALA104     -0.1963
     30  CA        -8.9070   -1.6720    0.9740 C.3   104  ALA104      0.1728
     31  C         -8.3990   -2.3900    2.2240 C.2   104  ALA104      0.2616
     32  O         -7.3700   -1.9160    2.7770 O.2   104  ALA104     -0.2715
     33  CB        -8.8980   -0.1480    1.1620 C.3   104  ALA104      0.0334
     34  N         -9.0570   -3.4300    2.7120 N.am  105  GLU105     -0.1977
     35  CA        -8.6980   -4.0770    3.9720 C.3   105  GLU105      0.1602
     36  C         -8.7750   -3.0620    5.1150 C.2   105  GLU105      0.2287
     37  O         -8.0130   -3.2230    6.1190 O.2   105  GLU105     -0.2864
     38  CB        -7.3670   -4.8660    3.8760 C.3   105  GLU105      0.0415
     39  CG        -7.4920   -6.0970    3.0100 C.3   105  GLU105      0.1163
     40  CD        -7.5300   -5.8150    1.5220 C.2   105  GLU105      0.3649
     41  OE1       -6.5890   -5.2180    0.9890 O.co2 105  GLU105     -0.2457
     42  OE2       -8.4960   -6.2480    0.8450 O.co2 105  GLU105     -0.2457
     43  N        -16.1300    1.3380   -5.9430 N.3   162  ASN162     -0.1225
     44  CA       -14.9740    0.4140   -5.9280 C.3   162  ASN162      0.1785
     45  C        -15.3660   -0.9540   -6.2690 C.2   162  ASN162      0.2597
     46  O        -16.1220   -1.5890   -5.4920 O.2   162  ASN162     -0.2718
     47  CB       -14.2450    0.4830   -4.5490 C.3   162  ASN162      0.1169
     48  CG       -12.9470   -0.2850   -4.6390 C.2   162  ASN162      0.2627
     49  OD1      -11.9830    0.2500   -5.2300 O.2   162  ASN162     -0.2716
     50  ND2      -12.8900   -1.4940   -4.1480 N.am  162  ASN162     -0.0877
     51  N        -14.8490   -1.5340   -7.3190 N.am  163  GLU163     -0.1979
     52  CA       -14.9920   -2.9140   -7.6820 C.3   163  GLU163      0.1602
     53  C        -16.4930   -3.3350   -7.5710 C.2   163  GLU163      0.2287
     54  O        -16.8840   -4.3090   -6.9340 O.2   163  GLU163     -0.2864
     55  CB       -14.0620   -3.8030   -6.8270 C.3   163  GLU163      0.0415
     56  CG       -14.0500   -5.2340   -7.1880 C.3   163  GLU163      0.1163
     57  CD       -14.7590   -6.1300   -6.2080 C.2   163  GLU163      0.3649
     58  OE1      -14.9140   -5.7870   -5.0120 O.co2 163  GLU163     -0.2457
     59  OE2      -15.2470   -7.2210   -6.6590 O.co2 163  GLU163     -0.2457
     60  N        -12.9920   -0.0350  -11.8350 N.3   198  ASN198     -0.1240
     61  CA       -12.0630   -1.0730  -11.4320 C.3   198  ASN198      0.1653
     62  C        -12.7790   -2.3750  -11.2080 C.2   198  ASN198      0.2266
     63  O        -12.7810   -2.9460  -10.1310 O.2   198  ASN198     -0.2867
     64  CB       -11.1330   -0.6490  -10.2410 C.3   198  ASN198      0.1155
     65  CG       -11.9360   -0.5420   -8.9190 C.2   198  ASN198      0.2627
     66  OD1      -13.0480    0.0090   -8.9170 O.2   198  ASN198     -0.2716
     67  ND2      -11.3010   -0.9500   -7.8360 N.am  198  ASN198     -0.0877
     68  N        -13.7520   -6.2480  -10.9930 N.3   200  ALA200     -0.1231
     69  CA       -12.9180   -7.3230  -10.5280 C.3   200  ALA200      0.1694
     70  C        -12.3520   -8.1570  -11.6210 C.2   200  ALA200      0.2592
     71  O        -11.2560   -8.7240  -11.4540 O.2   200  ALA200     -0.2718
     72  CB       -13.6750   -8.2150   -9.5150 C.3   200  ALA200      0.0304
     73  N        -13.1130   -8.2950  -12.7050 N.am  201  PHE201     -0.1976
     74  CA       -12.7340   -9.0900  -13.8430 C.3   201  PHE201      0.1639
     75  C        -13.3990   -8.3920  -15.0240 C.2   201  PHE201      0.2290
     76  O        -14.1460   -7.4430  -14.8710 O.2   201  PHE201     -0.2864
     77  CB       -13.2290  -10.5640  -13.6710 C.3   201  PHE201      0.0560
     78  CG       -14.7310  -10.6930  -13.6060 C.ar  201  PHE201     -0.0200
     79  CD1      -15.3810  -10.3950  -12.4330 C.ar  201  PHE201     -0.0042
     80  CD2      -15.4870  -11.0200  -14.7430 C.ar  201  PHE201     -0.0042
     81  CE1      -16.8660  -10.4020  -12.3570 C.ar  201  PHE201     -0.0003
     82  CE2      -16.9150  -11.0730  -14.6770 C.ar  201  PHE201     -0.0003
     83  CZ       -17.5520  -10.7200  -13.4960 C.ar  201  PHE201     -0.0000
     84  N         -9.3660   -5.2940  -12.8410 N.3   221  ASP221     -0.1225
     85  CA        -8.2970   -5.6260  -11.8750 C.3   221  ASP221      0.1805
     86  C         -7.6670   -6.9460  -12.2750 C.2   221  ASP221      0.2598
     87  O         -8.1540   -7.6890  -13.1420 O.2   221  ASP221     -0.2718
     88  CB        -8.9510   -5.7780  -10.4630 C.3   221  ASP221      0.1424
     89  CG        -9.6620   -4.5330  -10.0570 C.2   221  ASP221      0.3668
     90  OD1       -9.3510   -3.4210  -10.4780 O.co2 221  ASP221     -0.2456
     91  OD2      -10.7990   -4.7900   -9.4060 O.co2 221  ASP221     -0.2456
     92  N         -6.5700   -7.3130  -11.5670 N.am  222  GLY222     -0.1942
     93  CA        -5.9660   -8.5830  -11.7260 C.3   222  GLY222      0.2014
     94  C         -5.1730   -8.9690  -10.4890 C.2   222  GLY222      0.2638
     95  O         -4.2580   -8.2560  -10.1510 O.2   222  GLY222     -0.2714
     96  N         -5.5300  -10.1090   -9.9040 N.am  223  TYR223     -0.1973
     97  CA        -4.7570  -10.6630   -8.7960 C.3   223  TYR223      0.1639
     98  C         -4.5940  -12.1470   -9.0700 C.2   223  TYR223      0.2290
     99  O         -5.2040  -13.0280   -8.4280 O.2   223  TYR223     -0.2864
    100  CB        -5.4450  -10.4000   -7.4340 C.3   223  TYR223      0.0560
    101  CG        -5.4770   -8.9610   -7.0580 C.ar  223  TYR223     -0.0198
    102  CD1       -6.5240   -8.1360   -7.4370 C.ar  223  TYR223     -0.0009
    103  CD2       -4.4150   -8.3920   -6.3600 C.ar  223  TYR223     -0.0009
    104  CE1       -6.5550   -6.7820   -7.0630 C.ar  223  TYR223      0.0417
    105  CE2       -4.4680   -7.0630   -5.9060 C.ar  223  TYR223      0.0417
    106  CZ        -5.5360   -6.2490   -6.3130 C.ar  223  TYR223      0.1957
    107  OH        -5.5330   -4.9390   -5.8770 O.3   223  TYR223     -0.2866
    108  N         -3.8340  -14.7670   -6.4160 N.3   226  GLY226     -0.1210
    109  CA        -4.6100  -14.7830   -5.1640 C.3   226  GLY226      0.1956
    110  C         -3.8920  -14.1580   -3.9970 C.2   226  GLY226      0.2611
    111  O         -2.8350  -13.4950   -4.1030 O.2   226  GLY226     -0.2717
    112  N         -4.4540  -14.4090   -2.8160 N.am  227  PHE227     -0.1976
    113  CA        -3.9890  -13.6940   -1.6390 C.3   227  PHE227      0.1639
    114  C         -3.4300  -14.5410   -0.5520 C.2   227  PHE227      0.2290
    115  O         -3.0400  -13.9680    0.5120 O.2   227  PHE227     -0.2864
    116  CB        -5.1120  -12.7920   -1.0700 C.3   227  PHE227      0.0560
    117  CG        -5.6780  -11.8630   -2.0510 C.ar  227  PHE227     -0.0200
    118  CD1       -6.8770  -12.1610   -2.7270 C.ar  227  PHE227     -0.0042
    119  CD2       -4.9350  -10.6820   -2.4360 C.ar  227  PHE227     -0.0042
    120  CE1       -7.3670  -11.2110   -3.6600 C.ar  227  PHE227     -0.0003
    121  CE2       -5.4570   -9.7720   -3.3720 C.ar  227  PHE227     -0.0003
    122  CZ        -6.6310  -10.0590   -3.9650 C.ar  227  PHE227     -0.0000
    123  N         -6.1700   -1.9670  -10.8620 N.3   261  GLU261     -0.1245
    124  CA        -5.4000   -2.5670   -9.7570 C.3   261  GLU261      0.1567
    125  C         -4.8060   -3.8000  -10.3310 C.2   261  GLU261      0.2260
    126  O         -5.5030   -4.7190  -10.8380 O.2   261  GLU261     -0.2867
    127  CB        -6.2700   -2.9580   -8.5560 C.3   261  GLU261      0.0388
    128  CG        -6.9770   -1.8110   -7.9320 C.3   261  GLU261      0.1160
    129  CD        -7.9220   -2.3610   -6.8530 C.2   261  GLU261      0.3649
    130  OE1       -7.6580   -3.3820   -6.2530 O.co2 261  GLU261     -0.2457
    131  OE2       -8.8310   -1.5930   -6.5160 O.co2 261  GLU261     -0.2457
    132  N         -2.6540   -9.1950    0.7660 N.3   267  PHE267     -0.1241
    133  CA        -2.9870   -8.9530    2.2070 C.3   267  PHE267      0.1605
    134  C         -2.6900  -10.2550    2.9750 C.2   267  PHE267      0.2264
    135  O         -2.4220  -11.3140    2.4100 O.2   267  PHE267     -0.2867
    136  CB        -4.4720   -8.4710    2.3550 C.3   267  PHE267      0.0534
    137  CG        -5.4940   -9.4220    1.7800 C.ar  267  PHE267     -0.0203
    138  CD1       -5.7800  -10.6650    2.3680 C.ar  267  PHE267     -0.0042
    139  CD2       -6.2180   -9.0330    0.6590 C.ar  267  PHE267     -0.0042
    140  CE1       -6.7710  -11.5530    1.8050 C.ar  267  PHE267     -0.0003
    141  CE2       -7.2360   -9.8670    0.1150 C.ar  267  PHE267     -0.0003
    142  CZ        -7.5400  -11.1060    0.7300 C.ar  267  PHE267     -0.0000
    143  N         -1.0800   -2.3630   -7.1200 N.3   305  TYR305     -0.1241
    144  CA        -1.7230   -2.2930   -5.7800 C.3   305  TYR305      0.1605
    145  C         -1.1170   -3.4470   -4.9520 C.2   305  TYR305      0.2264
    146  O         -1.2560   -4.6150   -5.3120 O.2   305  TYR305     -0.2867
    147  CB        -3.2270   -2.5700   -5.9660 C.3   305  TYR305      0.0534
    148  CG        -3.9960   -2.4060   -4.6280 C.ar  305  TYR305     -0.0201
    149  CD1       -3.8570   -3.3490   -3.6200 C.ar  305  TYR305     -0.0009
    150  CD2       -4.8070   -1.3000   -4.4170 C.ar  305  TYR305     -0.0009
    151  CE1       -4.5280   -3.1430   -2.3730 C.ar  305  TYR305      0.0417
    152  CE2       -5.5060   -1.0910   -3.1930 C.ar  305  TYR305      0.0417
    153  CZ        -5.2720   -2.0290   -2.1820 C.ar  305  TYR305      0.1957
    154  OH        -5.9340   -1.7710   -0.9510 O.3   305  TYR305     -0.2866
    155  N          2.0930   -5.4810    2.8870 N.3   327  TYR327     -0.1241
    156  CA         1.5270   -6.0170    1.6570 C.3   327  TYR327      0.1605
    157  C          2.5650   -6.8220    0.8130 C.2   327  TYR327      0.2264
    158  O          2.2130   -7.3830   -0.1820 O.2   327  TYR327     -0.2867
    159  CB         0.8920   -4.9080    0.7480 C.3   327  TYR327      0.0534
    160  CG        -0.2860   -5.3830   -0.0670 C.ar  327  TYR327     -0.0201
    161  CD1       -1.5830   -5.4590    0.5170 C.ar  327  TYR327     -0.0009
    162  CD2       -0.1500   -5.6760   -1.4340 C.ar  327  TYR327     -0.0009
    163  CE1       -2.6900   -5.8440   -0.2620 C.ar  327  TYR327      0.0417
    164  CE2       -1.2480   -6.0620   -2.2090 C.ar  327  TYR327      0.0417
    165  CZ        -2.4760   -6.1820   -1.6160 C.ar  327  TYR327      0.1957
    166  OH        -3.5220   -6.5790   -2.3880 O.3   327  TYR327     -0.2866
@<TRIPOS>BOND
     1    75    76    2
     2    75    74    1
     3    80    82   ar
     4    80    78   ar
     5    82    83   ar
     6    74    77    1
     7    74    73    1
     8    77    78    1
     9    78    79   ar
    10    83    81   ar
    11    87    86    2
    12    84    85    1
    13    73    70   am
    14    79    81   ar
    15    86    85    1
    16    86    92   am
    17    85    88    1
    18    60    61    1
    19    93    92    1
    20    93    94    1
    21    70    71    2
    22    70    69    1
    23    61    62    1
    24    61    64    1
    25    62    63    2
    26    68    69    1
    27   123   124    1
    28   126   125    2
    29    69    72    1
    30    94    95    2
    31    94    96   am
    32    90    89   ar
    33    88    89    1
    34   125   124    1
    35    64    65    1
    36    89    91   ar
    37    96    97    1
    38   124   127    1
    39    98    97    1
    40    98    99    2
    41    65    66    2
    42    65    67   am
    43    97   100    1
    44   127   128    1
    45   128   129    1
    46    52    53    1
    47    52    51    1
    48    52    55    1
    49    53    54    2
    50   102   104   ar
    51   102   101   ar
    52   100   101    1
    53    51    45   am
    54    56    55    1
    55    56    57    1
    56   143   144    1
    57   104   106   ar
    58   101   103   ar
    59   129   131   ar
    60   129   130   ar
    61    59    57   ar
    62   108   109    1
    63   103   105   ar
    64   106   105   ar
    65   106   107    1
    66    45    44    1
    67    45    46    2
    68    57    58   ar
    69   147   144    1
    70   147   148    1
    71    43    44    1
    72    44    47    1
    73   144   145    1
    74   146   145    2
    75    49    48    2
    76   109   110    1
    77    48    47    1
    78    48    50   am
    79   148   150   ar
    80   148   149   ar
    81   150   152   ar
    82   111   110    2
    83   110   112   am
    84   122   120   ar
    85   122   121   ar
    86    12    11    1
    87   120   118   ar
    88   149   151   ar
    89     9    11   ar
    90     9     7   ar
    91   121   119   ar
    92   152   153   ar
    93    11    10   ar
    94   112   113    1
    95     7     6   ar
    96   118   117   ar
    97   119   117   ar
    98   166   165    1
    99   151   153   ar
   100     1     2    1
   101   164   165   ar
   102   164   162   ar
   103   153   154    1
   104    10     8   ar
   105   117   116    1
   106     6     8   ar
   107     6     5    1
   108   113   116    1
   109   113   114    1
   110   165   163   ar
   111     2     5    1
   112     2     3    1
   113   162   160   ar
   114    16    15    2
   115    14    15    1
   116    14    17    1
   117    14    13    1
   118    19    17    1
   119    25    26    1
   120    25    22    1
   121    15    21   am
   122    28    26   am
   123     3     4    2
   124   114   115    2
   125    17    18    1
   126    26    27    2
   127   163   161   ar
   128   158   157    2
   129   160   161   ar
   130   160   159    1
   131   141   139   ar
   132   141   142   ar
   133    21    22    1
   134    29    30    1
   135    29    23   am
   136    22    23    1
   137   139   137   ar
   138   142   140   ar
   139   159   156    1
   140   132   133    1
   141   157   156    1
   142    42    40   ar
   143    30    33    1
   144    30    31    1
   145    41    40   ar
   146    18    20    1
   147    23    24    2
   148    40    39    1
   149   156   155    1
   150   137   136    1
   151   137   138   ar
   152   140   138   ar
   153   133   136    1
   154   133   134    1
   155    31    34   am
   156    31    32    2
   157   135   134    2
   158    34    35    1
   159    39    38    1
   160    38    35    1
   161    35    36    1
   162    36    37    2
