@<TRIPOS>MOLECULE
tmp/3ogvA02.pdb
 225 224 0 0 0
SMALL
GASTEIGER

@<TRIPOS>ATOM
      1  N         -4.4540  -14.4090   -2.8160 N.3   227  PHE227     -0.1227
      2  CA        -3.9890  -13.6940   -1.6390 C.3   227  PHE227      0.1736
      3  C         -3.4300  -14.5410   -0.5520 C.2   227  PHE227      0.2595
      4  O         -3.0400  -13.9680    0.5120 O.2   227  PHE227     -0.2718
      5  CB        -5.1120  -12.7920   -1.0700 C.3   227  PHE227      0.0547
      6  CG        -5.6780  -11.8630   -2.0510 C.ar  227  PHE227     -0.0202
      7  CD1       -6.8770  -12.1610   -2.7270 C.ar  227  PHE227     -0.0042
      8  CD2       -4.9350  -10.6820   -2.4360 C.ar  227  PHE227     -0.0042
      9  CE1       -7.3670  -11.2110   -3.6600 C.ar  227  PHE227     -0.0003
     10  CE2       -5.4570   -9.7720   -3.3720 C.ar  227  PHE227     -0.0003
     11  CZ        -6.6310  -10.0590   -3.9650 C.ar  227  PHE227     -0.0000
     12  N         -3.3760  -15.8400   -0.7780 N.am  228  ASP228     -0.1974
     13  CA        -2.8700  -16.7780    0.2370 C.3   228  ASP228      0.1709
     14  C         -1.3840  -17.0570   -0.0860 C.2   228  ASP228      0.2293
     15  O         -1.0940  -17.6730   -1.1420 O.2   228  ASP228     -0.2864
     16  CB        -3.6930  -18.0660    0.1210 C.3   228  ASP228      0.1436
     17  CG        -3.3620  -19.1430    1.2220 C.2   228  ASP228      0.3671
     18  OD1       -2.4200  -18.9930    1.8610 O.co2 228  ASP228     -0.2456
     19  OD2       -4.0530  -20.1820    1.3180 O.co2 228  ASP228     -0.2456
     20  N          0.7390  -19.0930    1.3700 N.3   230  ALA230     -0.1245
     21  CA         1.2510  -20.3440    1.9430 C.3   230  ALA230      0.1562
     22  C          2.3940  -21.0160    1.2300 C.2   230  ALA230      0.2260
     23  O          3.2840  -21.6250    1.8680 O.2   230  ALA230     -0.2867
     24  CB         0.1040  -21.3490    2.0980 C.3   230  ALA230      0.0290
     25  N         -2.6540   -9.1950    0.7660 N.3   267  PHE267     -0.1241
     26  CA        -2.9870   -8.9530    2.2070 C.3   267  PHE267      0.1605
     27  C         -2.6900  -10.2550    2.9750 C.2   267  PHE267      0.2264
     28  O         -2.4220  -11.3140    2.4100 O.2   267  PHE267     -0.2867
     29  CB        -4.4720   -8.4710    2.3550 C.3   267  PHE267      0.0534
     30  CG        -5.4940   -9.4220    1.7800 C.ar  267  PHE267     -0.0203
     31  CD1       -5.7800  -10.6650    2.3680 C.ar  267  PHE267     -0.0042
     32  CD2       -6.2180   -9.0330    0.6590 C.ar  267  PHE267     -0.0042
     33  CE1       -6.7710  -11.5530    1.8050 C.ar  267  PHE267     -0.0003
     34  CE2       -7.2360   -9.8670    0.1150 C.ar  267  PHE267     -0.0003
     35  CZ        -7.5400  -11.1060    0.7300 C.ar  267  PHE267     -0.0000
     36  N         -3.9280  -12.3050    6.8390 N.3   269  PRO269     -0.2102
     37  CA        -4.8600  -12.2660    8.0000 C.3   269  PRO269      0.1504
     38  C         -4.0770  -12.4610    9.3120 C.2   269  PRO269      0.2576
     39  O         -2.9620  -12.9280    9.3480 O.2   269  PRO269     -0.2718
     40  CB        -5.7830  -13.4800    7.7570 C.3   269  PRO269      0.0282
     41  CG        -4.8410  -14.5040    7.0500 C.3   269  PRO269      0.0208
     42  CD        -3.9820  -13.5920    6.1090 C.3   269  PRO269      0.0893
     43  N         -4.8260  -12.2040   10.4270 N.am  270  PHE270     -0.1963
     44  CA        -4.3410  -12.8160   11.6700 C.3   270  PHE270      0.1771
     45  C         -4.1700  -14.2980   11.4470 C.2   270  PHE270      0.2620
     46  O         -4.9530  -14.9500   10.7470 O.2   270  PHE270     -0.2715
     47  CB        -5.3660  -12.5600   12.8520 C.3   270  PHE270      0.0574
     48  CG        -5.2390  -11.2290   13.5140 C.ar  270  PHE270     -0.0200
     49  CD1       -4.1990  -11.0400   14.4810 C.ar  270  PHE270     -0.0042
     50  CD2       -6.0980  -10.1330   13.2410 C.ar  270  PHE270     -0.0042
     51  CE1       -4.0550   -9.8150   15.1540 C.ar  270  PHE270     -0.0003
     52  CE2       -5.9780   -8.9370   13.9290 C.ar  270  PHE270     -0.0003
     53  CZ        -4.9850   -8.7520   14.8680 C.ar  270  PHE270     -0.0000
     54  N         -3.1360  -14.8550   12.0870 N.am  271  GLY271     -0.1940
     55  CA        -2.7800  -16.2100   11.8510 C.3   271  GLY271      0.2014
     56  C         -2.1500  -16.5380   10.4770 C.2   271  GLY271      0.2639
     57  O         -1.9950  -17.6930   10.1250 O.2   271  GLY271     -0.2714
     58  N         -1.7910  -15.4730    9.7190 N.am  272  GLY272     -0.1939
     59  CA        -1.2430  -15.6330    8.3250 C.3   272  GLY272      0.2014
     60  C          0.2200  -15.9270    8.3530 C.2   272  GLY272      0.2638
     61  O          0.8450  -16.3630    9.3240 O.2   272  GLY272     -0.2714
     62  N          0.7900  -15.7170    7.1900 N.am  273  TRP273     -0.1973
     63  CA         2.1440  -16.2090    6.8580 C.3   273  TRP273      0.1640
     64  C          3.1980  -15.1390    7.0840 C.2   273  TRP273      0.2290
     65  O          4.4050  -15.4530    7.0220 O.2   273  TRP273     -0.2864
     66  CB         2.1810  -16.6940    5.3550 C.3   273  TRP273      0.0576
     67  CG         1.1770  -17.7350    5.1520 C.ar  273  TRP273      0.0006
     68  CD1       -0.0500  -17.6260    4.5340 C.ar  273  TRP273      0.0946
     69  CD2        1.2780  -19.0800    5.6480 C.ar  273  TRP273      0.0152
     70  NE1       -0.7010  -18.8470    4.6190 N.ar  273  TRP273     -0.2442
     71  CE2        0.0620  -19.7340    5.3430 C.ar  273  TRP273      0.0810
     72  CE3        2.2610  -19.7680    6.3850 C.ar  273  TRP273      0.0012
     73  CZ2       -0.1890  -21.1170    5.7040 C.ar  273  TRP273      0.0191
     74  CZ3        1.9940  -21.1320    6.7510 C.ar  273  TRP273      0.0001
     75  CH2        0.7830  -21.7630    6.4260 C.ar  273  TRP273      0.0015
     76  N         -9.4060   -3.7200    8.9190 N.3   318  HIS318     -0.1241
     77  CA       -10.4710   -4.6660    9.1130 C.3   318  HIS318      0.1621
     78  C        -10.0450   -5.9040    9.8550 C.2   318  HIS318      0.2264
     79  O         -8.8610   -6.1800   10.0430 O.2   318  HIS318     -0.2867
     80  CB       -11.1220   -5.0140    7.7320 C.3   318  HIS318      0.0745
     81  CG       -10.3940   -6.0250    6.9420 C.ar  318  HIS318      0.0817
     82  ND1      -11.0420   -6.9000    6.1480 N.ar  318  HIS318     -0.2268
     83  CD2       -9.0530   -6.2540    6.7750 C.ar  318  HIS318      0.1154
     84  CE1      -10.1400   -7.6500    5.5000 C.ar  318  HIS318      0.1986
     85  NE2       -8.9160   -7.2800    5.8990 N.ar  318  HIS318     -0.2212
     86  N        -10.0310   -8.9110    8.9470 N.3   320  GLY320     -0.1225
     87  CA        -9.3220   -9.8900    8.1670 C.3   320  GLY320      0.1811
     88  C         -7.8540   -9.6240    7.8960 C.2   320  GLY320      0.2280
     89  O         -7.2470  -10.3370    7.0820 O.2   320  GLY320     -0.2866
     90  N        -12.9980  -11.5140   13.3340 N.3   719  SER719     -0.1217
     91  CA       -11.9770  -12.5760   13.3340 C.3   719  SER719      0.1889
     92  C        -10.8630  -12.2050   14.3060 C.2   719  SER719      0.2288
     93  O        -10.3780  -11.1010   14.3360 O.2   719  SER719     -0.2866
     94  CB       -11.3270  -12.7400   11.9450 C.3   719  SER719      0.2089
     95  OG       -12.2560  -12.8440   10.9720 O.3   719  SER719     -0.2183
     96  N         -9.2540  -17.3370   17.9900 N.3   738  PHE738     -0.1227
     97  CA        -8.4040  -17.9940   16.9730 C.3   738  PHE738      0.1736
     98  C         -8.7400  -17.3160   15.6540 C.2   738  PHE738      0.2595
     99  O         -9.7270  -16.5900   15.4930 O.2   738  PHE738     -0.2718
    100  CB        -8.4830  -19.5140   16.9000 C.3   738  PHE738      0.0547
    101  CG        -9.8720  -20.1070   16.8340 C.ar  738  PHE738     -0.0202
    102  CD1      -10.6410  -20.3090   18.0050 C.ar  738  PHE738     -0.0042
    103  CD2      -10.3910  -20.5700   15.6120 C.ar  738  PHE738     -0.0042
    104  CE1      -11.8790  -20.9060   17.9540 C.ar  738  PHE738     -0.0003
    105  CE2      -11.6990  -21.1560   15.5490 C.ar  738  PHE738     -0.0003
    106  CZ       -12.4410  -21.3290   16.7530 C.ar  738  PHE738     -0.0000
    107  N         -7.8530  -17.5450   14.6520 N.am  739  ASP739     -0.1960
    108  CA        -7.9890  -16.7830   13.3910 C.3   739  ASP739      0.1840
    109  C         -9.3550  -16.9890   12.7350 C.2   739  ASP739      0.2621
    110  O         -9.9050  -16.0170   12.1370 O.2   739  ASP739     -0.2715
    111  CB        -6.8520  -17.1850   12.4200 C.3   739  ASP739      0.1450
    112  CG        -6.8830  -18.6310   11.9950 C.2   739  ASP739      0.3671
    113  OD1       -7.5150  -19.5230   12.6110 O.co2 739  ASP739     -0.2456
    114  OD2       -6.2710  -18.9640   10.9000 O.co2 739  ASP739     -0.2456
    115  N         -9.9350  -18.1720   12.8710 N.am  740  ALA740     -0.1977
    116  CA       -11.1920  -18.4820   12.1760 C.3   740  ALA740      0.1597
    117  C        -12.4290  -18.1440   12.9690 C.2   740  ALA740      0.2287
    118  O        -13.5540  -18.4290   12.4740 O.2   740  ALA740     -0.2864
    119  CB       -11.2110  -19.9630   11.8940 C.3   740  ALA740      0.0319
    120  N        -15.6130   -5.7180    6.0330 N.3   772  GLU772     -0.1245
    121  CA       -15.8950   -5.1200    4.7280 C.3   772  GLU772      0.1567
    122  C        -17.2520   -5.4850    4.2170 C.2   772  GLU772      0.2260
    123  O        -18.0110   -6.2720    4.8220 O.2   772  GLU772     -0.2867
    124  CB       -14.8050   -5.6330    3.7040 C.3   772  GLU772      0.0388
    125  CG       -13.4000   -5.0510    3.9990 C.3   772  GLU772      0.1160
    126  CD       -12.3680   -5.7000    3.0830 C.2   772  GLU772      0.3649
    127  OE1      -12.4410   -6.9320    2.8110 O.co2 772  GLU772     -0.2457
    128  OE2      -11.4870   -4.8940    2.6980 O.co2 772  GLU772     -0.2457
    129  N        -17.8500   -6.3930    0.5790 N.3   774  TRP774     -0.1241
    130  CA       -17.4820   -6.5130   -0.8360 C.3   774  TRP774      0.1605
    131  C        -18.4320   -7.2100   -1.7340 C.2   774  TRP774      0.2264
    132  O        -18.1140   -7.4000   -2.9420 O.2   774  TRP774     -0.2867
    133  CB       -16.0980   -7.0180   -1.0850 C.3   774  TRP774      0.0550
    134  CG       -15.6980   -8.1300   -0.2310 C.ar  774  TRP774      0.0003
    135  CD1      -14.8420   -8.0410    0.8750 C.ar  774  TRP774      0.0946
    136  CD2      -15.8960   -9.5440   -0.4670 C.ar  774  TRP774      0.0152
    137  NE1      -14.6120   -9.3020    1.3720 N.ar  774  TRP774     -0.2442
    138  CE2      -15.2250  -10.2460    0.5900 C.ar  774  TRP774      0.0810
    139  CE3      -16.6540  -10.3030   -1.4110 C.ar  774  TRP774      0.0012
    140  CZ2      -15.2600  -11.6510    0.7340 C.ar  774  TRP774      0.0191
    141  CZ3      -16.6940  -11.7180   -1.2580 C.ar  774  TRP774      0.0001
    142  CH2      -16.0130  -12.3630   -0.1700 C.ar  774  TRP774      0.0015
    143  N          8.1160  -13.9320   21.1280 N.3   893  ASN893     -0.1240
    144  CA         7.0350  -14.9120   21.2350 C.3   893  ASN893      0.1653
    145  C          7.4960  -16.1940   21.7410 C.2   893  ASN893      0.2266
    146  O          7.7940  -17.1480   20.9340 O.2   893  ASN893     -0.2867
    147  CB         6.3200  -15.1540   19.9090 C.3   893  ASN893      0.1155
    148  CG         5.1340  -16.0360   20.0570 C.2   893  ASN893      0.2627
    149  OD1        4.5350  -16.1420   21.1650 O.2   893  ASN893     -0.2716
    150  ND2        4.7040  -16.6580   18.9930 N.am  893  ASN893     -0.0877
    151  N          7.7430  -19.8160   23.3490 N.3   895  THR895     -0.1218
    152  CA         6.8010  -20.9360   23.1410 C.3   895  THR895      0.1862
    153  C          6.0660  -21.2680   24.4370 C.2   895  THR895      0.2287
    154  O          4.8700  -21.5970   24.4150 O.2   895  THR895     -0.2866
    155  CB         7.4770  -22.1910   22.3790 C.3   895  THR895      0.1770
    156  OG1        7.2440  -22.1040   20.9540 O.3   895  THR895     -0.2211
    157  CG2        6.9850  -23.5480   22.8800 C.3   895  THR895      0.0375
    158  N         -1.1070   -6.7060   19.2630 N.3   914  TYR914     -0.1227
    159  CA        -0.3670   -7.9010   19.3620 C.3   914  TYR914      0.1736
    160  C         -1.1600   -9.0300   19.9610 C.2   914  TYR914      0.2595
    161  O         -1.7580   -8.7600   21.0390 O.2   914  TYR914     -0.2718
    162  CB         0.9360   -7.6480   20.2080 C.3   914  TYR914      0.0548
    163  CG         1.8040   -8.8280   20.3970 C.ar  914  TYR914     -0.0200
    164  CD1        2.6140   -9.2920   19.3770 C.ar  914  TYR914     -0.0009
    165  CD2        1.7750   -9.6080   21.5760 C.ar  914  TYR914     -0.0009
    166  CE1        3.3960  -10.4250   19.4820 C.ar  914  TYR914      0.0417
    167  CE2        2.5770  -10.7230   21.7180 C.ar  914  TYR914      0.0417
    168  CZ         3.4110  -11.1400   20.6780 C.ar  914  TYR914      0.1957
    169  OH         4.2050  -12.2530   20.7980 O.3   914  TYR914     -0.2866
    170  N         -1.2650  -10.1820   19.3430 N.am  915  VAL915     -0.1966
    171  CA        -2.1290  -11.2560   19.8690 C.3   915  VAL915      0.1727
    172  C         -1.2280  -12.4730   19.9800 C.2   915  VAL915      0.2617
    173  O         -0.9030  -13.1730   19.0190 O.2   915  VAL915     -0.2715
    174  CB        -3.3430  -11.5220   19.0000 C.3   915  VAL915      0.0290
    175  CG1       -4.1420  -12.6280   19.6890 C.3   915  VAL915      0.0023
    176  CG2       -4.1630  -10.2010   18.8390 C.3   915  VAL915      0.0023
    177  N         -0.8010  -12.7860   21.2190 N.am  916  SER916     -0.1936
    178  CA         0.3100  -13.7580   21.4030 C.3   916  SER916      0.2055
    179  C         -0.0340  -15.1390   20.9500 C.2   916  SER916      0.2643
    180  O          0.8520  -15.9060   20.5010 O.2   916  SER916     -0.2714
    181  CB         0.7990  -13.7670   22.8500 C.3   916  SER916      0.2130
    182  OG        -0.0490  -14.5640   23.6370 O.3   916  SER916     -0.2179
    183  N         -1.3170  -15.5710   21.0510 N.am  917  ASN917     -0.1957
    184  CA        -1.7230  -16.8690   20.6540 C.3   917  ASN917      0.1819
    185  C         -2.2710  -17.0410   19.2350 C.2   917  ASN917      0.2621
    186  O         -2.6750  -18.1450   18.8620 O.2   917  ASN917     -0.2715
    187  CB        -2.7860  -17.4020   21.6760 C.3   917  ASN917      0.1195
    188  CG        -4.0410  -16.5530   21.6680 C.2   917  ASN917      0.2630
    189  OD1       -3.9740  -15.3420   21.7090 O.2   917  ASN917     -0.2716
    190  ND2       -5.1780  -17.2360   21.6720 N.am  917  ASN917     -0.0877
    191  N         -2.1940  -15.9490   18.4350 N.am  918  ILE918     -0.1963
    192  CA        -2.7640  -15.9740   17.0650 C.3   918  ILE918      0.1727
    193  C         -1.6830  -15.4820   16.0340 C.2   918  ILE918      0.2617
    194  O         -1.5610  -16.1750   15.0160 O.2   918  ILE918     -0.2715
    195  CB        -4.0480  -15.1500   16.9750 C.3   918  ILE918      0.0290
    196  CG1       -5.1040  -15.7650   17.9480 C.3   918  ILE918      0.0022
    197  CG2       -4.6140  -15.2470   15.4790 C.3   918  ILE918      0.0023
    198  CD1       -6.4860  -15.0160   17.8820 C.3   918  ILE918      0.0001
    199  N         -1.0290  -14.3660   16.2890 N.am  919  GLY919     -0.1941
    200  CA         0.0470  -13.9130   15.4020 C.3   919  GLY919      0.1998
    201  C         -0.5150  -13.4090   14.0700 C.2   919  GLY919      0.2481
    202  O         -1.7150  -13.1540   13.9240 O.2   919  GLY919     -0.2729
    203  N          0.3920  -13.1240   13.0770 N.am  920  PRO920     -0.2715
    204  CA         1.7960  -13.5150   13.0590 C.3   920  PRO920      0.1536
    205  C          2.7010  -12.3360   13.4600 C.2   920  PRO920      0.2598
    206  O          3.9550  -12.5470   13.4810 O.2   920  PRO920     -0.2715
    207  CB         2.0270  -13.8300   11.6030 C.3   920  PRO920      0.0310
    208  CG         1.1260  -12.7830   10.8490 C.3   920  PRO920      0.0237
    209  CD        -0.0850  -12.6190   11.7800 C.3   920  PRO920      0.0939
    210  N          2.1870  -11.1390   13.6940 N.am  921  GLN921     -0.1964
    211  CA         3.0880   -9.9900   13.8020 C.3   921  GLN921      0.1733
    212  C          3.8050   -9.9690   15.1480 C.2   921  GLN921      0.2617
    213  O          3.1530   -9.9040   16.2360 O.2   921  GLN921     -0.2715
    214  CB         2.3170   -8.6750   13.5460 C.3   921  GLN921      0.0408
    215  CG         3.2650   -7.4670   13.4690 C.3   921  GLN921      0.0908
    216  CD         2.6240   -6.2280   12.9130 C.2   921  GLN921      0.2608
    217  OE1        1.3570   -6.2020   12.7810 O.2   921  GLN921     -0.2717
    218  NE2        3.4080   -5.1870   12.6030 N.am  921  GLN921     -0.0878
    219  N          5.1260   -9.8650   15.0950 N.am  922  THR922     -0.1951
    220  CA         5.9480   -9.5970   16.2870 C.3   922  THR922      0.1897
    221  C          6.7070   -8.3360   16.2500 C.2   922  THR922      0.2313
    222  O          7.1420   -7.8020   17.2730 O.2   922  THR922     -0.2863
    223  CB         6.9500  -10.7660   16.5740 C.3   922  THR922      0.1794
    224  OG1        7.6850  -10.9570   15.3460 O.3   922  THR922     -0.2208
    225  CG2        6.2260  -12.0940   16.9620 C.3   922  THR922      0.0378
@<TRIPOS>BOND
     1    11     9   ar
     2    11    10   ar
     3     9     7   ar
     4    10     8   ar
     5   132   131    2
     6     1     2    1
     7     7     6   ar
     8     8     6   ar
     9     6     5    1
    10   131   130    1
    11     2     5    1
    12     2     3    1
    13   139   141   ar
    14   139   136   ar
    15   141   142   ar
    16    15    14    2
    17   133   130    1
    18   133   134    1
    19   130   129    1
    20    12     3   am
    21    12    13    1
    22     3     4    2
    23   136   134   ar
    24   136   138   ar
    25   134   135   ar
    26   142   140   ar
    27    14    13    1
    28    34    32   ar
    29    34    35   ar
    30    16    13    1
    31    16    17    1
    32   138   140   ar
    33   138   137   ar
    34    32    30   ar
    35    35    33   ar
    36    25    26    1
    37   135   137   ar
    38    17    19   ar
    39    17    18   ar
    40    22    23    2
    41    22    21    1
    42    20    21    1
    43    30    29    1
    44    30    31   ar
    45    33    31   ar
    46    21    24    1
    47    26    29    1
    48    26    27    1
    49    28    27    2
    50   128   126   ar
    51   127   126   ar
    52   126   125    1
    53   124   125    1
    54   124   121    1
    55   122   121    1
    56   122   123    2
    57    68    70   ar
    58    68    67   ar
    59    70    71   ar
    60   121   120    1
    61    67    66    1
    62    67    69   ar
    63    71    69   ar
    64    71    73   ar
    65    66    63    1
    66    84    85   ar
    67    84    82   ar
    68    69    72   ar
    69    73    75   ar
    70    85    83   ar
    71    42    36    1
    72    42    41    1
    73    82    81   ar
    74    72    74   ar
    75    75    74   ar
    76    83    81   ar
    77    36    37    1
    78    63    64    1
    79    63    62    1
    80    81    80    1
    81    65    64    2
    82    41    40    1
    83    89    88    2
    84    62    60   am
    85    80    77    1
    86    40    37    1
    87    88    87    1
    88    37    38    1
    89    87    86    1
    90    59    60    1
    91    59    58    1
    92    60    61    2
    93    76    77    1
    94    77    78    1
    95    38    39    2
    96    38    43   am
    97    58    56   am
    98    78    79    2
    99    57    56    2
   100    43    44    1
   101    56    55    1
   102    46    45    2
   103   208   207    1
   104   208   209    1
   105   114   112   ar
   106    95    94    1
   107    45    44    1
   108    45    54   am
   109   207   204    1
   110    44    47    1
   111   209   203    1
   112    55    54    1
   113   119   116    1
   114    94    91    1
   115   112   111    1
   116   112   113   ar
   117   110   109    2
   118   116   115    1
   119   116   117    1
   120   111   108    1
   121   118   117    2
   122   218   216   am
   123   109   115   am
   124   109   108    1
   125   217   216    2
   126    47    48    1
   127   216   215    1
   128   204   203    1
   129   204   205    1
   130   203   201   am
   131    50    48   ar
   132    50    52   ar
   133    90    91    1
   134    91    92    1
   135   108   107    1
   136   205   206    2
   137   205   210   am
   138   215   214    1
   139    48    49   ar
   140   214   211    1
   141   210   211    1
   142   211   212    1
   143   202   201    2
   144    52    53   ar
   145   201   200    1
   146    92    93    2
   147    49    51   ar
   148   107    98   am
   149    53    51   ar
   150   194   193    2
   151   219   212   am
   152   219   220    1
   153   212   213    2
   154   224   223    1
   155   200   199    1
   156   197   195    1
   157    99    98    2
   158   105   103   ar
   159   105   106   ar
   160   103   101   ar
   161    98    97    1
   162   193   199   am
   163   193   192    1
   164   221   220    1
   165   221   222    2
   166   220   223    1
   167   223   225    1
   168   106   104   ar
   169   101   100    1
   170   101   102   ar
   171   100    97    1
   172    97    96    1
   173   195   192    1
   174   195   196    1
   175   192   191    1
   176   198   196    1
   177   104   102   ar
   178   191   185   am
   179   176   174    1
   180   186   185    2
   181   150   148   am
   182   174   175    1
   183   174   171    1
   184   173   172    2
   185   185   184    1
   186   158   159    1
   187   170   171    1
   188   170   160   am
   189   159   160    1
   190   159   162    1
   191   164   166   ar
   192   164   163   ar
   193   166   168   ar
   194   171   172    1
   195   147   148    1
   196   147   144    1
   197   160   161    2
   198   172   177   am
   199   148   149    2
   200   162   163    1
   201   163   165   ar
   202   180   179    2
   203   184   183    1
   204   184   187    1
   205   168   169    1
   206   168   167   ar
   207   146   145    2
   208   179   183   am
   209   179   178    1
   210   156   155    1
   211   143   144    1
   212   177   178    1
   213   144   145    1
   214   178   181    1
   215   165   167   ar
   216   188   190   am
   217   188   187    1
   218   188   189    2
   219   155   157    1
   220   155   152    1
   221   181   182    1
   222   152   151    1
   223   152   153    1
   224   154   153    2
