@<TRIPOS>MOLECULE
tmp/3ogwA03.pdb
 163 162 0 0 0
SMALL
GASTEIGER

@<TRIPOS>ATOM
      1  N        -17.2060    1.9490   19.1610 N.3   105  GLN105     -0.1245
      2  CA       -18.1880    2.0440   20.2710 C.3   105  GLN105      0.1566
      3  C        -19.5720    1.6170   19.7940 C.2   105  GLN105      0.2260
      4  O        -20.3340    0.9590   20.5110 O.2   105  GLN105     -0.2867
      5  CB       -18.2470    3.4750   20.8550 C.3   105  GLN105      0.0367
      6  CG       -18.9940    3.5010   22.2070 C.3   105  GLN105      0.0905
      7  CD       -19.1400    4.8710   22.8490 C.2   105  GLN105      0.2608
      8  OE1      -19.2060    5.9030   22.1860 O.2   105  GLN105     -0.2717
      9  NE2      -19.2070    4.8690   24.1700 N.am  105  GLN105     -0.0878
     10  N        -19.5660   -2.1170   19.4650 N.3   108  ASP108     -0.1225
     11  CA       -19.5380   -2.6910   20.8300 C.3   108  ASP108      0.1805
     12  C        -20.9660   -2.7300   21.4570 C.2   108  ASP108      0.2597
     13  O        -21.3840   -3.7540   22.0370 O.2   108  ASP108     -0.2718
     14  CB       -18.6040   -1.8140   21.6660 C.3   108  ASP108      0.1424
     15  CG       -18.4550   -2.2950   23.0430 C.2   108  ASP108      0.3668
     16  OD1      -19.4130   -2.1360   23.8720 O.co2 108  ASP108     -0.2456
     17  OD2      -17.3460   -2.8220   23.2940 O.co2 108  ASP108     -0.2456
     18  N        -21.6780   -1.6110   21.3590 N.am  109  HIS109     -0.1975
     19  CA       -23.0190   -1.5060   21.9180 C.3   109  HIS109      0.1656
     20  C        -23.9340   -2.5410   21.2800 C.2   109  HIS109      0.2291
     21  O        -24.6580   -3.2580   21.9710 O.2   109  HIS109     -0.2864
     22  CB       -23.5820   -0.1000   21.7040 C.3   109  HIS109      0.0771
     23  CG       -23.0300    0.9220   22.6480 C.ar  109  HIS109      0.0820
     24  ND1      -23.4760    2.2250   22.6780 N.ar  109  HIS109     -0.2267
     25  CD2      -22.0680    0.8310   23.5970 C.ar  109  HIS109      0.1154
     26  CE1      -22.8120    2.8950   23.6040 C.ar  109  HIS109      0.1986
     27  NE2      -21.9520    2.0720   24.1760 N.ar  109  HIS109     -0.2212
     28  N        -23.8690   -5.6020   26.5030 N.3   113  PHE113     -0.1227
     29  CA       -24.1900   -4.7560   27.6630 C.3   113  PHE113      0.1736
     30  C        -24.4040   -5.6200   28.8990 C.2   113  PHE113      0.2595
     31  O        -25.3050   -6.4420   28.9520 O.2   113  PHE113     -0.2718
     32  CB       -25.4530   -3.9510   27.3650 C.3   113  PHE113      0.0547
     33  CG       -25.7680   -2.8810   28.3540 C.ar  113  PHE113     -0.0202
     34  CD1      -24.8090   -2.3900   29.2320 C.ar  113  PHE113     -0.0042
     35  CD2      -27.0560   -2.3410   28.3800 C.ar  113  PHE113     -0.0042
     36  CE1      -25.1270   -1.3970   30.1450 C.ar  113  PHE113     -0.0003
     37  CE2      -27.3720   -1.3140   29.2480 C.ar  113  PHE113     -0.0003
     38  CZ       -26.4060   -0.8440   30.1450 C.ar  113  PHE113     -0.0000
     39  N        -23.5210   -5.4610   29.8750 N.am  114  ALA114     -0.1966
     40  CA       -23.6620   -6.0710   31.1760 C.3   114  ALA114      0.1713
     41  C        -24.0670   -4.9830   32.2090 C.2   114  ALA114      0.2458
     42  O        -23.2180   -4.3790   32.8790 O.2   114  ALA114     -0.2730
     43  CB       -22.3680   -6.8340   31.5890 C.3   114  ALA114      0.0333
     44  N        -25.3740   -4.7380   32.3480 N.am  115  PRO115     -0.2716
     45  CA       -25.8860   -3.7420   33.3190 C.3   115  PRO115      0.1536
     46  C        -25.5410   -4.0530   34.7940 C.2   115  PRO115      0.2598
     47  O        -25.5130   -5.2220   35.2000 O.2   115  PRO115     -0.2715
     48  CB       -27.4170   -3.8310   33.1390 C.3   115  PRO115      0.0310
     49  CG       -27.6210   -4.4320   31.7890 C.3   115  PRO115      0.0237
     50  CD       -26.4730   -5.4150   31.6400 C.3   115  PRO115      0.0939
     51  N        -25.2430   -3.0010   35.5590 N.am  116  GLU116     -0.1978
     52  CA       -25.1100   -3.0860   37.0280 C.3   116  GLU116      0.1602
     53  C        -26.4120   -3.5640   37.6520 C.2   116  GLU116      0.2287
     54  O        -27.4890   -3.3010   37.1240 O.2   116  GLU116     -0.2864
     55  CB       -24.7040   -1.7430   37.6400 C.3   116  GLU116      0.0415
     56  CG       -23.2300   -1.3480   37.4200 C.3   116  GLU116      0.1163
     57  CD       -22.9260    0.1080   37.7860 C.2   116  GLU116      0.3649
     58  OE1      -23.8630    0.8150   38.2470 O.co2 116  GLU116     -0.2457
     59  OE2      -21.7460    0.5470   37.6280 O.co2 116  GLU116     -0.2457
     60  N        -29.8060    1.8640   25.7690 N.3   253  PHE253     -0.1227
     61  CA       -29.9230    2.8830   26.7920 C.3   253  PHE253      0.1736
     62  C        -28.6540    3.7180   26.9930 C.2   253  PHE253      0.2595
     63  O        -28.6580    4.6550   27.7860 O.2   253  PHE253     -0.2718
     64  CB       -30.5100    2.2190   28.0130 C.3   253  PHE253      0.0547
     65  CG       -31.9230    1.7080   27.9550 C.ar  253  PHE253     -0.0202
     66  CD1      -33.0040    2.5960   28.0370 C.ar  253  PHE253     -0.0042
     67  CD2      -32.1750    0.3420   27.8100 C.ar  253  PHE253     -0.0042
     68  CE1      -34.3200    2.1250   27.9740 C.ar  253  PHE253     -0.0003
     69  CE2      -33.4900   -0.1400   27.7510 C.ar  253  PHE253     -0.0003
     70  CZ       -34.5570    0.7570   27.8270 C.ar  253  PHE253     -0.0000
     71  N        -27.5630    3.4640   26.2420 N.am  254  ARG254     -0.1980
     72  CA       -26.2770    4.1370   26.4820 C.3   254  ARG254      0.1597
     73  C        -26.0700    5.2560   25.4960 C.2   254  ARG254      0.2287
     74  O        -25.0660    5.9240   25.5370 O.2   254  ARG254     -0.2864
     75  CB       -25.1080    3.1490   26.3450 C.3   254  ARG254      0.0334
     76  CG       -25.1210    2.1110   27.3790 C.3   254  ARG254      0.0492
     77  CD       -24.1770    0.9360   27.1490 C.3   254  ARG254      0.2205
     78  NE       -24.6540    0.0520   26.1090 N.pl3 254  ARG254     -0.0865
     79  CZ       -24.0780   -1.0830   25.7270 C.cat 254  ARG254      0.5346
     80  NH1      -22.9200   -1.5190   26.2790 N.pl3 254  ARG254      0.1354
     81  NH2      -24.6610   -1.7900   24.7730 N.pl3 254  ARG254      0.1354
     82  N        -26.7770    8.2480   24.8240 N.3   256  SER256     -0.1202
     83  CA       -26.4840    9.6550   25.1850 C.3   256  SER256      0.2020
     84  C        -25.2010    9.8030   26.0240 C.2   256  SER256      0.2618
     85  O        -24.8120   10.9180   26.3970 O.2   256  SER256     -0.2717
     86  CB       -27.6830   10.2170   25.9690 C.3   256  SER256      0.2103
     87  OG       -28.8340   10.1810   25.1280 O.3   256  SER256     -0.2182
     88  N        -24.4760    8.6670   26.2410 N.am  257  GLU257     -0.1979
     89  CA       -23.2770    8.7420   27.0950 C.3   257  GLU257      0.1602
     90  C        -22.2560    9.7990   26.6680 C.2   257  GLU257      0.2287
     91  O        -21.6100   10.4110   27.5190 O.2   257  GLU257     -0.2864
     92  CB       -22.5680    7.3860   27.1350 C.3   257  GLU257      0.0415
     93  CG       -21.3670    7.6510   28.0470 C.3   257  GLU257      0.1163
     94  CD       -20.0390    7.6550   27.3670 C.2   257  GLU257      0.3649
     95  OE1      -19.9640    7.6440   26.1210 O.co2 257  GLU257     -0.2457
     96  OE2      -19.0030    7.7400   28.0600 O.co2 257  GLU257     -0.2457
     97  N        -11.0720    2.5000   24.6680 N.3   350  HIS350     -0.1241
     98  CA       -10.8800    3.5780   25.6270 C.3   350  HIS350      0.1621
     99  C         -9.5570    4.3120   25.4870 C.2   350  HIS350      0.2264
    100  O         -9.4320    5.4680   25.9070 O.2   350  HIS350     -0.2867
    101  CB       -11.1150    3.1020   27.0710 C.3   350  HIS350      0.0745
    102  CG       -12.5030    2.5860   27.2860 C.ar  350  HIS350      0.0817
    103  ND1      -12.8330    1.6940   28.2810 N.ar  350  HIS350     -0.2268
    104  CD2      -13.6500    2.8280   26.5990 C.ar  350  HIS350      0.1154
    105  CE1      -14.1250    1.4300   28.2140 C.ar  350  HIS350      0.1986
    106  NE2      -14.6430    2.1030   27.1970 N.ar  350  HIS350     -0.2212
    107  N        -23.2700   12.6170   28.4450 N.3   380  PHE380     -0.1241
    108  CA       -24.7110   12.8210   28.6720 C.3   380  PHE380      0.1605
    109  C        -25.1790   14.2160   28.2140 C.2   380  PHE380      0.2264
    110  O        -26.1200   14.8060   28.7470 O.2   380  PHE380     -0.2867
    111  CB       -25.0170   12.5050   30.1170 C.3   380  PHE380      0.0534
    112  CG       -24.8470   11.0630   30.4220 C.ar  380  PHE380     -0.0203
    113  CD1      -25.7930   10.1310   29.9610 C.ar  380  PHE380     -0.0042
    114  CD2      -23.7110   10.6170   31.0680 C.ar  380  PHE380     -0.0042
    115  CE1      -25.6410    8.7830   30.2060 C.ar  380  PHE380     -0.0003
    116  CE2      -23.5290    9.2530   31.3120 C.ar  380  PHE380     -0.0003
    117  CZ       -24.4990    8.3310   30.8680 C.ar  380  PHE380     -0.0000
    118  N        -14.6060   11.3450   34.2250 N.3   420  LEU420     -0.1231
    119  CA       -15.7890   10.6300   33.7300 C.3   420  LEU420      0.1693
    120  C        -17.0550   10.9810   34.5400 C.2   420  LEU420      0.2592
    121  O        -17.0210   11.0230   35.7650 O.2   420  LEU420     -0.2718
    122  CB       -15.5640    9.1180   33.7210 C.3   420  LEU420      0.0284
    123  CG       -16.6360    8.2010   33.1360 C.3   420  LEU420      0.0019
    124  CD1      -16.6590    8.3050   31.5920 C.3   420  LEU420      0.0001
    125  CD2      -16.3260    6.7560   33.6010 C.3   420  LEU420      0.0001
    126  N        -18.1460   11.2340   33.8310 N.am  421  PHE421     -0.1962
    127  CA       -19.4640   11.4430   34.4660 C.3   421  PHE421      0.1771
    128  C        -20.3110   10.1690   34.3830 C.2   421  PHE421      0.2619
    129  O        -20.4530    9.5690   33.3080 O.2   421  PHE421     -0.2715
    130  CB       -20.1790   12.6450   33.8460 C.3   421  PHE421      0.0574
    131  CG       -21.5410   12.9590   34.4770 C.ar  421  PHE421     -0.0200
    132  CD1      -21.6420   13.8290   35.5740 C.ar  421  PHE421     -0.0042
    133  CD2      -22.7080   12.3900   33.9740 C.ar  421  PHE421     -0.0042
    134  CE1      -22.9020   14.1390   36.1460 C.ar  421  PHE421     -0.0003
    135  CE2      -23.9690   12.6780   34.5470 C.ar  421  PHE421     -0.0003
    136  CZ       -24.0520   13.5470   35.6280 C.ar  421  PHE421     -0.0000
    137  N        -20.8660    9.7730   35.5250 N.am  422  GLN422     -0.1964
    138  CA       -21.7820    8.6290   35.6200 C.3   422  GLN422      0.1718
    139  C        -23.1620    8.9970   36.2190 C.2   422  GLN422      0.2458
    140  O        -23.2290    9.7540   37.2020 O.2   422  GLN422     -0.2730
    141  CB       -21.1540    7.4940   36.4260 C.3   422  GLN422      0.0407
    142  CG       -19.8620    6.9720   35.8210 C.3   422  GLN422      0.0908
    143  CD       -19.8680    5.4780   35.7480 C.2   422  GLN422      0.2608
    144  OE1      -19.6480    4.8050   36.7410 O.2   422  GLN422     -0.2717
    145  NE2      -20.1310    4.9470   34.5660 N.am  422  GLN422     -0.0878
    146  N        -24.2690    8.4070   35.6580 N.am  423  PRO423     -0.2727
    147  CA       -25.6680    8.6120   36.1100 C.3   423  PRO423      0.1402
    148  C        -25.9530    8.3620   37.6120 C.2   423  PRO423      0.2269
    149  O        -25.4260    7.4060   38.2080 O.2   423  PRO423     -0.2865
    150  CB       -26.4470    7.5490   35.3700 C.3   423  PRO423      0.0296
    151  CG       -25.6360    7.3210   34.1060 C.3   423  PRO423      0.0237
    152  CD       -24.2070    7.5030   34.4900 C.3   423  PRO423      0.0939
    153  N        -14.0850   -3.9680   37.0450 N.3   439  ARG439     -0.1245
    154  CA       -15.0640   -4.7900   36.3770 C.3   439  ARG439      0.1563
    155  C        -14.4770   -6.1260   35.9440 C.2   439  ARG439      0.2260
    156  O        -15.1820   -7.1400   35.9970 O.2   439  ARG439     -0.2867
    157  CB       -15.6350   -4.0500   35.1430 C.3   439  ARG439      0.0307
    158  CG       -16.9030   -4.7140   34.5820 C.3   439  ARG439      0.0489
    159  CD       -18.1150   -4.5580   35.5480 C.3   439  ARG439      0.2205
    160  NE       -18.5650   -3.1490   35.6210 N.pl3 439  ARG439     -0.0865
    161  CZ       -19.3880   -2.7160   36.5880 C.cat 439  ARG439      0.5346
    162  NH1      -19.8080   -3.5740   37.4730 N.pl3 439  ARG439      0.1354
    163  NH2      -19.7900   -1.4430   36.6770 N.pl3 439  ARG439      0.1354
@<TRIPOS>BOND
     1     1     2    1
     2    10    11    1
     3     3     2    1
     4     3     4    2
     5     2     5    1
     6    11    12    1
     7    11    14    1
     8     5     6    1
     9    20    19    1
    10    20    21    2
    11    18    12   am
    12    18    19    1
    13    12    13    2
    14    14    15    1
    15    22    19    1
    16    22    23    1
    17     8     7    2
    18     6     7    1
    19    23    24   ar
    20    23    25   ar
    21    24    26   ar
    22     7     9   am
    23    15    17   ar
    24    15    16   ar
    25    25    27   ar
    26    26    27   ar
    27    97    98    1
    28    81    79    1
    29    82    83    1
    30    87    86    1
    31    83    86    1
    32    83    84    1
    33    99    98    1
    34    99   100    2
    35    73    74    2
    36    73    72    1
    37    98   101    1
    38    79    78    2
    39    79    80    1
    40    60    61    1
    41    84    88   am
    42    84    85    2
    43    78    77    1
    44    95    94   ar
    45    88    89    1
    46    71    72    1
    47    71    62   am
    48    75    72    1
    49    75    76    1
    50    28    29    1
    51   104   106   ar
    52   104   102   ar
    53    90    89    1
    54    90    91    2
    55    61    62    1
    56    61    64    1
    57    62    63    2
    58   101   102    1
    59    89    92    1
    60    92    93    1
    61    77    76    1
    62   106   105   ar
    63   102   103   ar
    64    32    29    1
    65    32    33    1
    66    94    93    1
    67    94    96   ar
    68    29    30    1
    69    69    67   ar
    70    69    70   ar
    71    67    65   ar
    72    70    68   ar
    73    65    64    1
    74    65    66   ar
    75    68    66   ar
    76   109   108    1
    77   109   110    2
    78   105   103   ar
    79    33    35   ar
    80    33    34   ar
    81    35    37   ar
    82   107   108    1
    83   108   111    1
    84    30    31    2
    85    30    39   am
    86    34    36   ar
    87    37    38   ar
    88    39    40    1
    89   113   115   ar
    90   113   112   ar
    91   111   112    1
    92    36    38   ar
    93   115   117   ar
    94   112   114   ar
    95   117   116   ar
    96   114   116   ar
    97    40    43    1
    98    40    41    1
    99   124   123    1
   100    50    49    1
   101    50    44    1
   102    49    48    1
   103    41    44   am
   104    41    42    2
   105    44    45    1
   106   123   125    1
   107   123   122    1
   108    48    45    1
   109   129   128    2
   110    45    46    1
   111   122   119    1
   112   119   118    1
   113   119   120    1
   114   126   127    1
   115   126   120   am
   116   130   127    1
   117   130   131    1
   118   133   131   ar
   119   133   135   ar
   120   151   152    1
   121   151   150    1
   122   128   127    1
   123   128   137   am
   124   131   132   ar
   125   152   146    1
   126   120   121    2
   127   135   136   ar
   128   145   143   am
   129   158   157    1
   130   158   159    1
   131    46    47    2
   132    46    51   am
   133   157   154    1
   134   150   147    1
   135   137   138    1
   136   159   160    1
   137    51    52    1
   138   132   134   ar
   139   138   139    1
   140   138   141    1
   141   160   161    2
   142   136   134   ar
   143   146   147    1
   144   146   139   am
   145   143   142    1
   146   143   144    2
   147   142   141    1
   148   155   156    2
   149   155   154    1
   150   147   148    1
   151   139   140    2
   152   154   153    1
   153   161   163    1
   154   161   162    1
   155    52    55    1
   156    52    53    1
   157    54    53    2
   158    56    55    1
   159    56    57    1
   160   148   149    2
   161    59    57   ar
   162    57    58   ar
