@<TRIPOS>MOLECULE
tmp/3ogwA05.pdb
 91 85 0 0 0
SMALL
GASTEIGER

@<TRIPOS>ATOM
      1  N        -41.0480  -18.3130   20.8410 N.3    14  LYS14      -0.1245
      2  CA       -41.9970  -18.3650   19.7070 C.3    14  LYS14       0.1561
      3  C        -41.2230  -18.2400   18.3790 C.2    14  LYS14       0.2260
      4  O        -40.9290  -17.1330   17.9010 O.2    14  LYS14      -0.2867
      5  CB       -43.1580  -17.3550   19.8860 C.3    14  LYS14       0.0271
      6  CG       -42.7390  -15.9150   20.2400 C.3    14  LYS14       0.0035
      7  CD       -43.7930  -15.1420   21.0580 C.3    14  LYS14       0.0206
      8  CE       -43.3130  -13.7140   21.3370 C.3    14  LYS14       0.1093
      9  NZ       -44.3850  -12.7890   21.8000 N.3    14  LYS14      -0.1314
     10  N        -35.0580  -11.4280   11.4180 N.3    22  ARG22      -0.1231
     11  CA       -34.6280  -11.7450   12.7880 C.3    22  ARG22       0.1694
     12  C        -35.7040  -11.4140   13.8060 C.2    22  ARG22       0.2593
     13  O        -36.4900  -10.4720   13.6130 O.2    22  ARG22      -0.2718
     14  CB       -33.3820  -10.9210   13.1430 C.3    22  ARG22       0.0321
     15  CG       -32.2210  -10.9140   12.1880 C.3    22  ARG22       0.0489
     16  CD       -31.1040  -10.0020   12.7930 C.3    22  ARG22       0.2205
     17  NE       -29.8920   -9.9120   12.0190 N.pl3  22  ARG22      -0.0865
     18  CZ       -28.8750  -10.7500   12.1220 C.cat  22  ARG22       0.5346
     19  NH1      -28.9290  -11.7400   12.9980 N.pl3  22  ARG22       0.1354
     20  NH2      -27.8180  -10.5880   11.3650 N.pl3  22  ARG22       0.1354
     21  N        -35.7630  -12.1490   14.9050 N.am   23  THR23      -0.1939
     22  CA       -36.5070  -11.6750   16.0620 C.3    23  THR23       0.2028
     23  C        -35.7820  -10.4150   16.6390 C.2    23  THR23       0.2642
     24  O        -34.6330  -10.1220   16.2790 O.2    23  THR23      -0.2714
     25  CB       -36.6080  -12.7260   17.1570 C.3    23  THR23       0.1808
     26  OG1      -35.3030  -13.0480   17.6340 O.3    23  THR23      -0.2208
     27  CG2      -37.3770  -14.0230   16.6900 C.3    23  THR23       0.0379
     28  N        -36.4610   -9.6760   17.5010 N.am   24  ILE24      -0.1963
     29  CA       -35.8270   -8.5760   18.2290 C.3    24  ILE24       0.1727
     30  C        -34.8830   -9.1280   19.3090 C.2    24  ILE24       0.2616
     31  O        -33.8460   -8.5570   19.5480 O.2    24  ILE24      -0.2715
     32  CB       -36.9020   -7.5750   18.7680 C.3    24  ILE24       0.0290
     33  CG1      -37.3330   -6.5930   17.6550 C.3    24  ILE24       0.0022
     34  CG2      -36.4870   -6.8430   20.0450 C.3    24  ILE24       0.0023
     35  CD1      -36.3100   -5.5690   17.2590 C.3    24  ILE24       0.0001
     36  N        -35.2130  -10.2640   19.9010 N.am   25  THR25      -0.1951
     37  CA       -34.4700  -10.7730   21.0680 C.3    25  THR25       0.1897
     38  C        -33.2210  -11.5940   20.6830 C.2    25  THR25       0.2313
     39  O        -32.3800  -11.8650   21.5220 O.2    25  THR25      -0.2863
     40  CB       -35.3660  -11.6060   21.9930 C.3    25  THR25       0.1794
     41  OG1      -35.9840  -12.6670   21.2330 O.3    25  THR25      -0.2208
     42  CG2      -36.4410  -10.7290   22.6240 C.3    25  THR25       0.0378
     43  N        -38.7840   -6.7000   22.8950 N.3   197  PRO197     -0.2116
     44  CA       -40.0680   -6.3650   22.2590 C.3   197  PRO197      0.1372
     45  C        -40.6730   -5.0560   22.7430 C.2   197  PRO197      0.2244
     46  O        -41.0920   -4.2190   21.9460 O.2   197  PRO197     -0.2868
     47  CB       -40.9570   -7.5250   22.7450 C.3   197  PRO197      0.0268
     48  CG       -39.9910   -8.6130   22.9170 C.3   197  PRO197      0.0207
     49  CD       -38.7520   -7.9150   23.4650 C.3   197  PRO197      0.0892
     50  N        -38.5850   -2.1690   21.8090 N.3   199  ALA199     -0.1231
     51  CA       -38.6590   -2.1420   20.3580 C.3   199  ALA199      0.1694
     52  C        -39.9650   -1.5200   19.8600 C.2   199  ALA199      0.2592
     53  O        -39.9640   -0.8360   18.8410 O.2   199  ALA199     -0.2718
     54  CB       -38.4740   -3.5370   19.7680 C.3   199  ALA199      0.0304
     55  N        -41.0770   -1.7510   20.5510 N.am  200  SER200     -0.1952
     56  CA       -42.3220   -1.1000   20.0850 C.3   200  SER200      0.1924
     57  C        -42.4590    0.3620   20.5630 C.2   200  SER200      0.2314
     58  O        -43.0500    1.1860   19.8710 O.2   200  SER200     -0.2863
     59  CB       -43.5800   -1.9260   20.3610 C.3   200  SER200      0.2116
     60  OG       -44.7200   -1.1830   19.9140 O.3   200  SER200     -0.2180
     61  N        -40.9840    2.7200   17.6580 N.3   203  ARG203     -0.1245
     62  CA       -41.3880    2.7170   16.2210 C.3   203  ARG203      0.1563
     63  C        -42.4800    3.7550   15.8980 C.2   203  ARG203      0.2260
     64  O        -43.2210    4.1560   16.7690 O.2   203  ARG203     -0.2867
     65  CB       -41.8920    1.3310   15.8110 C.3   203  ARG203      0.0307
     66  CG       -41.0590    0.1560   16.3000 C.3   203  ARG203      0.0489
     67  CD       -41.8960   -1.1080   16.2920 C.3   203  ARG203      0.2205
     68  NE       -42.5690   -1.2650   15.0080 N.pl3 203  ARG203     -0.0865
     69  CZ       -43.0900   -2.4090   14.5450 C.cat 203  ARG203      0.5346
     70  NH1      -43.0200   -3.5300   15.2630 N.pl3 203  ARG203      0.1354
     71  NH2      -43.6730   -2.4260   13.3440 N.pl3 203  ARG203      0.1354
     72  N        -39.2840   -3.9340    8.7690 N.3   293  GLN293     -0.1245
     73  CA       -38.4850   -5.1670    8.7300 C.3   293  GLN293      0.1566
     74  C        -37.4890   -5.1850    7.6060 C.2   293  GLN293      0.2260
     75  O        -36.3490   -5.5530    7.8230 O.2   293  GLN293     -0.2867
     76  CB       -39.3720   -6.4250    8.6890 C.3   293  GLN293      0.0367
     77  CG       -40.1250   -6.7200    9.9870 C.3   293  GLN293      0.0905
     78  CD       -39.2100   -6.9650   11.1870 C.2   293  GLN293      0.2608
     79  OE1      -37.9700   -6.9160   11.0700 O.2   293  GLN293     -0.2717
     80  NE2      -39.8130   -7.2160   12.3470 N.am  293  GLN293     -0.0878
     81  N        -34.9810   -2.3070    8.4140 N.3   296  ARG296     -0.1245
     82  CA       -34.1770   -2.8290    9.5280 C.3   296  ARG296      0.1563
     83  C        -33.1650   -3.8770    9.0900 C.2   296  ARG296      0.2260
     84  O        -32.0420   -3.8920    9.5780 O.2   296  ARG296     -0.2867
     85  CB       -35.0840   -3.3800   10.6040 C.3   296  ARG296      0.0307
     86  CG       -34.3710   -4.2050   11.6750 C.3   296  ARG296      0.0489
     87  CD       -35.3160   -4.7210   12.7440 C.3   296  ARG296      0.2205
     88  NE       -34.6370   -5.6360   13.6640 N.pl3 296  ARG296     -0.0865
     89  CZ       -35.0550   -6.8720   14.0000 C.cat 296  ARG296      0.5346
     90  NH1      -36.1920   -7.4110   13.5130 N.pl3 296  ARG296      0.1354
     91  NH2      -34.3260   -7.5920   14.8430 N.pl3 296  ARG296      0.1354
@<TRIPOS>BOND
     1    74    75    2
     2    74    73    1
     3    81    82    1
     4    76    73    1
     5    76    77    1
     6    73    72    1
     7    83    82    1
     8    83    84    2
     9    82    85    1
    10    77    78    1
    11    85    86    1
    12    79    78    2
    13    78    80   am
    14    20    18    1
    15    10    11    1
    16    86    87    1
    17    17    18    2
    18    17    16    1
    19    18    19    1
    20    15    16    1
    21    15    14    1
    22    87    88    1
    23    11    14    1
    24    11    12    1
    25    71    69    1
    26    90    89    1
    27    13    12    2
    28    88    89    2
    29    12    21   am
    30    89    91    1
    31    69    68    2
    32    69    70    1
    33    21    22    1
    34    68    67    1
    35    65    62    1
    36    65    66    1
    37    63    62    1
    38    63    64    2
    39    22    23    1
    40    22    25    1
    41    62    61    1
    42    24    23    2
    43    67    66    1
    44    23    28   am
    45    27    25    1
    46    25    26    1
    47    35    33    1
    48    28    29    1
    49    33    32    1
    50     4     3    2
    51    29    32    1
    52    29    30    1
    53     3     2    1
    54    32    34    1
    55    53    52    2
    56    30    31    2
    57    30    36   am
    58     2     5    1
    59     2     1    1
    60    54    51    1
    61    52    51    1
    62    52    55   am
    63    58    57    2
    64     5     6    1
    65    36    37    1
    66    60    59    1
    67    56    59    1
    68    56    55    1
    69    56    57    1
    70     6     7    1
    71    51    50    1
    72    38    37    1
    73    38    39    2
    74     7     8    1
    75    37    40    1
    76    41    40    1
    77     8     9    1
    78    46    45    2
    79    40    42    1
    80    44    45    1
    81    44    47    1
    82    44    43    1
    83    47    48    1
    84    43    49    1
    85    48    49    1
