@<TRIPOS>MOLECULE
tmp/3ogxC01.pdb
 113 111 0 0 0
SMALL
GASTEIGER

@<TRIPOS>ATOM
      1  N        -23.5070  -11.1810  -24.5770 N.3    24  GLU24      -0.1245
      2  CA       -24.5900  -11.9910  -24.0620 C.3    24  GLU24       0.1567
      3  C        -25.1120  -11.4170  -22.7630 C.2    24  GLU24       0.2260
      4  O        -24.3340  -11.0250  -21.8880 O.2    24  GLU24      -0.2867
      5  CB       -24.1600  -13.4320  -23.8570 C.3    24  GLU24       0.0388
      6  CG       -25.3780  -14.3430  -23.8050 C.3    24  GLU24       0.1160
      7  CD       -25.1650  -15.6500  -24.5080 C.2    24  GLU24       0.3649
      8  OE1      -24.6420  -15.6210  -25.6410 O.co2  24  GLU24      -0.2457
      9  OE2      -25.5350  -16.7000  -23.9420 O.co2  24  GLU24      -0.2457
     10  N         -6.6610  -17.2490  -22.7390 N.3    64  LEU64      -0.1231
     11  CA        -7.7580  -18.1390  -23.0600 C.3    64  LEU64       0.1693
     12  C         -8.6350  -17.5630  -24.1590 C.2    64  LEU64       0.2593
     13  O         -9.6810  -18.1150  -24.4650 O.2    64  LEU64      -0.2718
     14  CB        -8.5810  -18.4140  -21.8020 C.3    64  LEU64       0.0284
     15  CG        -7.7470  -18.8550  -20.5870 C.3    64  LEU64       0.0019
     16  CD1       -8.7090  -19.0790  -19.4430 C.3    64  LEU64       0.0001
     17  CD2       -6.9220  -20.1290  -20.8690 C.3    64  LEU64       0.0001
     18  N         -8.1990  -16.4500  -24.7420 N.am   65  GLY65      -0.1942
     19  CA        -8.9360  -15.8110  -25.8200 C.3    65  GLY65       0.2014
     20  C        -10.4070  -15.5150  -25.5930 C.2    65  GLY65       0.2639
     21  O        -11.2050  -15.5840  -26.5250 O.2    65  GLY65      -0.2714
     22  N        -10.7520  -15.1780  -24.3550 N.am   66  TRP66      -0.1959
     23  CA       -12.1180  -14.8490  -23.9600 C.3    66  TRP66       0.1771
     24  C        -12.4980  -13.3820  -24.2510 C.2    66  TRP66       0.2619
     25  O        -11.6250  -12.4920  -24.2600 O.2    66  TRP66      -0.2715
     26  CB       -12.2830  -15.1330  -22.4680 C.3    66  TRP66       0.0590
     27  CG       -12.4380  -16.5820  -22.1300 C.ar   66  TRP66       0.0006
     28  CD1      -12.3290  -17.6320  -22.9840 C.ar   66  TRP66       0.0946
     29  CD2      -12.8000  -17.1380  -20.8510 C.ar   66  TRP66       0.0152
     30  NE1      -12.6070  -18.8020  -22.3290 N.ar   66  TRP66      -0.2442
     31  CE2      -12.9000  -18.5300  -21.0180 C.ar   66  TRP66       0.0810
     32  CE3      -13.0550  -16.5920  -19.5840 C.ar   66  TRP66       0.0012
     33  CZ2      -13.2450  -19.3980  -19.9660 C.ar   66  TRP66       0.0191
     34  CZ3      -13.4020  -17.4560  -18.5290 C.ar   66  TRP66       0.0001
     35  CH2      -13.4920  -18.8430  -18.7330 C.ar   66  TRP66       0.0015
     36  N        -13.7970  -13.1370  -24.4760 N.am   67  CYS67      -0.1968
     37  CA       -14.3170  -11.7900  -24.7730 C.3    67  CYS67       0.1712
     38  C        -14.0670  -10.8190  -23.6140 C.2    67  CYS67       0.2296
     39  O        -14.0140   -9.6010  -23.8150 O.2    67  CYS67      -0.2864
     40  CB       -15.8210  -11.8380  -25.0720 C.3    67  CYS67       0.0983
     41  SG       -16.8430  -12.4840  -23.7130 S.3    67  CYS67      -0.0798
     42  N        -17.6460   -8.3600  -15.6300 N.3    85  ARG85      -0.1245
     43  CA       -18.6300   -8.2710  -16.6870 C.3    85  ARG85       0.1563
     44  C        -19.8380   -7.5340  -16.1920 C.2    85  ARG85       0.2260
     45  O        -20.7590   -7.2960  -16.9700 O.2    85  ARG85      -0.2867
     46  CB       -18.9800   -9.6720  -17.1780 C.3    85  ARG85       0.0307
     47  CG       -17.8000  -10.3680  -17.8420 C.3    85  ARG85       0.0489
     48  CD       -18.2210  -11.6450  -18.5410 C.3    85  ARG85       0.2205
     49  NE       -17.0660  -12.3130  -19.0980 N.pl3  85  ARG85      -0.0865
     50  CZ       -17.1740  -13.3540  -19.8990 C.cat  85  ARG85       0.5346
     51  NH1      -18.3840  -13.8110  -20.2080 N.pl3  85  ARG85       0.1354
     52  NH2      -16.0930  -13.9330  -20.3910 N.pl3  85  ARG85       0.1354
     53  N        -23.7410  -11.9650  -18.9460 N.3    90  LYS90      -0.1231
     54  CA       -23.4860  -13.3480  -18.5790 C.3    90  LYS90       0.1693
     55  C        -21.9870  -13.6210  -18.4050 C.2    90  LYS90       0.2593
     56  O        -21.1920  -13.4680  -19.3410 O.2    90  LYS90      -0.2718
     57  CB       -24.0880  -14.2750  -19.6460 C.3    90  LYS90       0.0285
     58  CG       -23.8000  -15.7390  -19.4030 C.3    90  LYS90       0.0035
     59  CD       -24.8390  -16.6350  -20.0580 C.3    90  LYS90       0.0206
     60  CE       -24.6070  -16.8050  -21.5480 C.3    90  LYS90       0.1093
     61  NZ       -23.3880  -17.6130  -21.8460 N.3    90  LYS90      -0.1314
     62  N        -21.6000  -14.0180  -17.2000 N.am   91  GLY91      -0.1942
     63  CA       -20.1960  -14.2920  -16.9430 C.3    91  GLY91       0.2014
     64  C        -19.7430  -15.6030  -17.5560 C.2    91  GLY91       0.2639
     65  O        -20.4960  -16.2260  -18.2920 O.2    91  GLY91      -0.2714
     66  N        -18.5110  -16.0130  -17.2750 N.am   92  ALA92      -0.1963
     67  CA       -17.9620  -17.2760  -17.7660 C.3    92  ALA92       0.1728
     68  C        -17.1210  -17.7670  -16.5920 C.2    92  ALA92       0.2616
     69  O        -15.8830  -17.6780  -16.6000 O.2    92  ALA92      -0.2715
     70  CB       -17.0990  -17.0320  -18.9870 C.3    92  ALA92       0.0334
     71  N        -17.8020  -18.2920  -15.5760 N.am   93  HIS93      -0.1959
     72  CA       -17.1280  -18.7220  -14.3620 C.3    93  HIS93       0.1787
     73  C        -17.5700  -20.0440  -13.7440 C.2    93  HIS93       0.2620
     74  O        -16.8820  -20.5740  -12.8580 O.2    93  HIS93      -0.2715
     75  CB       -17.3040  -17.6190  -13.3390 C.3    93  HIS93       0.0785
     76  CG       -18.7180  -17.1600  -13.2240 C.ar   93  HIS93       0.0821
     77  ND1      -19.6350  -17.7900  -12.4210 N.ar   93  HIS93      -0.2267
     78  CD2      -19.4000  -16.2170  -13.9140 C.ar   93  HIS93       0.1154
     79  CE1      -20.8310  -17.2580  -12.6240 C.ar   93  HIS93       0.1986
     80  NE2      -20.7130  -16.3050  -13.5250 N.ar   93  HIS93      -0.2212
     81  N        -18.7050  -20.5800  -14.1790 N.am   94  ALA94      -0.1963
     82  CA       -19.1650  -21.8310  -13.6090 C.3    94  ALA94       0.1728
     83  C        -19.8550  -22.7670  -14.6050 C.2    94  ALA94       0.2617
     84  O        -20.7440  -23.5340  -14.2290 O.2    94  ALA94      -0.2715
     85  CB       -20.0720  -21.5390  -12.4420 C.3    94  ALA94       0.0334
     86  N        -19.4510  -22.7200  -15.8690 N.am   95  GLY95      -0.1941
     87  CA       -20.0570  -23.6050  -16.8530 C.3    95  GLY95       0.1998
     88  C        -21.3430  -23.1550  -17.5240 C.2    95  GLY95       0.2480
     89  O        -21.9460  -22.1420  -17.1320 O.2    95  GLY95      -0.2729
     90  N        -21.8100  -23.9190  -18.5330 N.am   96  PRO96      -0.2726
     91  CA       -23.0180  -23.6830  -19.3410 C.3    96  PRO96       0.1402
     92  C        -24.3390  -23.7750  -18.6120 C.2    96  PRO96       0.2269
     93  O        -25.3490  -23.2660  -19.0950 O.2    96  PRO96      -0.2865
     94  CB       -22.9550  -24.7530  -20.4460 C.3    96  PRO96       0.0296
     95  CG       -21.6290  -25.4920  -20.2530 C.3    96  PRO96       0.0237
     96  CD       -21.2060  -25.2300  -18.8380 C.3    96  PRO96       0.0939
     97  N        -23.6190  -20.4850  -15.6310 N.3    99  ASN99      -0.1240
     98  CA       -23.2350  -19.1860  -16.1310 C.3    99  ASN99       0.1653
     99  C        -24.4190  -18.3180  -16.5190 C.2    99  ASN99       0.2266
    100  O        -24.4880  -17.1500  -16.1660 O.2    99  ASN99      -0.2867
    101  CB       -22.2850  -19.3270  -17.3150 C.3    99  ASN99       0.1155
    102  CG       -20.8360  -19.5160  -16.8790 C.2    99  ASN99       0.2627
    103  OD1      -20.4470  -19.1580  -15.7620 O.2    99  ASN99      -0.2716
    104  ND2      -20.0280  -20.0720  -17.7650 N.am   99  ASN99      -0.0877
    105  N        -19.0450  -27.2400   -9.9190 N.3   150  GLN150     -0.1245
    106  CA       -18.0260  -27.6710  -10.8570 C.3   150  GLN150      0.1566
    107  C        -16.9060  -28.3030  -10.0540 C.2   150  GLN150      0.2260
    108  O        -16.6820  -27.9410   -8.9000 O.2   150  GLN150     -0.2867
    109  CB       -17.4840  -26.4730  -11.6250 C.3   150  GLN150      0.0367
    110  CG       -18.4780  -25.8110  -12.5330 C.3   150  GLN150      0.0905
    111  CD       -17.8410  -25.4410  -13.8470 C.2   150  GLN150      0.2608
    112  OE1      -17.0100  -24.5240  -13.9300 O.2   150  GLN150     -0.2717
    113  NE2      -18.2010  -26.1740  -14.8890 N.am  150  GLN150     -0.0878
@<TRIPOS>BOND
     1    21    20    2
     2    19    20    1
     3    19    18    1
     4     8     7   ar
     5    20    22   am
     6    40    37    1
     7    40    41    1
     8    37    36    1
     9    37    38    1
    10    18    12   am
    11     1     2    1
    12     7     9   ar
    13     7     6    1
    14    36    24   am
    15    13    12    2
    16    22    23    1
    17    25    24    2
    18    24    23    1
    19    12    11    1
    20     2     5    1
    21     2     3    1
    22    23    26    1
    23     5     6    1
    24    39    38    2
    25    11    10    1
    26    11    14    1
    27    28    30   ar
    28    28    27   ar
    29     3     4    2
    30    26    27    1
    31    30    31   ar
    32    27    29   ar
    33    61    60    1
    34    14    15    1
    35    60    59    1
    36    31    29   ar
    37    31    33   ar
    38    17    15    1
    39    29    32   ar
    40    15    16    1
    41    94    95    1
    42    94    91    1
    43    52    50    1
    44    95    96    1
    45    51    50    1
    46    59    58    1
    47    33    35   ar
    48    50    49    2
    49    57    58    1
    50    57    54    1
    51    32    34   ar
    52    56    55    2
    53    91    92    1
    54    91    90    1
    55    49    48    1
    56    93    92    2
    57    70    67    1
    58    53    54    1
    59    96    90    1
    60    35    34   ar
    61    54    55    1
    62    48    47    1
    63    90    88   am
    64    55    62   am
    65    65    64    2
    66    47    46    1
    67    67    66    1
    68    67    68    1
    69   104   102   am
    70    64    66   am
    71    64    63    1
    72    88    89    2
    73    88    87    1
    74   101   102    1
    75   101    98    1
    76    62    63    1
    77    46    43    1
    78    45    44    2
    79   102   103    2
    80    87    86    1
    81    43    44    1
    82    43    42    1
    83    69    68    2
    84    68    71   am
    85    99   100    2
    86    99    98    1
    87    98    97    1
    88    86    83   am
    89    71    72    1
    90   113   111   am
    91    83    84    2
    92    83    82    1
    93    72    73    1
    94    72    75    1
    95    81    73   am
    96    81    82    1
    97   112   111    2
    98    78    80   ar
    99    78    76   ar
   100   111   110    1
   101    73    74    2
   102    82    85    1
   103    80    79   ar
   104    75    76    1
   105    76    77   ar
   106    79    77   ar
   107   110   109    1
   108   109   106    1
   109   106   107    1
   110   106   105    1
   111   107   108    2
