@<TRIPOS>MOLECULE
tmp/3oh0A00.pdb
 103 97 0 0 0
SMALL
GASTEIGER

@<TRIPOS>ATOM
      1  N         10.0200    2.4920   33.5720 N.3   118  VAL118     -0.1231
      2  CA         9.8230    3.9280   33.6530 C.3   118  VAL118      0.1692
      3  C          8.6720    4.3280   32.7170 C.2   118  VAL118      0.2592
      4  O          8.8030    4.2620   31.5020 O.2   118  VAL118     -0.2718
      5  CB        11.1550    4.6510   33.3160 C.3   118  VAL118      0.0266
      6  CG1       10.9130    6.0430   32.8370 C.3   118  VAL118      0.0020
      7  CG2       12.0710    4.6520   34.5380 C.3   118  VAL118      0.0020
      8  N          7.5290    4.7060   33.2800 N.am  119  ALA119     -0.1966
      9  CA         6.3320    4.9070   32.4580 C.3   119  ALA119      0.1728
     10  C          5.4860    6.1340   32.8310 C.2   119  ALA119      0.2617
     11  O          4.3080    6.0090   33.1850 O.2   119  ALA119     -0.2715
     12  CB         5.4790    3.6520   32.4640 C.3   119  ALA119      0.0334
     13  N          6.0820    7.3170   32.7240 N.am  120  GLY120     -0.1940
     14  CA         5.3790    8.5470   33.0360 C.3   120  GLY120      0.2014
     15  C          4.9700    9.3980   31.8410 C.2   120  GLY120      0.2639
     16  O          4.9030   10.6150   31.9690 O.2   120  GLY120     -0.2714
     17  N          4.6760    8.7790   30.6940 N.am  121  GLY121     -0.1939
     18  CA         4.3060    9.5330   29.5020 C.3   121  GLY121      0.2014
     19  C          3.1030    9.0580   28.6890 C.2   121  GLY121      0.2638
     20  O          2.8350    7.8660   28.5600 O.2   121  GLY121     -0.2714
     21  N          2.3660   10.0100   28.1260 N.am  122  LEU122     -0.1977
     22  CA         1.3170    9.6840   27.1650 C.3   122  LEU122      0.1596
     23  C          1.9340    9.6320   25.7750 C.2   122  LEU122      0.2287
     24  O          3.0270   10.1520   25.5620 O.2   122  LEU122     -0.2864
     25  CB         0.1980   10.7280   27.1930 C.3   122  LEU122      0.0297
     26  CG        -0.4130   11.0000   28.5620 C.3   122  LEU122      0.0022
     27  CD1       -1.5910   11.9760   28.4590 C.3   122  LEU122      0.0001
     28  CD2       -0.8380    9.6870   29.1920 C.3   122  LEU122      0.0001
     29  N          2.4390   12.8600   21.4870 N.3   125  ARG125     -0.1245
     30  CA         3.3630   13.2260   20.4230 C.3   125  ARG125      0.1563
     31  C          3.2810   12.2410   19.2550 C.2   125  ARG125      0.2260
     32  O          3.6020   12.5870   18.1170 O.2   125  ARG125     -0.2867
     33  CB         4.7920   13.3120   20.9680 C.3   125  ARG125      0.0307
     34  CG         5.7950   13.8980   19.9920 C.3   125  ARG125      0.0489
     35  CD         6.5160   12.8150   19.2110 C.3   125  ARG125      0.2205
     36  NE         7.7760   12.4390   19.8440 N.pl3 125  ARG125     -0.0865
     37  CZ         8.9500   12.9950   19.5590 C.cat 125  ARG125      0.5346
     38  NH1       10.0490   12.5920   20.1840 N.pl3 125  ARG125      0.1354
     39  NH2        9.0260   13.9560   18.6470 N.pl3 125  ARG125      0.1354
     40  N          1.4850    5.2490   27.0840 N.3   132  LYS132     -0.1245
     41  CA         2.2830    4.5350   26.1140 C.3   132  LYS132      0.1561
     42  C          2.3420    3.0270   26.3610 C.2   132  LYS132      0.2260
     43  O          2.3850    2.2560   25.4100 O.2   132  LYS132     -0.2867
     44  CB         3.6670    5.1690   25.9950 C.3   132  LYS132      0.0271
     45  CG         3.5840    6.5620   25.3640 C.3   132  LYS132      0.0035
     46  CD         4.9170    7.0650   24.8670 C.3   132  LYS132      0.0206
     47  CE         5.5560    6.1270   23.8640 C.3   132  LYS132      0.1093
     48  NZ         6.9080    6.6270   23.4560 N.3   132  LYS132     -0.1314
     49  N          7.3900    3.1860   37.4650 N.3   166  MET166     -0.1245
     50  CA         7.3010    4.5960   37.8060 C.3   166  MET166      0.1570
     51  C          6.2610    5.2440   36.9130 C.2   166  MET166      0.2261
     52  O          6.3410    5.1600   35.6890 O.2   166  MET166     -0.2867
     53  CB         8.6370    5.3170   37.6390 C.3   166  MET166      0.0387
     54  CG         8.5490    6.7770   38.0770 C.3   166  MET166      0.0595
     55  SD        10.0900    7.7120   37.9650 S.3   166  MET166     -0.1393
     56  CE        10.2920    7.7760   36.1930 C.3   166  MET166      0.0692
     57  N          5.8720    9.7110   40.3660 N.3   194  GLN194     -0.1245
     58  CA         6.7440   10.8700   40.4950 C.3   194  GLN194      0.1566
     59  C          5.9080   12.1340   40.6330 C.2   194  GLN194      0.2260
     60  O          4.8070   12.2220   40.0920 O.2   194  GLN194     -0.2867
     61  CB         7.7060   10.9710   39.3080 C.3   194  GLN194      0.0367
     62  CG         7.0440   11.2330   37.9770 C.3   194  GLN194      0.0905
     63  CD         8.0010   11.0600   36.8070 C.2   194  GLN194      0.2608
     64  OE1        7.7360   10.2870   35.8850 O.2   194  GLN194     -0.2717
     65  NE2        9.1080   11.7920   36.8310 N.am  194  GLN194     -0.0878
     66  N          6.8230   17.9610   34.6560 N.3   219  PRO219     -0.2116
     67  CA         7.6000   16.7890   35.0770 C.3   219  PRO219      0.1372
     68  C          9.0620   17.1110   35.3820 C.2   219  PRO219      0.2244
     69  O          9.6610   17.9600   34.7220 O.2   219  PRO219     -0.2868
     70  CB         7.5130   15.8570   33.8630 C.3   219  PRO219      0.0268
     71  CG         6.2560   16.2630   33.1630 C.3   219  PRO219      0.0207
     72  CD         6.1980   17.7600   33.3380 C.3   219  PRO219      0.0892
     73  N         11.3630   14.7860   35.1890 N.3   221  GLY221     -0.1210
     74  CA        12.1490   13.8450   34.4060 C.3   221  GLY221      0.1956
     75  C         12.3050   12.4710   35.0400 C.2   221  GLY221      0.2611
     76  O         12.0110   12.2850   36.2220 O.2   221  GLY221     -0.2717
     77  N         12.7870   11.5110   34.2570 N.am  222  HIS222     -0.1975
     78  CA        12.8660   10.1270   34.7180 C.3   222  HIS222      0.1656
     79  C         13.9310    9.9030   35.7960 C.2   222  HIS222      0.2291
     80  O         13.9840    8.8370   36.4010 O.2   222  HIS222     -0.2864
     81  CB        13.0180    9.1330   33.5460 C.3   222  HIS222      0.0771
     82  CG        14.0870    9.4950   32.5580 C.ar  222  HIS222      0.0820
     83  ND1       15.4050    9.6850   32.9160 N.ar  222  HIS222     -0.2267
     84  CD2       14.0340    9.6810   31.2170 C.ar  222  HIS222      0.1154
     85  CE1       16.1150    9.9830   31.8420 C.ar  222  HIS222      0.1986
     86  NE2       15.3070    9.9920   30.7980 N.ar  222  HIS222     -0.2212
     87  N         12.6890    1.3230   29.2110 N.3   254  GLN254     -0.1231
     88  CA        11.8030    2.3630   28.6980 C.3   254  GLN254      0.1698
     89  C         10.4480    1.7690   28.3650 C.2   254  GLN254      0.2592
     90  O         10.2840    0.5450   28.3550 O.2   254  GLN254     -0.2718
     91  CB        12.3840    2.9830   27.4270 C.3   254  GLN254      0.0381
     92  CG        13.7920    3.5400   27.5710 C.3   254  GLN254      0.0905
     93  CD        13.8460    4.7820   28.4280 C.2   254  GLN254      0.2608
     94  OE1       14.2620    5.8530   27.9750 O.2   254  GLN254     -0.2717
     95  NE2       13.4380    4.6460   29.6780 N.am  254  GLN254     -0.0878
     96  N          9.4860    2.6320   28.0510 N.am  255  ASP255     -0.1974
     97  CA         8.1020    2.1830   27.9470 C.3   255  ASP255      0.1709
     98  C          7.6950    1.5070   26.6300 C.2   255  ASP255      0.2293
     99  O          6.7340    0.7440   26.6150 O.2   255  ASP255     -0.2864
    100  CB         7.1080    3.2890   28.3470 C.3   255  ASP255      0.1436
    101  CG         7.3310    4.5910   27.6000 C.2   255  ASP255      0.3671
    102  OD1        6.7730    5.6150   28.0480 O.co2 255  ASP255     -0.2456
    103  OD2        8.0520    4.6030   26.5800 O.co2 255  ASP255     -0.2456
@<TRIPOS>BOND
     1    32    31    2
     2    39    37    1
     3    35    36    1
     4    35    34    1
     5    31    30    1
     6    37    36    2
     7    37    38    1
     8    34    33    1
     9    30    33    1
    10    30    29    1
    11    48    47    1
    12    47    46    1
    13    46    45    1
    14    45    44    1
    15    43    42    2
    16    24    23    2
    17    23    22    1
    18    44    41    1
    19    41    42    1
    20    41    40    1
    21   103   101   ar
    22    99    98    2
    23    98    97    1
    24    22    25    1
    25    22    21    1
    26    25    26    1
    27    91    92    1
    28    91    88    1
    29    92    93    1
    30   101   102   ar
    31   101   100    1
    32    97    96    1
    33    97   100    1
    34    94    93    2
    35    96    89   am
    36    21    19   am
    37    90    89    2
    38    89    88    1
    39    93    95   am
    40    27    26    1
    41    20    19    2
    42    26    28    1
    43    19    18    1
    44    88    87    1
    45    18    17    1
    46    17    15   am
    47    86    84   ar
    48    86    85   ar
    49    84    82   ar
    50     4     3    2
    51    15    16    2
    52    15    14    1
    53    85    83   ar
    54     9    12    1
    55     9    10    1
    56     9     8    1
    57    82    83   ar
    58    82    81    1
    59     3     8   am
    60     3     2    1
    61    13    10   am
    62    13    14    1
    63    10    11    2
    64     6     5    1
    65    71    72    1
    66    71    70    1
    67     5     2    1
    68     5     7    1
    69    72    66    1
    70    81    78    1
    71     1     2    1
    72    70    67    1
    73    77    78    1
    74    77    75   am
    75    74    75    1
    76    74    73    1
    77    66    67    1
    78    78    79    1
    79    69    68    2
    80    75    76    2
    81    67    68    1
    82    52    51    2
    83    79    80    2
    84    64    63    2
    85    56    55    1
    86    63    65   am
    87    63    62    1
    88    51    50    1
    89    49    50    1
    90    53    50    1
    91    53    54    1
    92    55    54    1
    93    62    61    1
    94    61    58    1
    95    60    59    2
    96    57    58    1
    97    58    59    1
