@<TRIPOS>MOLECULE
tmp/3oh4A00.pdb
 224 211 0 0 0
SMALL
GASTEIGER

@<TRIPOS>ATOM
      1  N          9.9130    2.6660   34.0460 N.3   118  VAL118     -0.1231
      2  CA         9.5400    4.0640   34.1470 C.3   118  VAL118      0.1692
      3  C          8.4540    4.4010   33.1340 C.2   118  VAL118      0.2592
      4  O          8.6730    4.3720   31.9170 O.2   118  VAL118     -0.2718
      5  CB        10.7640    5.0220   34.0800 C.3   118  VAL118      0.0266
      6  CG1       11.6580    4.7990   35.3040 C.3   118  VAL118      0.0020
      7  CG2       11.5500    4.8480   32.7850 C.3   118  VAL118      0.0020
      8  N          7.2700    4.6910   33.6590 N.am  119  ALA119     -0.1966
      9  CA         6.0900    4.8920   32.8360 C.3   119  ALA119      0.1728
     10  C          5.3010    6.0940   33.3360 C.2   119  ALA119      0.2617
     11  O          4.0760    6.0380   33.4770 O.2   119  ALA119     -0.2715
     12  CB         5.2320    3.6470   32.8480 C.3   119  ALA119      0.0334
     13  N          6.0250    7.1790   33.6100 N.am  120  GLY120     -0.1940
     14  CA         5.4280    8.4120   34.0850 C.3   120  GLY120      0.2014
     15  C          5.2670    9.4260   32.9660 C.2   120  GLY120      0.2639
     16  O          4.5370   10.4000   33.1060 O.2   120  GLY120     -0.2714
     17  N          5.9400    9.1840   31.8440 N.am  121  GLY121     -0.1954
     18  CA         5.9770   10.1430   30.7560 C.3   121  GLY121      0.1869
     19  C          4.7420   10.1410   29.8780 C.2   121  GLY121      0.2309
     20  O          4.0830    9.1130   29.7030 O.2   121  GLY121     -0.2863
     21  N          4.8690   11.2620   26.6020 N.3   123  GLY123     -0.1225
     22  CA         5.2440   11.0870   25.2100 C.3   123  GLY123      0.1811
     23  C          4.4290   12.0210   24.3320 C.2   123  GLY123      0.2280
     24  O          3.5630   11.5890   23.5680 O.2   123  GLY123     -0.2866
     25  N          4.7560   13.4730   21.6470 N.3   125  ARG125     -0.1245
     26  CA         4.8360   13.4420   20.1910 C.3   125  ARG125      0.1563
     27  C          3.8090   12.5600   19.4730 C.2   125  ARG125      0.2260
     28  O          3.3840   12.8770   18.3600 O.2   125  ARG125     -0.2867
     29  CB         6.2550   13.0540   19.7700 C.3   125  ARG125      0.0307
     30  CG         7.3140   13.8820   20.4700 C.3   125  ARG125      0.0489
     31  CD         8.5830   14.0050   19.6500 C.3   125  ARG125      0.2205
     32  NE         9.3470   12.7630   19.6180 N.pl3 125  ARG125     -0.0865
     33  CZ         9.9660   12.2410   20.6730 C.cat 125  ARG125      0.5346
     34  NH1        9.8950   12.8460   21.8520 N.pl3 125  ARG125      0.1354
     35  NH2       10.6470   11.1090   20.5530 N.pl3 125  ARG125      0.1354
     36  N          1.2190    5.4050   27.2520 N.3   132  LYS132     -0.1245
     37  CA         2.1520    4.7000   26.3890 C.3   132  LYS132      0.1561
     38  C          2.1450    3.1870   26.6030 C.2   132  LYS132      0.2260
     39  O          2.2130    2.4320   25.6320 O.2   132  LYS132     -0.2867
     40  CB         3.5650    5.2610   26.5710 C.3   132  LYS132      0.0271
     41  CG         3.8140    6.6130   25.9000 C.3   132  LYS132      0.0035
     42  CD         4.4340    6.4490   24.5160 C.3   132  LYS132      0.0206
     43  CE         5.6060    7.3990   24.2980 C.3   132  LYS132      0.1093
     44  NZ         6.9380    6.7170   24.3090 N.3   132  LYS132     -0.1314
     45  N          7.0280    3.0960   37.9030 N.3   166  MET166     -0.1245
     46  CA         6.8970    4.5010   38.2490 C.3   166  MET166      0.1570
     47  C          5.8310    5.1560   37.3870 C.2   166  MET166      0.2261
     48  O          5.8970    5.1220   36.1590 O.2   166  MET166     -0.2867
     49  CB         8.2220    5.2600   38.1050 C.3   166  MET166      0.0387
     50  CG         8.0910    6.7370   38.5180 C.3   166  MET166      0.0595
     51  SD         9.6260    7.6920   38.6850 S.3   166  MET166     -0.1393
     52  CE        10.0400    7.9770   36.9600 C.3   166  MET166      0.0692
     53  N          5.5690    9.5360   40.9150 N.3   194  GLN194     -0.1245
     54  CA         6.4060   10.7220   41.0510 C.3   194  GLN194      0.1566
     55  C          5.5330   11.9620   41.2230 C.2   194  GLN194      0.2260
     56  O          4.4300   12.0390   40.6810 O.2   194  GLN194     -0.2867
     57  CB         7.3460   10.8740   39.8500 C.3   194  GLN194      0.0367
     58  CG         6.6400   11.0310   38.5170 C.3   194  GLN194      0.0905
     59  CD         7.5930   10.9450   37.3410 C.2   194  GLN194      0.2608
     60  OE1        7.3660   10.1870   36.4030 O.2   194  GLN194     -0.2717
     61  NE2        8.6630   11.7260   37.3850 N.am  194  GLN194     -0.0878
     62  N          6.2400   17.5390   35.4730 N.3   219  PRO219     -0.2116
     63  CA         7.0260   16.4020   35.9670 C.3   219  PRO219      0.1372
     64  C          8.5100   16.7370   36.0920 C.2   219  PRO219      0.2244
     65  O          9.0180   17.5970   35.3720 O.2   219  PRO219     -0.2868
     66  CB         6.8070   15.3290   34.8880 C.3   219  PRO219      0.0268
     67  CG         5.5650   15.7450   34.1710 C.3   219  PRO219      0.0207
     68  CD         5.6010   17.2420   34.1800 C.3   219  PRO219      0.0892
     69  N         10.9540   14.5360   35.6510 N.3   221  GLY221     -0.1210
     70  CA        11.7410   13.6530   34.8040 C.3   221  GLY221      0.1956
     71  C         11.8260   12.2220   35.3060 C.2   221  GLY221      0.2611
     72  O         11.3680   11.9170   36.4030 O.2   221  GLY221     -0.2717
     73  N         12.4100   11.3340   34.5060 N.am  222  HIS222     -0.1975
     74  CA        12.5050    9.9380   34.9050 C.3   222  HIS222      0.1656
     75  C         13.5760    9.7370   35.9820 C.2   222  HIS222      0.2291
     76  O         13.7380    8.6400   36.5160 O.2   222  HIS222     -0.2864
     77  CB        12.6800    8.9840   33.7020 C.3   222  HIS222      0.0771
     78  CG        13.6520    9.4610   32.6610 C.ar  222  HIS222      0.0820
     79  ND1       15.0160    9.3740   32.8210 N.ar  222  HIS222     -0.2267
     80  CD2       13.4480    9.9950   31.4340 C.ar  222  HIS222      0.1154
     81  CE1       15.6160    9.8500   31.7430 C.ar  222  HIS222      0.1986
     82  NE2       14.6850   10.2330   30.8850 N.ar  222  HIS222     -0.2212
     83  N         12.3410    1.3340   29.8270 N.3   254  GLN254     -0.1231
     84  CA        11.4320    2.3930   29.4290 C.3   254  GLN254      0.1698
     85  C         10.1540    1.8280   28.7930 C.2   254  GLN254      0.2592
     86  O         10.0340    0.6140   28.5750 O.2   254  GLN254     -0.2718
     87  CB        12.1570    3.4050   28.5270 C.3   254  GLN254      0.0381
     88  CG        13.4300    3.9360   29.2090 C.3   254  GLN254      0.0905
     89  CD        13.9820    5.2160   28.6010 C.2   254  GLN254      0.2608
     90  OE1       14.4680    6.0930   29.3220 O.2   254  GLN254     -0.2717
     91  NE2       13.9330    5.3230   27.2710 N.am  254  GLN254     -0.0878
     92  N          9.2080    2.7150   28.5030 N.am  255  ASP255     -0.1974
     93  CA         7.8230    2.3170   28.3060 C.3   255  ASP255      0.1709
     94  C          7.4360    1.6410   26.9680 C.2   255  ASP255      0.2293
     95  O          6.4390    0.9270   26.9200 O.2   255  ASP255     -0.2864
     96  CB         6.8790    3.4930   28.6220 C.3   255  ASP255      0.1436
     97  CG         7.1880    4.7520   27.8020 C.2   255  ASP255      0.3671
     98  OD1        7.9700    4.6880   26.8250 O.co2 255  ASP255     -0.2456
     99  OD2        6.6250    5.8160   28.1350 O.co2 255  ASP255     -0.2456
    100  N         18.0430   11.2110   18.4110 N.3   290  PRO290     -0.2102
    101  CA        17.6260   11.6960   19.7280 C.3   290  PRO290      0.1504
    102  C         17.8650   10.6330   20.7970 C.2   290  PRO290      0.2576
    103  O         16.9710   10.3200   21.5850 O.2   290  PRO290     -0.2718
    104  CB        16.1160   11.9270   19.5600 C.3   290  PRO290      0.0282
    105  CG        15.8250   11.7330   18.0890 C.3   290  PRO290      0.0208
    106  CD        16.8880   10.8180   17.5920 C.3   290  PRO290      0.0893
    107  N         19.0630   10.0630   20.7980 N.am  291  ILE291     -0.1966
    108  CA        19.4960    9.2020   21.8850 C.3   291  ILE291      0.1727
    109  C         20.8280    9.7320   22.3950 C.2   291  ILE291      0.2616
    110  O         21.6130   10.2930   21.6280 O.2   291  ILE291     -0.2715
    111  CB        19.6480    7.7340   21.4410 C.3   291  ILE291      0.0290
    112  CG1       20.8120    7.5850   20.4620 C.3   291  ILE291      0.0022
    113  CG2       18.3530    7.2240   20.8160 C.3   291  ILE291      0.0023
    114  CD1       21.0500    6.1580   20.0210 C.3   291  ILE291      0.0001
    115  N         21.0720    9.5730   23.6920 N.am  292  GLY292     -0.1955
    116  CA        22.2970   10.0560   24.3000 C.3   292  GLY292      0.1869
    117  C         23.5120    9.2420   23.9070 C.2   292  GLY292      0.2309
    118  O         23.3940    8.1810   23.2940 O.2   292  GLY292     -0.2863
    119  N         26.2860    9.1510   30.5890 N.3   309  ASN309     -0.1240
    120  CA        25.5440    9.5400   29.3990 C.3   309  ASN309      0.1653
    121  C         25.5560   11.0480   29.2060 C.2   309  ASN309      0.2266
    122  O         25.3740   11.8090   30.1590 O.2   309  ASN309     -0.2867
    123  CB        24.0980    9.0330   29.4710 C.3   309  ASN309      0.1155
    124  CG        23.2360    9.5550   28.3300 C.2   309  ASN309      0.2627
    125  OD1       22.4240   10.4630   28.5150 O.2   309  ASN309     -0.2716
    126  ND2       23.4070    8.9800   27.1450 N.am  309  ASN309     -0.0877
    127  N         23.4320   13.6570   26.9760 N.3   311  GLU311     -0.1231
    128  CA        22.2170   13.7050   26.1640 C.3   311  GLU311      0.1699
    129  C         22.4590   14.2850   24.7770 C.2   311  GLU311      0.2592
    130  O         23.4020   15.0440   24.5670 O.2   311  GLU311     -0.2718
    131  CB        21.1120   14.4900   26.8680 C.3   311  GLU311      0.0402
    132  CG        20.3170   13.6860   27.8780 C.3   311  GLU311      0.1161
    133  CD        19.5880   12.5010   27.2530 C.2   311  GLU311      0.3649
    134  OE1       20.2640   11.6000   26.7220 O.co2 311  GLU311     -0.2457
    135  OE2       18.3420   12.4750   27.2960 O.co2 311  GLU311     -0.2457
    136  N         21.5900   13.9180   23.8400 N.am  312  TYR312     -0.1976
    137  CA        21.7070   14.3520   22.4530 C.3   312  TYR312      0.1639
    138  C         21.6920   15.8690   22.3100 C.2   312  TYR312      0.2290
    139  O         22.5380   16.4360   21.6220 O.2   312  TYR312     -0.2864
    140  CB        20.6040   13.7220   21.5960 C.3   312  TYR312      0.0560
    141  CG        19.2180   13.7790   22.2090 C.ar  312  TYR312     -0.0198
    142  CD1       18.3510   14.8270   21.9260 C.ar  312  TYR312     -0.0009
    143  CD2       18.7710   12.7710   23.0590 C.ar  312  TYR312     -0.0009
    144  CE1       17.0810   14.8770   22.4760 C.ar  312  TYR312      0.0417
    145  CE2       17.5010   12.8100   23.6150 C.ar  312  TYR312      0.0417
    146  CZ        16.6610   13.8670   23.3190 C.ar  312  TYR312      0.1957
    147  OH        15.4000   13.9130   23.8670 O.3   312  TYR312     -0.2866
    148  N         23.1600    5.4010   23.9120 N.3   333  SER333     -0.1202
    149  CA        22.5580    4.7420   25.0650 C.3   333  SER333      0.2020
    150  C         21.0440    4.7000   24.9040 C.2   333  SER333      0.2619
    151  O         20.4210    5.7240   24.6380 O.2   333  SER333     -0.2717
    152  CB        22.9350    5.4990   26.3400 C.3   333  SER333      0.2103
    153  OG        22.2370    5.0180   27.4730 O.3   333  SER333     -0.2182
    154  N         20.4540    3.5210   25.0740 N.am  334  VAL334     -0.1965
    155  CA        19.0190    3.3640   24.8770 C.3   334  VAL334      0.1727
    156  C         18.2380    3.3930   26.1880 C.2   334  VAL334      0.2616
    157  O         17.0170    3.3000   26.1810 O.2   334  VAL334     -0.2715
    158  CB        18.6730    2.0690   24.0950 C.3   334  VAL334      0.0290
    159  CG1       19.5470    1.9480   22.8590 C.3   334  VAL334      0.0023
    160  CG2       18.8240    0.8450   24.9750 C.3   334  VAL334      0.0023
    161  N         18.9470    3.5330   27.3050 N.am  335  ASN335     -0.1972
    162  CA        18.3180    3.6240   28.6300 C.3   335  ASN335      0.1688
    163  C         17.6230    2.3500   29.0990 C.2   335  ASN335      0.2292
    164  O         16.5430    2.3850   29.6980 O.2   335  ASN335     -0.2864
    165  CB        17.3840    4.8400   28.7450 C.3   335  ASN335      0.1181
    166  CG        17.8940    5.8850   29.7500 C.2   335  ASN335      0.2629
    167  OD1       17.1460    6.7610   30.1850 O.2   335  ASN335     -0.2716
    168  ND2       19.1670    5.7880   30.1160 N.am  335  ASN335     -0.0877
    169  N         10.6520   23.9350   34.0720 N.3   376  ARG376     -0.1245
    170  CA        10.8980   23.3320   35.3730 C.3   376  ARG376      0.1563
    171  C         12.2030   22.5510   35.3430 C.2   376  ARG376      0.2260
    172  O         12.7580   22.2950   34.2770 O.2   376  ARG376     -0.2867
    173  CB         9.7390   22.4300   35.8130 C.3   376  ARG376      0.0307
    174  CG         9.8380   20.9860   35.3410 C.3   376  ARG376      0.0489
    175  CD         9.7040   20.8870   33.8340 C.3   376  ARG376      0.2205
    176  NE         9.5530   19.5050   33.3780 N.pl3 376  ARG376     -0.0865
    177  CZ         9.3050   19.1650   32.1160 C.cat 376  ARG376      0.5346
    178  NH1        9.1810   20.1090   31.1920 N.pl3 376  ARG376      0.1354
    179  NH2        9.1780   17.8870   31.7750 N.pl3 376  ARG376      0.1354
    180  N         17.5180   12.8780   34.8560 N.3   380  LEU380     -0.1245
    181  CA        17.5340   11.6620   34.0620 C.3   380  LEU380      0.1561
    182  C         17.9450   10.5010   34.9500 C.2   380  LEU380      0.2260
    183  O         18.8850   10.6280   35.7370 O.2   380  LEU380     -0.2867
    184  CB        18.5400   11.7960   32.9250 C.3   380  LEU380      0.0270
    185  CG        18.4090   13.0470   32.0620 C.3   380  LEU380      0.0019
    186  CD1       19.6450   13.2150   31.2010 C.3   380  LEU380      0.0001
    187  CD2       17.1520   12.9930   31.2130 C.3   380  LEU380      0.0001
    188  N         19.4730    7.8870   34.2470 N.3   382  GLN382     -0.1245
    189  CA        20.8100    7.3890   33.9330 C.3   382  GLN382      0.1566
    190  C         21.9270    8.2190   34.5810 C.2   382  GLN382      0.2260
    191  O         23.0660    7.7600   34.6820 O.2   382  GLN382     -0.2867
    192  CB        21.0230    7.2700   32.4180 C.3   382  GLN382      0.0367
    193  CG        21.0230    8.5810   31.6450 C.3   382  GLN382      0.0905
    194  CD        19.6420    8.9930   31.1660 C.2   382  GLN382      0.2608
    195  OE1       18.6350    8.7390   31.8250 O.2   382  GLN382     -0.2717
    196  NE2       19.5930    9.6430   30.0090 N.am  382  GLN382     -0.0878
    197  N         16.8090   -2.1670   19.1980 N.3   405  TYR405     -0.1241
    198  CA        16.2330   -0.9620   19.7860 C.3   405  TYR405      0.1605
    199  C         15.0000   -0.5750   18.9730 C.2   405  TYR405      0.2264
    200  O         15.1230   -0.1180   17.8350 O.2   405  TYR405     -0.2867
    201  CB        17.2750    0.1610   19.7670 C.3   405  TYR405      0.0534
    202  CG        16.7780    1.5220   20.2070 C.ar  405  TYR405     -0.0201
    203  CD1       16.2660    1.7160   21.4810 C.ar  405  TYR405     -0.0009
    204  CD2       16.8590    2.6220   19.3580 C.ar  405  TYR405     -0.0009
    205  CE1       15.8270    2.9580   21.8960 C.ar  405  TYR405      0.0417
    206  CE2       16.4200    3.8770   19.7640 C.ar  405  TYR405      0.0417
    207  CZ        15.9030    4.0350   21.0350 C.ar  405  TYR405      0.1957
    208  OH        15.4590    5.2670   21.4550 O.3   405  TYR405     -0.2866
    209  N         11.9300    1.5340   19.8480 N.3   407  PRO407     -0.2116
    210  CA        10.9660    2.3690   20.5780 C.3   407  PRO407      0.1372
    211  C          9.8060    2.8320   19.6980 C.2   407  PRO407      0.2244
    212  O          9.9470    2.9820   18.4800 O.2   407  PRO407     -0.2868
    213  CB        11.8070    3.5850   20.9730 C.3   407  PRO407      0.0268
    214  CG        12.8020    3.6940   19.8530 C.3   407  PRO407      0.0207
    215  CD        13.1680    2.2710   19.5290 C.3   407  PRO407      0.0892
    216  N          8.0000    6.1130   19.4600 N.3   409  LYS409     -0.1245
    217  CA         8.1480    7.4940   19.9430 C.3   409  LYS409      0.1561
    218  C          7.5350    8.5840   19.0620 C.2   409  LYS409      0.2260
    219  O          7.0660    9.5960   19.5720 O.2   409  LYS409     -0.2867
    220  CB         9.6240    7.8270   20.1630 C.3   409  LYS409      0.0271
    221  CG        10.1780    7.2760   21.4540 C.3   409  LYS409      0.0035
    222  CD        11.5550    7.8320   21.7530 C.3   409  LYS409      0.0206
    223  CE        12.1270    7.1640   22.9810 C.3   409  LYS409      0.1093
    224  NZ        12.9000    8.1200   23.8150 N.3   409  LYS409     -0.1314
@<TRIPOS>BOND
     1   106   105    1
     2   106   100    1
     3   200   199    2
     4   105   104    1
     5    28    27    2
     6   100   101    1
     7   212   211    2
     8   199   198    1
     9   218   219    2
    10   218   217    1
    11   197   198    1
    12   204   206   ar
    13   204   202   ar
    14   216   217    1
    15    27    26    1
    16   215   209    1
    17   215   214    1
    18   104   101    1
    19    32    31    1
    20    32    33    2
    21    31    30    1
    22   211   210    1
    23   101   102    1
    24   206   207   ar
    25   201   198    1
    26   201   202    1
    27    29    26    1
    28    29    30    1
    29   209   210    1
    30   214   213    1
    31   217   220    1
    32   114   112    1
    33   220   221    1
    34    26    25    1
    35   202   203   ar
    36   112   111    1
    37    35    33    1
    38   210   213    1
    39    33    34    1
    40   102   107   am
    41   102   103    2
    42   107   108    1
    43   113   111    1
    44   207   208    1
    45   207   205   ar
    46   111   108    1
    47   221   222    1
    48   203   205   ar
    49   140   141    1
    50   140   137    1
    51   139   138    2
    52   110   109    2
    53   222   223    1
    54   108   109    1
    55   142   141   ar
    56   142   144   ar
    57   141   143   ar
    58   138   137    1
    59   109   115   am
    60   137   136    1
    61   144   146   ar
    62   159   158    1
    63   223   224    1
    64   143   145   ar
    65   118   117    2
    66   146   145   ar
    67   146   147    1
    68    24    23    2
    69   115   116    1
    70   136   129   am
    71   117   116    1
    72   148   149    1
    73   158   155    1
    74   158   160    1
    75    43    44    1
    76    43    42    1
    77    23    22    1
    78    42    41    1
    79   130   129    2
    80   151   150    2
    81   129   128    1
    82   155   154    1
    83   155   156    1
    84   150   149    1
    85   150   154   am
    86   149   152    1
    87    22    21    1
    88    39    38    2
    89    41    40    1
    90   128   131    1
    91   128   127    1
    92   157   156    2
    93   156   161   am
    94   152   153    1
    95    37    40    1
    96    37    38    1
    97    37    36    1
    98   134   133   ar
    99    98    97   ar
   100   131   132    1
   101    95    94    2
   102    94    93    1
   103   126   124   am
   104   133   135   ar
   105   133   132    1
   106    91    89   am
   107   161   162    1
   108    97    99   ar
   109    97    96    1
   110    93    92    1
   111    93    96    1
   112   124   125    2
   113   124   123    1
   114    92    85   am
   115    87    88    1
   116    87    84    1
   117    86    85    2
   118    89    88    1
   119    89    90    2
   120   162   165    1
   121   162   163    1
   122   165   166    1
   123    85    84    1
   124   163   164    2
   125   121   120    1
   126   121   122    2
   127   120   123    1
   128   120   119    1
   129    84    83    1
   130    20    19    2
   131   166   168   am
   132   166   167    2
   133    19    18    1
   134   196   194   am
   135    18    17    1
   136    82    80   ar
   137    82    81   ar
   138   194   193    1
   139   194   195    2
   140   178   177    1
   141   186   185    1
   142   187   185    1
   143    80    78   ar
   144   193   192    1
   145    81    79   ar
   146   179   177    1
   147    17    15   am
   148     4     3    2
   149   185   184    1
   150   177   176    2
   151   192   189    1
   152    78    79   ar
   153    78    77    1
   154     7     5    1
   155     9    12    1
   156     9    10    1
   157     9     8    1
   158   184   181    1
   159    15    16    2
   160    15    14    1
   161     3     8   am
   162     3     2    1
   163    10    11    2
   164    10    13   am
   165   176   175    1
   166    13    14    1
   167    77    74    1
   168   175   174    1
   169   189   188    1
   170   189   190    1
   171     1     2    1
   172   181   180    1
   173   181   182    1
   174   169   170    1
   175     5     2    1
   176     5     6    1
   177    67    68    1
   178    67    66    1
   179    68    62    1
   180   172   171    2
   181    73    74    1
   182    73    71   am
   183   190   191    2
   184    70    71    1
   185    70    69    1
   186    66    63    1
   187    74    75    1
   188   182   183    2
   189    71    72    2
   190   174   173    1
   191   171   170    1
   192    65    64    2
   193   170   173    1
   194    62    63    1
   195    63    64    1
   196    75    76    2
   197    48    47    2
   198    60    59    2
   199    52    51    1
   200    59    61   am
   201    59    58    1
   202    47    46    1
   203    45    46    1
   204    49    46    1
   205    49    50    1
   206    58    57    1
   207    50    51    1
   208    57    54    1
   209    56    55    2
   210    53    54    1
   211    54    55    1
