@<TRIPOS>MOLECULE
tmp/3ohaA00.pdb
 155 149 0 0 0
SMALL
GASTEIGER

@<TRIPOS>ATOM
      1  N        -21.1910   42.0940    5.2520 N.3    34  ASP34      -0.1225
      2  CA       -21.2020   41.0750    4.2270 C.3    34  ASP34       0.1805
      3  C        -19.7630   40.8310    3.7200 C.2    34  ASP34       0.2598
      4  O        -19.0940   41.7520    3.2770 O.2    34  ASP34      -0.2718
      5  CB       -22.1300   41.5080    3.1150 C.3    34  ASP34       0.1424
      6  CG       -22.2860   40.4320    2.0280 C.2    34  ASP34       0.3668
      7  OD1      -21.2770   40.0720    1.3980 O.co2  34  ASP34      -0.2456
      8  OD2      -23.4000   39.9450    1.8090 O.co2  34  ASP34      -0.2456
      9  N        -19.2940   39.5920    3.8570 N.am   35  MET35      -0.1965
     10  CA       -17.9650   39.1850    3.3710 C.3    35  MET35       0.1736
     11  C        -17.8310   39.4450    1.8750 C.2    35  MET35       0.2616
     12  O        -18.7080   39.1130    1.1020 O.2    35  MET35      -0.2715
     13  CB       -17.7590   37.6950    3.5910 C.3    35  MET35       0.0427
     14  CG       -17.8450   37.2880    4.9920 C.3    35  MET35       0.0599
     15  SD       -16.4030   37.8390    5.8970 S.3    35  MET35      -0.1393
     16  CE       -16.7870   37.0860    7.4610 C.3    35  MET35       0.0692
     17  N        -16.7480   40.0680    1.4670 N.am   36  ASN36      -0.1958
     18  CA       -16.5080   40.3410    0.0580 C.3    36  ASN36       0.1819
     19  C        -16.1180   38.9920   -0.6090 C.2    36  ASN36       0.2621
     20  O        -15.3010   38.2570   -0.0610 O.2    36  ASN36      -0.2715
     21  CB       -15.3460   41.3280   -0.1100 C.3    36  ASN36       0.1195
     22  CG       -15.6380   42.7330    0.4430 C.2    36  ASN36       0.2630
     23  OD1      -14.7180   43.3990    0.8980 O.2    36  ASN36      -0.2716
     24  ND2      -16.8740   43.1980    0.3530 N.am   36  ASN36      -0.0877
     25  N        -16.7360   38.6820   -1.7400 N.am   37  ALA37      -0.1963
     26  CA       -16.3590   37.5440   -2.5750 C.3    37  ALA37       0.1728
     27  C        -16.0900   36.2930   -1.7470 C.2    37  ALA37       0.2616
     28  O        -15.0360   35.6750   -1.8440 O.2    37  ALA37      -0.2715
     29  CB       -15.1110   37.9320   -3.4380 C.3    37  ALA37       0.0334
     30  N        -17.0390   35.9130   -0.9180 N.am   38  PHE38      -0.1960
     31  CA       -16.7160   35.1000    0.2380 C.3    38  PHE38       0.1771
     32  C        -16.0000   33.7980   -0.1140 C.2    38  PHE38       0.2619
     33  O        -14.9100   33.5490    0.4000 O.2    38  PHE38      -0.2715
     34  CB       -17.9620   34.8120    1.0790 C.3    38  PHE38       0.0574
     35  CG       -17.6790   34.0280    2.2980 C.ar   38  PHE38      -0.0200
     36  CD1      -16.6110   34.3800    3.1330 C.ar   38  PHE38      -0.0042
     37  CD2      -18.4630   32.9200    2.6380 C.ar   38  PHE38      -0.0042
     38  CE1      -16.3410   33.6360    4.2920 C.ar   38  PHE38      -0.0003
     39  CE2      -18.2010   32.1880    3.7820 C.ar   38  PHE38      -0.0003
     40  CZ       -17.1410   32.5400    4.6080 C.ar   38  PHE38      -0.0000
     41  N        -16.5910   32.9820   -0.9840 N.am   39  PHE39      -0.1974
     42  CA       -16.0140   31.6520   -1.2440 C.3    39  PHE39       0.1639
     43  C        -14.6300   31.8090   -1.8920 C.2    39  PHE39       0.2290
     44  O        -13.7590   30.9920   -1.6440 O.2    39  PHE39      -0.2864
     45  CB       -16.8880   30.7800   -2.1360 C.3    39  PHE39       0.0560
     46  CG       -18.1640   30.2680   -1.4910 C.ar   39  PHE39      -0.0200
     47  CD1      -18.6270   30.7420   -0.2640 C.ar   39  PHE39      -0.0042
     48  CD2      -18.9260   29.3230   -2.1580 C.ar   39  PHE39      -0.0042
     49  CE1      -19.8080   30.2800    0.2860 C.ar   39  PHE39      -0.0003
     50  CE2      -20.1140   28.8470   -1.6210 C.ar   39  PHE39      -0.0003
     51  CZ       -20.5640   29.3250   -0.3850 C.ar   39  PHE39      -0.0000
     52  N        -18.9090   30.4320   -9.0350 N.3    64  ILE64      -0.1231
     53  CA       -19.8850   30.7880   -8.0290 C.3    64  ILE64       0.1692
     54  C        -19.3790   31.8730   -7.0900 C.2    64  ILE64       0.2592
     55  O        -20.1630   32.4310   -6.3550 O.2    64  ILE64      -0.2718
     56  CB       -20.4680   29.5650   -7.2900 C.3    64  ILE64       0.0266
     57  CG1      -19.4240   28.8620   -6.4300 C.3    64  ILE64       0.0019
     58  CG2      -21.1620   28.6280   -8.3380 C.3    64  ILE64       0.0020
     59  CD1      -19.9930   27.8880   -5.4110 C.3    64  ILE64       0.0001
     60  N        -18.0890   32.2170   -7.1620 N.am   65  ALA65      -0.1966
     61  CA       -17.5740   33.4020   -6.4790 C.3    65  ALA65       0.1728
     62  C        -16.3640   33.9260   -7.2350 C.2    65  ALA65       0.2616
     63  O        -15.5240   33.1450   -7.6940 O.2    65  ALA65      -0.2715
     64  CB       -17.2060   33.1060   -5.0200 C.3    65  ALA65       0.0334
     65  N        -16.2930   35.2450   -7.3470 N.am   66  VAL66      -0.1977
     66  CA       -15.2590   35.9420   -8.0990 C.3    66  VAL66       0.1596
     67  C        -14.5320   36.9270   -7.1860 C.2    66  VAL66       0.2287
     68  O        -15.1620   37.9140   -6.7370 O.2    66  VAL66      -0.2864
     69  CB       -15.8920   36.8110   -9.2240 C.3    66  VAL66       0.0276
     70  CG1      -14.8000   37.4630  -10.0810 C.3    66  VAL66       0.0022
     71  CG2      -16.8530   35.9960  -10.0860 C.3    66  VAL66       0.0022
     72  N        -12.2010   40.0270   -5.9930 N.3    68  TYR68      -0.1241
     73  CA       -12.1470   41.4070   -6.5580 C.3    68  TYR68       0.1605
     74  C        -11.0210   41.5870   -7.5870 C.2    68  TYR68       0.2264
     75  O        -11.1650   42.3430   -8.5760 O.2    68  TYR68      -0.2867
     76  CB       -12.1820   42.4650   -5.4440 C.3    68  TYR68       0.0534
     77  CG       -13.6140   42.5840   -4.9710 C.ar   68  TYR68      -0.0201
     78  CD1      -14.1740   41.6240   -4.1400 C.ar   68  TYR68      -0.0009
     79  CD2      -14.4420   43.6020   -5.4490 C.ar   68  TYR68      -0.0009
     80  CE1      -15.5190   41.6950   -3.7490 C.ar   68  TYR68       0.0417
     81  CE2      -15.7800   43.6810   -5.0630 C.ar   68  TYR68       0.0417
     82  CZ       -16.3150   42.7350   -4.2300 C.ar   68  TYR68       0.1957
     83  OH       -17.6480   42.8190   -3.8840 O.3    68  TYR68      -0.2866
     84  N        -12.4660   40.3250  -10.8020 N.3    71  ARG71      -0.1245
     85  CA       -13.4790   41.2640  -11.3000 C.3    71  ARG71       0.1563
     86  C        -12.9150   42.3540  -12.1790 C.2    71  ARG71       0.2260
     87  O        -13.6100   42.8520  -13.0690 O.2    71  ARG71      -0.2867
     88  CB       -14.2830   41.8840  -10.1380 C.3    71  ARG71       0.0307
     89  CG       -15.1370   40.8740   -9.4370 C.3    71  ARG71       0.0489
     90  CD       -15.9720   41.4800   -8.3270 C.3    71  ARG71       0.2205
     91  NE       -16.3870   40.4450   -7.4140 N.pl3  71  ARG71      -0.0865
     92  CZ       -17.4760   40.4960   -6.6500 C.cat  71  ARG71       0.5346
     93  NH1      -18.2970   41.5330   -6.7160 N.pl3  71  ARG71       0.1354
     94  NH2      -17.7580   39.4860   -5.8450 N.pl3  71  ARG71       0.1354
     95  N        -20.0520   36.3870  -11.4910 N.3    77  ARG77      -0.1245
     96  CA       -20.6610   35.1700  -10.9580 C.3    77  ARG77       0.1563
     97  C        -21.5040   34.5720  -12.0540 C.2    77  ARG77       0.2260
     98  O        -22.1430   35.2820  -12.8340 O.2    77  ARG77      -0.2867
     99  CB       -21.5380   35.4530   -9.7250 C.3    77  ARG77       0.0307
    100  CG       -21.0240   34.8600   -8.4200 C.3    77  ARG77       0.0489
    101  CD       -21.8900   35.3100   -7.1790 C.3    77  ARG77       0.2205
    102  NE       -23.2700   34.9830   -7.4520 N.pl3  77  ARG77      -0.0865
    103  CZ       -23.7280   33.7420   -7.5140 C.cat  77  ARG77       0.5346
    104  NH1      -22.9340   32.7030   -7.2090 N.pl3  77  ARG77       0.1354
    105  NH2      -25.0070   33.5350   -7.8470 N.pl3  77  ARG77       0.1354
    106  N        -19.6560   22.1780    0.7850 N.3   132  LEU132     -0.1245
    107  CA       -19.5430   23.5770    1.1650 C.3   132  LEU132      0.1561
    108  C        -18.9860   23.7400    2.5870 C.2   132  LEU132      0.2260
    109  O        -18.9500   24.8670    3.1110 O.2   132  LEU132     -0.2867
    110  CB       -20.9150   24.2360    1.1050 C.3   132  LEU132      0.0270
    111  CG       -21.6000   24.1830   -0.2520 C.3   132  LEU132      0.0019
    112  CD1      -22.9630   24.8900   -0.2010 C.3   132  LEU132      0.0001
    113  CD2      -20.6760   24.8190   -1.2760 C.3   132  LEU132      0.0001
    114  N        -24.8650   32.5590    4.8040 N.3   158  ILE158     -0.1231
    115  CA       -23.5270   32.0390    5.0580 C.3   158  ILE158      0.1692
    116  C        -22.4710   33.1740    5.2090 C.2   158  ILE158      0.2592
    117  O        -21.5210   33.0250    5.9620 O.2   158  ILE158     -0.2718
    118  CB       -23.0840   30.9950    4.0180 C.3   158  ILE158      0.0266
    119  CG1      -21.8710   30.2320    4.5640 C.3   158  ILE158      0.0019
    120  CG2      -22.8310   31.6460    2.6580 C.3   158  ILE158      0.0020
    121  CD1      -21.5740   28.9550    3.8610 C.3   158  ILE158      0.0001
    122  N        -22.6660   34.3180    4.5850 N.am  159  ASP159     -0.1960
    123  CA       -21.6510   35.3610    4.6840 C.3   159  ASP159      0.1840
    124  C        -22.1470   36.7140    5.1550 C.2   159  ASP159      0.2621
    125  O        -21.4270   37.7150    5.0240 O.2   159  ASP159     -0.2715
    126  CB       -20.8730   35.4730    3.3720 C.3   159  ASP159      0.1450
    127  CG       -21.4820   36.4380    2.3890 C.2   159  ASP159      0.3671
    128  OD1      -20.6990   37.0440    1.6320 O.co2 159  ASP159     -0.2456
    129  OD2      -22.7210   36.6120    2.3240 O.co2 159  ASP159     -0.2456
    130  N        -23.3660   36.7590    5.6970 N.am  160  GLU160     -0.1977
    131  CA       -23.9540   38.0200    6.1590 C.3   160  GLU160      0.1602
    132  C        -24.3280   37.9510    7.6330 C.2   160  GLU160      0.2287
    133  O        -24.9070   36.9360    8.0870 O.2   160  GLU160     -0.2864
    134  CB       -25.2750   38.2770    5.4790 C.3   160  GLU160      0.0415
    135  CG       -25.2970   38.6490    4.0550 C.3   160  GLU160      0.1163
    136  CD       -26.7590   38.6970    3.5490 C.2   160  GLU160      0.3649
    137  OE1      -27.0580   37.9540    2.6240 O.co2 160  GLU160     -0.2457
    138  OE2      -27.6130   39.4260    4.1010 O.co2 160  GLU160     -0.2457
    139  N        -24.1810   46.6400    0.2280 N.3   280  ASN280     -0.1240
    140  CA       -23.9740   46.3200   -1.1540 C.3   280  ASN280      0.1653
    141  C        -23.6620   47.5410   -2.0530 C.2   280  ASN280      0.2266
    142  O        -23.3720   47.3880   -3.2080 O.2   280  ASN280     -0.2867
    143  CB       -25.2290   45.6120   -1.6650 C.3   280  ASN280      0.1155
    144  CG       -24.9240   44.6460   -2.7610 C.2   280  ASN280      0.2627
    145  OD1      -24.0580   43.7540   -2.6240 O.2   280  ASN280     -0.2716
    146  ND2      -25.6000   44.8360   -3.8960 N.am  280  ASN280     -0.0877
    147  N        -18.1640   48.2220   -2.6290 N.3   283  LYS283     -0.1245
    148  CA       -17.3930   47.0440   -2.3500 C.3   283  LYS283      0.1561
    149  C        -16.1280   47.1090   -3.2090 C.2   283  LYS283      0.2260
    150  O        -16.1750   47.6740   -4.3130 O.2   283  LYS283     -0.2867
    151  CB       -18.1190   45.7970   -2.8570 C.3   283  LYS283      0.0271
    152  CG       -19.5480   45.5190   -2.4670 C.3   283  LYS283      0.0035
    153  CD       -20.1780   44.8460   -3.7620 C.3   283  LYS283      0.0206
    154  CE       -21.2890   44.0170   -3.4330 C.3   283  LYS283      0.1093
    155  NZ       -21.7340   43.2820   -4.5960 N.3   283  LYS283     -0.1314
@<TRIPOS>BOND
     1    87    86    2
     2    98    97    2
     3    86    85    1
     4    97    96    1
     5    95    96    1
     6    85    84    1
     7    85    88    1
     8    96    99    1
     9    88    89    1
    10    71    69    1
    11    70    69    1
    12    99   100    1
    13    89    90    1
    14    69    66    1
    15    52    53    1
    16    75    74    2
    17   100   101    1
    18    58    56    1
    19    90    91    1
    20    66    65    1
    21    66    67    1
    22    53    56    1
    23    53    54    1
    24   105   103    1
    25    63    62    2
    26    74    73    1
    27   103   102    2
    28   103   104    1
    29   102   101    1
    30    91    92    2
    31    65    62   am
    32    56    57    1
    33    62    61    1
    34    67    68    2
    35    60    54   am
    36    60    61    1
    37    54    55    2
    38    93    92    1
    39    92    94    1
    40    73    72    1
    41    73    76    1
    42    61    64    1
    43    57    59    1
    44    79    81   ar
    45    79    77   ar
    46    76    77    1
    47    81    82   ar
    48    77    78   ar
    49   155   154    1
    50   150   149    2
    51    82    83    1
    52    82    80   ar
    53    78    80   ar
    54   146   144   am
    55   153   154    1
    56   153   152    1
    57    29    26    1
    58   149   148    1
    59   142   141    2
    60   151   152    1
    61   151   148    1
    62   144   145    2
    63   144   143    1
    64   147   148    1
    65    26    27    1
    66    26    25    1
    67    48    50   ar
    68    48    46   ar
    69    45    46    1
    70    45    42    1
    71   141   140    1
    72    43    44    2
    73    43    42    1
    74    28    27    2
    75    27    30   am
    76    25    19   am
    77   143   140    1
    78    50    51   ar
    79    46    47   ar
    80   113   111    1
    81    42    41    1
    82   140   139    1
    83    41    32   am
    84    30    31    1
    85    19    20    2
    86    19    18    1
    87    51    49   ar
    88    47    49   ar
    89   111   112    1
    90   111   110    1
    91    32    31    1
    92    32    33    2
    93    21    18    1
    94    21    22    1
    95    18    17    1
    96    31    34    1
    97    24    22   am
    98    22    23    2
    99   106   107    1
   100    34    35    1
   101    12    11    2
   102   110   107    1
   103   107   108    1
   104     7     6   ar
   105    17    11   am
   106   128   127   ar
   107     8     6   ar
   108    11    10    1
   109     6     5    1
   110    35    37   ar
   111    35    36   ar
   112   129   127   ar
   113   127   126    1
   114   108   109    2
   115   137   136   ar
   116    37    39   ar
   117   120   118    1
   118     5     2    1
   119    36    38   ar
   120     4     3    2
   121    10    13    1
   122    10     9    1
   123   126   123    1
   124   136   135    1
   125   136   138   ar
   126    13    14    1
   127     3     9   am
   128     3     2    1
   129    39    40   ar
   130   121   119    1
   131   118   119    1
   132   118   115    1
   133   135   134    1
   134     2     1    1
   135    38    40   ar
   136   122   123    1
   137   122   116   am
   138   123   124    1
   139   114   115    1
   140    14    15    1
   141   125   124    2
   142   115   116    1
   143   124   130   am
   144   116   117    2
   145   134   131    1
   146   130   131    1
   147    15    16    1
   148   131   132    1
   149   132   133    2
