@<TRIPOS>MOLECULE
tmp/3ohiA00.pdb
 134 124 0 0 0
SMALL
GASTEIGER

@<TRIPOS>ATOM
      1  N         10.7640   -2.6410   11.5860 N.3    23  ASN23      -0.1240
      2  CA        10.2510   -1.4390   10.9350 C.3    23  ASN23       0.1653
      3  C         10.3970   -1.4530    9.4320 C.2    23  ASN23       0.2266
      4  O         11.4500   -1.8440    8.9250 O.2    23  ASN23      -0.2867
      5  CB        10.8530   -0.2000   11.5370 C.3    23  ASN23       0.1155
      6  CG        10.2850    0.0820   12.8860 C.2    23  ASN23       0.2627
      7  OD1       10.6440   -0.5820   13.8720 O.2    23  ASN23      -0.2716
      8  ND2        9.3650    1.0430   12.9520 N.am   23  ASN23      -0.0877
      9  N          9.6950    0.4410    5.4770 N.3    25  ASN25      -0.1240
     10  CA         9.7600    1.7410    4.8500 C.3    25  ASN25       0.1653
     11  C          9.5390    1.6670    3.3540 C.2    25  ASN25       0.2266
     12  O          9.0660    2.6300    2.7530 O.2    25  ASN25      -0.2867
     13  CB        11.0960    2.4320    5.1600 C.3    25  ASN25       0.1155
     14  CG        11.1770    2.9400    6.6050 C.2    25  ASN25       0.2627
     15  OD1       10.3900    3.8100    7.0180 O.2    25  ASN25      -0.2716
     16  ND2       12.1380    2.4080    7.3730 N.am   25  ASN25      -0.0877
     17  N          6.0770   -3.3910   11.3970 N.3    47  GLN47      -0.1245
     18  CA         5.5710   -2.1740   12.0130 C.3    47  GLN47       0.1566
     19  C          5.8360   -0.9190   11.2140 C.2    47  GLN47       0.2260
     20  O          6.8520   -0.7970   10.5390 O.2    47  GLN47      -0.2867
     21  CB         5.9350   -2.0490   13.5140 C.3    47  GLN47       0.0367
     22  CG         7.3730   -2.2600   13.9060 C.3    47  GLN47       0.0905
     23  CD         7.5830   -2.1280   15.4030 C.2    47  GLN47       0.2608
     24  OE1        6.7240   -2.5050   16.2090 O.2    47  GLN47      -0.2717
     25  NE2        8.7230   -1.5920   15.7820 N.am   47  GLN47      -0.0878
     26  N          6.0560    3.2440   11.4560 N.3    49  SER49      -0.1217
     27  CA         6.1030    4.5020   12.2020 C.3    49  SER49       0.1889
     28  C          5.2070    5.5260   11.5240 C.2    49  SER49       0.2288
     29  O          4.7040    5.2970   10.4160 O.2    49  SER49      -0.2866
     30  CB         7.5290    5.0310   12.3240 C.3    49  SER49       0.2089
     31  OG         8.1810    5.1020   11.0670 O.3    49  SER49      -0.2183
     32  N          6.4730    8.2960   10.6330 N.3    51  GLY51      -0.1210
     33  CA         7.4730    8.8130    9.6790 C.3    51  GLY51       0.1956
     34  C          7.6750    7.9550    8.4330 C.2    51  GLY51       0.2611
     35  O          8.0350    8.4740    7.3570 O.2    51  GLY51      -0.2717
     36  N          7.4580    6.6450    8.5900 N.am   52  ALA52      -0.1979
     37  CA         7.4650    5.6980    7.4740 C.3    52  ALA52       0.1597
     38  C          6.1620    5.8240    6.6910 C.2    52  ALA52       0.2287
     39  O          6.1200    5.5540    5.4890 O.2    52  ALA52      -0.2864
     40  CB         7.6640    4.2610    7.9690 C.3    52  ALA52       0.0319
     41  N          3.5990    1.5500   15.1310 N.3    82  ASP82      -0.1225
     42  CA         4.6290    1.8470   16.1000 C.3    82  ASP82       0.1805
     43  C          4.5610    3.3130   16.5070 C.2    82  ASP82       0.2597
     44  O          4.3720    4.1910   15.6710 O.2    82  ASP82      -0.2718
     45  CB         6.0170    1.5190   15.5200 C.3    82  ASP82       0.1424
     46  CG         7.1220    1.5140   16.5780 C.2    82  ASP82       0.3668
     47  OD1        8.2870    1.7650   16.2140 O.co2  82  ASP82      -0.2456
     48  OD2        6.8410    1.2530   17.7750 O.co2  82  ASP82      -0.2456
     49  N          4.7130    3.5580   17.8020 N.am   83  HIS83      -0.1975
     50  CA         4.7630    4.9150   18.3830 C.3    83  HIS83       0.1656
     51  C          3.6060    5.8570   18.0160 C.2    83  HIS83       0.2291
     52  O          3.8250    7.0300   17.6800 O.2    83  HIS83      -0.2864
     53  CB         6.1320    5.5610   18.1240 C.3    83  HIS83       0.0771
     54  CG         7.2620    4.8520   18.8050 C.ar   83  HIS83       0.0820
     55  ND1        7.3250    4.6970   20.1760 N.ar   83  HIS83      -0.2267
     56  CD2        8.3710    4.2460   18.3060 C.ar   83  HIS83       0.1154
     57  CE1        8.4330    4.0440   20.4900 C.ar   83  HIS83       0.1986
     58  NE2        9.0820    3.7580   19.3730 N.ar   83  HIS83      -0.2212
     59  N         16.8880    4.3400   21.1210 N.3   174  HIS174     -0.1226
     60  CA        16.8890    4.0940   19.6780 C.3   174  HIS174      0.1752
     61  C         18.2460    4.3850   19.0730 C.2   174  HIS174      0.2596
     62  O         19.0960    5.0820   19.6690 O.2   174  HIS174     -0.2718
     63  CB        15.8470    4.9430   18.9580 C.3   174  HIS174      0.0759
     64  CG        14.4340    4.5550   19.2600 C.ar  174  HIS174      0.0818
     65  ND1       13.7440    5.0450   20.3450 N.ar  174  HIS174     -0.2268
     66  CD2       13.5680    3.7520   18.6020 C.ar  174  HIS174      0.1154
     67  CE1       12.5150    4.5580   20.3440 C.ar  174  HIS174      0.1986
     68  NE2       12.3850    3.7620   19.3020 N.ar  174  HIS174     -0.2212
     69  N         18.4520    3.8420   17.8830 N.am  175  GLY175     -0.1957
     70  CA        19.5620    4.2730   17.0620 C.3   175  GLY175      0.1869
     71  C         20.7850    3.4410   17.2670 C.2   175  GLY175      0.2309
     72  O         20.7540    2.4400   17.9730 O.2   175  GLY175     -0.2863
     73  N         23.7340    3.2940   21.4510 N.3   178  LYS178     -0.1245
     74  CA        23.0470    2.9840   22.7130 C.3   178  LYS178      0.1561
     75  C         23.9380    2.9940   23.9480 C.2   178  LYS178      0.2260
     76  O         23.4480    3.2070   25.0560 O.2   178  LYS178     -0.2867
     77  CB        22.3850    1.6220   22.6450 C.3   178  LYS178      0.0271
     78  CG        21.8340    1.2780   21.2890 C.3   178  LYS178      0.0035
     79  CD        20.6840    0.2810   21.3780 C.3   178  LYS178      0.0206
     80  CE        20.1920    0.0160   19.9790 C.3   178  LYS178      0.1093
     81  NZ        18.9410    0.7840   19.7860 N.3   178  LYS178     -0.1314
     82  N         11.8210   -2.0880   23.2810 N.3   206  HIS206     -0.1226
     83  CA        12.1250   -1.0890   22.2720 C.3   206  HIS206      0.1752
     84  C         13.6270   -0.8800   22.2530 C.2   206  HIS206      0.2596
     85  O         14.2980   -1.2220   23.2360 O.2   206  HIS206     -0.2718
     86  CB        11.3590    0.2010   22.6140 C.3   206  HIS206      0.0759
     87  CG         9.9040    0.0920   22.3050 C.ar  206  HIS206      0.0818
     88  ND1        9.2820    0.8700   21.3520 N.ar  206  HIS206     -0.2268
     89  CD2        8.9760   -0.7990   22.7260 C.ar  206  HIS206      0.1154
     90  CE1        8.0240    0.4890   21.2280 C.ar  206  HIS206      0.1986
     91  NE2        7.8120   -0.5170   22.0560 N.ar  206  HIS206     -0.2212
     92  N         14.1590   -0.3420   21.1480 N.am  207  GLY207     -0.1957
     93  CA        15.5810    0.0960   21.0960 C.3   207  GLY207      0.1869
     94  C         16.5430   -1.0800   21.1320 C.2   207  GLY207      0.2309
     95  O         17.6040   -1.0090   21.7520 O.2   207  GLY207     -0.2863
     96  N         18.0820   -3.0760   18.5370 N.3   209  SER209     -0.1217
     97  CA        19.0290   -3.4550   17.5170 C.3   209  SER209      0.1889
     98  C         20.2830   -3.9340   18.2210 C.2   209  SER209      0.2288
     99  O         20.6160   -3.4230   19.2880 O.2   209  SER209     -0.2866
    100  CB        19.3330   -2.2610   16.6150 C.3   209  SER209      0.2089
    101  OG        18.2790   -2.1190   15.7070 O.3   209  SER209     -0.2183
    102  N         11.7530   -4.7780   19.2070 N.3   249  ASN249     -0.1240
    103  CA        11.7160   -3.7950   18.1510 C.3   249  ASN249      0.1653
    104  C         13.1000   -3.5420   17.5530 C.2   249  ASN249      0.2266
    105  O         14.0100   -3.1080   18.2420 O.2   249  ASN249     -0.2867
    106  CB        11.0270   -2.5200   18.6440 C.3   249  ASN249      0.1155
    107  CG         9.5060   -2.7150   18.9070 C.2   249  ASN249      0.2627
    108  OD1        9.0180   -3.8230   19.1540 O.2   249  ASN249     -0.2716
    109  ND2        8.7740   -1.6300   18.8730 N.am  249  ASN249     -0.0877
    110  N         15.1950   -1.8940   14.0900 N.3   251  ASP251     -0.1225
    111  CA        15.1050   -1.0020   12.9400 C.3   251  ASP251      0.1805
    112  C         16.4610   -0.6110   12.4080 C.2   251  ASP251      0.2598
    113  O         16.6890   -0.7840   11.2150 O.2   251  ASP251     -0.2718
    114  CB        14.3320    0.2570   13.3150 C.3   251  ASP251      0.1424
    115  CG        13.8630    1.0530   12.1010 C.2   251  ASP251      0.3668
    116  OD1       13.0140    1.9530   12.2810 O.co2 251  ASP251     -0.2456
    117  OD2       14.3210    0.7880   10.9710 O.co2 251  ASP251     -0.2456
    118  N         17.3520   -0.1100   13.2870 N.am  252  SER252     -0.1952
    119  CA        18.6740    0.3970   12.8950 C.3   252  SER252      0.1924
    120  C         19.5540   -0.6820   12.2740 C.2   252  SER252      0.2314
    121  O         20.4390   -0.3640   11.4570 O.2   252  SER252     -0.2863
    122  CB        19.4230    1.0400   14.0980 C.3   252  SER252      0.2116
    123  OG        18.5430    1.8380   14.8860 O.3   252  SER252     -0.2180
    124  N         18.5260   -0.9190    8.7210 N.3   255  ARG255     -0.1245
    125  CA        19.0370    0.2660    8.0300 C.3   255  ARG255      0.1563
    126  C         20.5280    0.1230    7.7370 C.2   255  ARG255      0.2260
    127  O         20.9920    0.4620    6.6310 O.2   255  ARG255     -0.2867
    128  CB        18.7740    1.5610    8.8140 C.3   255  ARG255      0.0307
    129  CG        17.3180    1.8950    9.0900 C.3   255  ARG255      0.0489
    130  CD        17.2910    3.1130   10.0010 C.3   255  ARG255      0.2205
    131  NE        15.9550    3.4010   10.5030 N.pl3 255  ARG255     -0.0865
    132  CZ        15.6330    4.4330   11.2850 C.cat 255  ARG255      0.5346
    133  NH1       16.5560    5.3140   11.6780 N.pl3 255  ARG255      0.1354
    134  NH2       14.3640    4.5790   11.6710 N.pl3 255  ARG255      0.1354
@<TRIPOS>BOND
     1    12    11    2
     2    11    10    1
     3    10    13    1
     4    10     9    1
     5    13    14    1
     6    39    38    2
     7    14    15    2
     8    14    16   am
     9   127   126    2
    10    38    37    1
    11    35    34    2
    12    37    40    1
    13    37    36    1
    14   126   125    1
    15   125   124    1
    16   125   128    1
    17    34    36   am
    18    34    33    1
    19   128   129    1
    20     4     3    2
    21   129   130    1
    22     3     2    1
    23    33    32    1
    24   130   131    1
    25    29    28    2
    26   131   132    2
    27    20    19    2
    28     2     5    1
    29     2     1    1
    30   117   115   ar
    31    31    30    1
    32    19    18    1
    33   113   112    2
    34   132   134    1
    35   132   133    1
    36    17    18    1
    37    26    27    1
    38   121   120    2
    39    28    27    1
    40     5     6    1
    41    18    21    1
    42   115   116   ar
    43   115   114    1
    44    27    30    1
    45   120   119    1
    46   112   111    1
    47   112   118   am
    48     6     8   am
    49     6     7    2
    50   119   118    1
    51   119   122    1
    52   111   114    1
    53   111   110    1
    54    21    22    1
    55    22    23    1
    56   122   123    1
    57    41    42    1
    58    23    25   am
    59    23    24    2
    60    45    42    1
    61    45    46    1
    62    44    43    2
    63   101   100    1
    64    42    43    1
    65    47    46   ar
    66    43    49   am
    67    46    48   ar
    68   100    97    1
    69    70    71    1
    70    70    69    1
    71    71    72    2
    72    97    98    1
    73    97    96    1
    74   104   103    1
    75   104   105    2
    76    52    51    2
    77    49    50    1
    78    69    61   am
    79    51    50    1
    80    53    50    1
    81    53    54    1
    82   103   106    1
    83   103   102    1
    84    98    99    2
    85    56    54   ar
    86    56    58   ar
    87    66    64   ar
    88    66    68   ar
    89   106   107    1
    90    54    55   ar
    91   109   107   am
    92   107   108    2
    93    63    64    1
    94    63    60    1
    95    61    62    2
    96    61    60    1
    97    64    65   ar
    98    68    67   ar
    99    58    57   ar
   100    60    59    1
   101    81    80    1
   102    80    79    1
   103    55    57   ar
   104    67    65   ar
   105    93    94    1
   106    93    92    1
   107    94    95    2
   108    92    84   am
   109    90    88   ar
   110    90    91   ar
   111    78    79    1
   112    78    77    1
   113    88    87   ar
   114    73    74    1
   115    91    89   ar
   116    84    83    1
   117    84    85    2
   118    83    86    1
   119    83    82    1
   120    87    86    1
   121    87    89   ar
   122    77    74    1
   123    74    75    1
   124    75    76    2
