@<TRIPOS>MOLECULE
tmp/3ohlA00.pdb
 149 150 0 0 0
SMALL
GASTEIGER

@<TRIPOS>ATOM
      1  N        -10.5330   11.1370   17.6030 N.3    80  ASN80      -0.1225
      2  CA       -10.4410    9.9580   16.7360 C.3    80  ASN80       0.1785
      3  C        -11.0140   10.2640   15.3410 C.2    80  ASN80       0.2597
      4  O        -10.5510   11.1990   14.6840 O.2    80  ASN80      -0.2718
      5  CB       -11.1000    8.7350   17.3980 C.3    80  ASN80       0.1169
      6  CG       -10.4720    8.3850   18.7410 C.2    80  ASN80       0.2627
      7  OD1       -9.2640    8.1580   18.8370 O.2    80  ASN80      -0.2716
      8  ND2      -11.2970    8.3310   19.7850 N.am   80  ASN80      -0.0877
      9  N        -12.0130    9.5030   14.8960 N.am   81  VAL81      -0.1966
     10  CA       -12.6500    9.7490   13.6020 C.3    81  VAL81       0.1727
     11  C        -13.4520   11.0510   13.6500 C.2    81  VAL81       0.2616
     12  O        -14.4170   11.1720   14.4080 O.2    81  VAL81      -0.2715
     13  CB       -13.5830    8.5860   13.1870 C.3    81  VAL81       0.0290
     14  CG1      -14.2540    8.8870   11.8480 C.3    81  VAL81       0.0023
     15  CG2      -12.8030    7.2720   13.1140 C.3    81  VAL81       0.0023
     16  N        -13.0360   12.0210   12.8400 N.am   82  LEU82      -0.1963
     17  CA       -13.7100   13.3180   12.7590 C.3    82  LEU82       0.1728
     18  C        -14.8380   13.2700   11.7240 C.2    82  LEU82       0.2616
     19  O        -15.8940   13.8740   11.9200 O.2    82  LEU82      -0.2715
     20  CB       -12.7050   14.4130   12.3980 C.3    82  LEU82       0.0311
     21  CG       -11.4100   14.4420   13.2220 C.3    82  LEU82       0.0022
     22  CD1      -10.4720   15.5070   12.6940 C.3    82  LEU82       0.0001
     23  CD2      -11.6940   14.6600   14.7010 C.3    82  LEU82       0.0001
     24  N        -14.5940   12.5480   10.6280 N.am   83  ALA83      -0.1963
     25  CA       -15.5720   12.3650    9.5570 C.3    83  ALA83       0.1728
     26  C        -15.2510   11.1290    8.7030 C.2    83  ALA83       0.2616
     27  O        -14.1560   10.5680    8.7900 O.2    83  ALA83      -0.2715
     28  CB       -15.6140   13.6100    8.6750 C.3    83  ALA83       0.0334
     29  N        -16.2180   10.7060    7.8900 N.am   84  HIS84      -0.1973
     30  CA       -15.9710    9.7320    6.8180 C.3    84  HIS84       0.1656
     31  C        -16.9430    9.9430    5.6650 C.2    84  HIS84       0.2291
     32  O        -17.9730   10.6080    5.8150 O.2    84  HIS84      -0.2864
     33  CB       -16.0540    8.2790    7.3120 C.3    84  HIS84       0.0771
     34  CG       -17.3560    7.9270    7.9620 C.ar   84  HIS84       0.0820
     35  ND1      -17.4310    7.5160    9.2730 N.ar   84  HIS84      -0.2267
     36  CD2      -18.6260    7.9150    7.4900 C.ar   84  HIS84       0.1154
     37  CE1      -18.6910    7.2730    9.5850 C.ar   84  HIS84       0.1986
     38  NE2      -19.4400    7.5100    8.5210 N.ar   84  HIS84      -0.2212
     39  N        -11.4330   21.9900    5.7610 N.3   115  LEU115     -0.1231
     40  CA       -10.3070   21.0730    5.5200 C.3   115  LEU115      0.1693
     41  C        -10.7030   19.5990    5.5550 C.2   115  LEU115      0.2591
     42  O        -10.2250   18.8110    4.7350 O.2   115  LEU115     -0.2718
     43  CB        -9.1720   21.3160    6.5230 C.3   115  LEU115      0.0284
     44  CG        -8.2570   22.5100    6.2420 C.3   115  LEU115      0.0019
     45  CD1       -7.3760   22.7900    7.4520 C.3   115  LEU115      0.0001
     46  CD2       -7.4100   22.2730    4.9980 C.3   115  LEU115      0.0001
     47  N        -11.5570   19.2270    6.5070 N.am  116  VAL116     -0.1980
     48  CA       -12.0540   17.8480    6.5960 C.3   116  VAL116      0.1595
     49  C        -12.9890   17.5510    5.4190 C.2   116  VAL116      0.2287
     50  O        -12.8280   16.5390    4.7410 O.2   116  VAL116     -0.2864
     51  CB       -12.7820   17.5730    7.9380 C.3   116  VAL116      0.0276
     52  CG1      -13.3780   16.1680    7.9540 C.3   116  VAL116      0.0022
     53  CG2      -11.8290   17.7600    9.1100 C.3   116  VAL116      0.0022
     54  N        -11.1450   16.8320    2.2550 N.3   119  HIS119     -0.1226
     55  CA       -10.6480   15.4500    2.3480 C.3   119  HIS119      0.1752
     56  C        -11.7800   14.4350    2.1590 C.2   119  HIS119      0.2595
     57  O        -11.5890   13.4020    1.5130 O.2   119  HIS119     -0.2718
     58  CB        -9.9500   15.2550    3.7050 C.3   119  HIS119      0.0759
     59  CG        -9.5480   13.8420    4.0070 C.ar  119  HIS119      0.0818
     60  ND1       -8.2640   13.3770    3.8220 N.ar  119  HIS119     -0.2268
     61  CD2      -10.2510   12.8070    4.5270 C.ar  119  HIS119      0.1154
     62  CE1       -8.1990   12.1100    4.1910 C.ar  119  HIS119      0.1986
     63  NE2       -9.3920   11.7390    4.6230 N.ar  119  HIS119     -0.2212
     64  N        -12.9540   14.7510    2.7120 N.am  120  GLU120     -0.1979
     65  CA       -14.1350   13.8850    2.6250 C.3   120  GLU120      0.1602
     66  C        -14.7530   13.8300    1.2350 C.2   120  GLU120      0.2287
     67  O        -15.1760   12.7630    0.7850 O.2   120  GLU120     -0.2864
     68  CB       -15.2100   14.3330    3.6250 C.3   120  GLU120      0.0415
     69  CG       -14.8440   14.1260    5.0900 C.3   120  GLU120      0.1163
     70  CD       -14.2300   12.7680    5.3560 C.2   120  GLU120      0.3649
     71  OE1      -14.7700   11.7600    4.8490 O.co2 120  GLU120     -0.2457
     72  OE2      -13.2000   12.7160    6.0600 O.co2 120  GLU120     -0.2457
     73  N        -13.0580   11.5020   -0.9190 N.3   123  HIS123     -0.1241
     74  CA       -13.6190   10.1510   -0.7860 C.3   123  HIS123      0.1621
     75  C        -14.9090    9.9830   -1.5840 C.2   123  HIS123      0.2264
     76  O        -15.1380    8.9280   -2.1820 O.2   123  HIS123     -0.2867
     77  CB       -13.8880    9.7990    0.6820 C.3   123  HIS123      0.0745
     78  CG       -12.6520    9.6590    1.5150 C.ar  123  HIS123      0.0817
     79  ND1      -11.5200    9.0090    1.0710 N.ar  123  HIS123     -0.2268
     80  CD2      -12.3860   10.0570    2.7810 C.ar  123  HIS123      0.1154
     81  CE1      -10.6020    9.0300    2.0220 C.ar  123  HIS123      0.1986
     82  NE2      -11.1030    9.6590    3.0710 N.ar  123  HIS123     -0.2212
     83  N         -6.9500    7.0890    0.8730 N.3   129  HIS129     -0.1241
     84  CA        -5.8710    7.7460    1.6020 C.3   129  HIS129      0.1621
     85  C         -4.5140    7.5900    0.9250 C.2   129  HIS129      0.2264
     86  O         -4.1600    6.5070    0.4600 O.2   129  HIS129     -0.2867
     87  CB        -5.7980    7.2250    3.0380 C.3   129  HIS129      0.0745
     88  CG        -7.0220    7.5180    3.8490 C.ar  129  HIS129      0.0817
     89  ND1       -7.5740    6.6050    4.7220 N.ar  129  HIS129     -0.2268
     90  CD2       -7.8050    8.6210    3.9140 C.ar  129  HIS129      0.1154
     91  CE1       -8.6400    7.1350    5.2940 C.ar  129  HIS129      0.1986
     92  NE2       -8.8030    8.3570    4.8190 N.ar  129  HIS129     -0.2212
     93  N         -3.5170   16.2250    1.0310 N.3   134  LEU134     -0.1245
     94  CA        -4.8350   16.4180    1.6460 C.3   134  LEU134      0.1561
     95  C         -5.5310   15.0850    1.9430 C.2   134  LEU134      0.2260
     96  O         -6.2910   14.9880    2.9070 O.2   134  LEU134     -0.2867
     97  CB        -5.7340   17.2940    0.7540 C.3   134  LEU134      0.0270
     98  CG        -7.2060   17.4760    1.1720 C.3   134  LEU134      0.0019
     99  CD1       -7.3190   18.0280    2.5870 C.3   134  LEU134      0.0001
    100  CD2       -7.9530   18.3720    0.1900 C.3   134  LEU134      0.0001
    101  N         -4.0690   12.3890    2.9300 N.3   136  TYR136     -0.1228
    102  CA        -3.3760   11.6720    3.9990 C.3   136  TYR136      0.1721
    103  C         -4.2830   11.6220    5.2370 C.2   136  TYR136      0.2437
    104  O         -4.8380   12.6500    5.6290 O.2   136  TYR136     -0.2733
    105  CB        -2.0490   12.3590    4.3290 C.3   136  TYR136      0.0547
    106  CG        -1.1520   11.5500    5.2370 C.ar  136  TYR136     -0.0200
    107  CD1       -0.2660   10.6110    4.7180 C.ar  136  TYR136     -0.0009
    108  CD2       -1.1970   11.7190    6.6170 C.ar  136  TYR136     -0.0009
    109  CE1        0.5580    9.8640    5.5530 C.ar  136  TYR136      0.0417
    110  CE2       -0.3800   10.9790    7.4610 C.ar  136  TYR136      0.0417
    111  CZ         0.4950   10.0530    6.9240 C.ar  136  TYR136      0.1957
    112  OH         1.3070    9.3190    7.7570 O.3   136  TYR136     -0.2866
    113  N         -4.4360   10.4340    5.8620 N.am  137  PRO137     -0.2718
    114  CA        -5.4210   10.2630    6.9360 C.3   137  PRO137      0.1535
    115  C         -4.9870   10.8660    8.2810 C.2   137  PRO137      0.2598
    116  O         -4.7640   10.1420    9.2560 O.2   137  PRO137     -0.2715
    117  CB        -5.5600    8.7400    7.0290 C.3   137  PRO137      0.0310
    118  CG        -4.2210    8.2250    6.6500 C.3   137  PRO137      0.0237
    119  CD        -3.6270    9.2130    5.6710 C.3   137  PRO137      0.0939
    120  N         -4.8890   12.1930    8.3210 N.am  138  LEU138     -0.1964
    121  CA        -4.4480   12.9170    9.5120 C.3   138  LEU138      0.1728
    122  C         -4.8320   14.3910    9.4030 C.2   138  LEU138      0.2616
    123  O         -4.4760   15.0570    8.4290 O.2   138  LEU138     -0.2715
    124  CB        -2.9330   12.7930    9.6660 C.3   138  LEU138      0.0311
    125  CG        -2.2480   13.6370   10.7450 C.3   138  LEU138      0.0022
    126  CD1       -2.3280   12.9580   12.1070 C.3   138  LEU138      0.0001
    127  CD2       -0.8060   13.8970   10.3330 C.3   138  LEU138      0.0001
    128  N         -5.5500   14.8920   10.4050 N.am  139  TYR139     -0.1960
    129  CA        -5.9650   16.2910   10.4310 C.3   139  TYR139      0.1771
    130  C         -4.8600   17.1540   11.0440 C.2   139  TYR139      0.2619
    131  O         -4.7530   17.2630   12.2680 O.2   139  TYR139     -0.2715
    132  CB        -7.2860   16.4590   11.1980 C.3   139  TYR139      0.0574
    133  CG        -7.6500   17.9070   11.4590 C.ar  139  TYR139     -0.0198
    134  CD1       -7.7030   18.8310   10.4150 C.ar  139  TYR139     -0.0009
    135  CD2       -7.9260   18.3570   12.7490 C.ar  139  TYR139     -0.0009
    136  CE1       -8.0230   20.1620   10.6490 C.ar  139  TYR139      0.0417
    137  CE2       -8.2480   19.6870   12.9920 C.ar  139  TYR139      0.0417
    138  CZ        -8.2940   20.5830   11.9380 C.ar  139  TYR139      0.1957
    139  OH        -8.6150   21.9000   12.1740 O.3   139  TYR139     -0.2866
    140  N         -4.0410   17.7540   10.1800 N.am  140  HIS140     -0.1973
    141  CA        -2.9690   18.6580   10.6040 C.3   140  HIS140      0.1656
    142  C         -3.1270   20.0230    9.9390 C.2   140  HIS140      0.2291
    143  O         -4.1060   20.7310   10.1810 O.2   140  HIS140     -0.2864
    144  CB        -1.5840   18.0610   10.2950 C.3   140  HIS140      0.0771
    145  CG        -1.3380   17.7900    8.8400 C.ar  140  HIS140      0.0820
    146  ND1       -1.5170   16.5460    8.2730 N.ar  140  HIS140     -0.2267
    147  CD2       -0.9110   18.5990    7.8410 C.ar  140  HIS140      0.1154
    148  CE1       -1.2190   16.6020    6.9870 C.ar  140  HIS140      0.1986
    149  NE2       -0.8500   17.8370    6.6990 N.ar  140  HIS140     -0.2212
@<TRIPOS>BOND
     1    76    75    2
     2    75    74    1
     3    73    74    1
     4    74    77    1
     5   100    98    1
     6    86    85    2
     7    77    78    1
     8    97    98    1
     9    97    94    1
    10    67    66    2
    11    83    84    1
    12    85    84    1
    13    93    94    1
    14    79    78   ar
    15    79    81   ar
    16    98    99    1
    17    66    65    1
    18    57    56    2
    19    78    80   ar
    20    84    87    1
    21    94    95    1
    22    95    96    2
    23    81    82   ar
    24    56    55    1
    25    56    64   am
    26    54    55    1
    27    55    58    1
    28    65    64    1
    29    65    68    1
    30    80    82   ar
    31   101   102    1
    32    87    88    1
    33    68    69    1
    34    58    59    1
    35    60    59   ar
    36    60    62   ar
    37    88    90   ar
    38    88    89   ar
    39    90    92   ar
    40   102   105    1
    41   102   103    1
    42    59    61   ar
    43    62    63   ar
    44   105   106    1
    45    61    63   ar
    46   107   106   ar
    47   107   109   ar
    48    89    91   ar
    49    42    41    2
    50    50    49    2
    51    92    91   ar
    52    71    70   ar
    53    46    44    1
    54    69    70    1
    55   106   108   ar
    56   103   104    2
    57   103   113   am
    58    70    72   ar
    59    49    48    1
    60    40    41    1
    61    40    39    1
    62    40    43    1
    63   109   111   ar
    64    41    47   am
    65    31    32    2
    66    31    30    1
    67   119   113    1
    68   119   118    1
    69   113   114    1
    70    44    43    1
    71    44    45    1
    72    47    48    1
    73    48    51    1
    74   108   110   ar
    75   118   117    1
    76   149   148   ar
    77   149   147   ar
    78    30    33    1
    79    30    29    1
    80   111   110   ar
    81   111   112    1
    82   114   117    1
    83   114   115    1
    84   148   146   ar
    85    33    34    1
    86    36    34   ar
    87    36    38   ar
    88   147   145   ar
    89    29    26   am
    90    51    52    1
    91    51    53    1
    92    34    35   ar
    93   146   145   ar
    94   115   120   am
    95   115   116    2
    96   120   121    1
    97   123   122    2
    98    38    37   ar
    99    28    25    1
   100    26    27    2
   101    26    25    1
   102   145   144    1
   103    35    37   ar
   104   122   121    1
   105   122   128   am
   106   121   124    1
   107    25    24    1
   108   124   125    1
   109   142   143    2
   110   142   141    1
   111   140   141    1
   112   140   130   am
   113   144   141    1
   114   127   125    1
   115   128   129    1
   116   134   136   ar
   117   134   133   ar
   118   129   130    1
   119   129   132    1
   120    24    18   am
   121   136   138   ar
   122   125   126    1
   123   130   131    2
   124   132   133    1
   125   133   135   ar
   126    18    19    2
   127    18    17    1
   128    14    13    1
   129   138   139    1
   130   138   137   ar
   131    20    17    1
   132    20    21    1
   133    22    21    1
   134   135   137   ar
   135    17    16    1
   136    16    11   am
   137    15    13    1
   138    13    10    1
   139    21    23    1
   140    10    11    1
   141    10     9    1
   142    11    12    2
   143     4     3    2
   144     9     3   am
   145     3     2    1
   146     2     5    1
   147     2     1    1
   148     5     6    1
   149     6     7    2
   150     6     8   am
