@<TRIPOS>MOLECULE
tmp/3ohoA00.pdb
 149 150 0 0 0
SMALL
GASTEIGER

@<TRIPOS>ATOM
      1  N         17.8570  -11.1870  -17.6510 N.3    80  ASN80      -0.1225
      2  CA        17.9540  -10.0000  -16.7990 C.3    80  ASN80       0.1785
      3  C         17.4010  -10.2770  -15.3880 C.2    80  ASN80       0.2597
      4  O         17.9300  -11.1400  -14.6820 O.2    80  ASN80      -0.2718
      5  CB        17.2780   -8.7950  -17.4740 C.3    80  ASN80       0.1169
      6  CG        17.8330   -8.5100  -18.8610 C.2    80  ASN80       0.2627
      7  OD1       18.9450   -7.9980  -19.0080 O.2    80  ASN80      -0.2716
      8  ND2       17.0490   -8.8340  -19.8890 N.am   80  ASN80      -0.0877
      9  N         16.3480   -9.5680  -14.9810 N.am   81  VAL81      -0.1966
     10  CA        15.7240   -9.7970  -13.6810 C.3    81  VAL81       0.1727
     11  C         14.9490  -11.1200  -13.6950 C.2    81  VAL81       0.2616
     12  O         13.9960  -11.2890  -14.4610 O.2    81  VAL81      -0.2715
     13  CB        14.7680   -8.6430  -13.2930 C.3    81  VAL81       0.0290
     14  CG1       14.0890   -8.9260  -11.9520 C.3    81  VAL81       0.0023
     15  CG2       15.5240   -7.3180  -13.2440 C.3    81  VAL81       0.0023
     16  N         15.3700  -12.0480  -12.8410 N.am   82  LEU82      -0.1963
     17  CA        14.7210  -13.3520  -12.7150 C.3    82  LEU82       0.1728
     18  C         13.5690  -13.2790  -11.7070 C.2    82  LEU82       0.2616
     19  O         12.5150  -13.8850  -11.9140 O.2    82  LEU82      -0.2715
     20  CB        15.7420  -14.4070  -12.2760 C.3    82  LEU82       0.0311
     21  CG        17.0410  -14.4640  -13.0930 C.3    82  LEU82       0.0022
     22  CD1       18.0000  -15.4850  -12.5110 C.3    82  LEU82       0.0001
     23  CD2       16.7510  -14.7620  -14.5590 C.3    82  LEU82       0.0001
     24  N         13.7900  -12.5360  -10.6220 N.am   83  ALA83      -0.1963
     25  CA        12.8030  -12.3700   -9.5570 C.3    83  ALA83       0.1728
     26  C         13.1450  -11.1710   -8.6670 C.2    83  ALA83       0.2616
     27  O         14.2780  -10.6820   -8.6740 O.2    83  ALA83      -0.2715
     28  CB        12.7210  -13.6410   -8.7130 C.3    83  ALA83       0.0334
     29  N         12.1550  -10.6990   -7.9100 N.am   84  HIS84      -0.1973
     30  CA        12.3910   -9.7170   -6.8450 C.3    84  HIS84       0.1656
     31  C         11.4250   -9.9200   -5.6880 C.2    84  HIS84       0.2291
     32  O         10.3440  -10.4950   -5.8570 O.2    84  HIS84      -0.2864
     33  CB        12.3070   -8.2720   -7.3610 C.3    84  HIS84       0.0771
     34  CG        10.9790   -7.9020   -7.9470 C.ar   84  HIS84       0.0820
     35  ND1       10.8050   -7.6620   -9.2910 N.ar   84  HIS84      -0.2267
     36  CD2        9.7670   -7.7150   -7.3720 C.ar   84  HIS84       0.1154
     37  CE1        9.5430   -7.3490   -9.5220 C.ar   84  HIS84       0.1986
     38  NE2        8.8900   -7.3780   -8.3750 N.ar   84  HIS84      -0.2212
     39  N         17.0410  -22.0500   -5.6470 N.3   115  LEU115     -0.1231
     40  CA        18.1380  -21.1090   -5.3690 C.3   115  LEU115      0.1693
     41  C         17.6850  -19.6480   -5.4000 C.2   115  LEU115      0.2591
     42  O         18.0620  -18.8630   -4.5280 O.2   115  LEU115     -0.2718
     43  CB        19.2920  -21.3100   -6.3620 C.3   115  LEU115      0.0284
     44  CG        20.1000  -22.6060   -6.2260 C.3   115  LEU115      0.0019
     45  CD1       20.9490  -22.8440   -7.4680 C.3   115  LEU115      0.0001
     46  CD2       20.9700  -22.5790   -4.9760 C.3   115  LEU115      0.0001
     47  N         16.8820  -19.2930   -6.4010 N.am  116  VAL116     -0.1980
     48  CA        16.3660  -17.9250   -6.5390 C.3   116  VAL116      0.1595
     49  C         15.3820  -17.5940   -5.4110 C.2   116  VAL116      0.2287
     50  O         15.4540  -16.5180   -4.8210 O.2   116  VAL116     -0.2864
     51  CB        15.6900  -17.6990   -7.9180 C.3   116  VAL116      0.0276
     52  CG1       15.0300  -16.3260   -7.9860 C.3   116  VAL116      0.0022
     53  CG2       16.7060  -17.8480   -9.0370 C.3   116  VAL116      0.0022
     54  N         17.1840  -16.8970   -2.1920 N.3   119  HIS119     -0.1226
     55  CA        17.7030  -15.5260   -2.2760 C.3   119  HIS119      0.1752
     56  C         16.5820  -14.4930   -2.1330 C.2   119  HIS119      0.2595
     57  O         16.7700  -13.4490   -1.5000 O.2   119  HIS119     -0.2718
     58  CB        18.4410  -15.3500   -3.6130 C.3   119  HIS119      0.0759
     59  CG        18.9060  -13.9520   -3.8910 C.ar  119  HIS119      0.0818
     60  ND1       20.1670  -13.5070   -3.5590 N.ar  119  HIS119     -0.2268
     61  CD2       18.2940  -12.9180   -4.5160 C.ar  119  HIS119      0.1154
     62  CE1       20.3030  -12.2510   -3.9460 C.ar  119  HIS119      0.1986
     63  NE2       19.1810  -11.8680   -4.5280 N.ar  119  HIS119     -0.2212
     64  N         15.4240  -14.7930   -2.7230 N.am  120  GLU120     -0.1979
     65  CA        14.2480  -13.9280   -2.6250 C.3   120  GLU120      0.1602
     66  C         13.6560  -13.8970   -1.2230 C.2   120  GLU120      0.2287
     67  O         13.2260  -12.8420   -0.7560 O.2   120  GLU120     -0.2864
     68  CB        13.1630  -14.3620   -3.6170 C.3   120  GLU120      0.0415
     69  CG        13.4970  -14.1330   -5.0900 C.3   120  GLU120      0.1163
     70  CD        14.1900  -12.8060   -5.3510 C.2   120  GLU120      0.3649
     71  OE1       13.7350  -11.7710   -4.8160 O.co2 120  GLU120     -0.2457
     72  OE2       15.1940  -12.8050   -6.0940 O.co2 120  GLU120     -0.2457
     73  N         15.3750  -11.5630    0.9420 N.3   123  HIS123     -0.1241
     74  CA        14.8220  -10.2100    0.8140 C.3   123  HIS123      0.1621
     75  C         13.5340  -10.0410    1.6230 C.2   123  HIS123      0.2264
     76  O         13.2970   -8.9770    2.1970 O.2   123  HIS123     -0.2867
     77  CB        14.5500   -9.8530   -0.6540 C.3   123  HIS123      0.0745
     78  CG        15.7820   -9.7610   -1.5000 C.ar  123  HIS123      0.0817
     79  ND1       16.8520   -8.9530   -1.1750 N.ar  123  HIS123     -0.2268
     80  CD2       16.1040  -10.3580   -2.6710 C.ar  123  HIS123      0.1154
     81  CE1       17.7840   -9.0660   -2.1040 C.ar  123  HIS123      0.1986
     82  NE2       17.3550   -9.9100   -3.0260 N.ar  123  HIS123     -0.2212
     83  N         21.5790   -7.1320   -0.7390 N.3   129  HIS129     -0.1241
     84  CA        22.6460   -7.8260   -1.4540 C.3   129  HIS129      0.1621
     85  C         24.0080   -7.7510   -0.7600 C.2   129  HIS129      0.2264
     86  O         24.3830   -6.7180   -0.2040 O.2   129  HIS129     -0.2867
     87  CB        22.7450   -7.3090   -2.8940 C.3   129  HIS129      0.0745
     88  CG        21.5530   -7.6490   -3.7360 C.ar  129  HIS129      0.0817
     89  ND1       21.0000   -6.7680   -4.6420 N.ar  129  HIS129     -0.2268
     90  CD2       20.8040   -8.7750   -3.8040 C.ar  129  HIS129      0.1154
     91  CE1       19.9680   -7.3400   -5.2360 C.ar  129  HIS129      0.1986
     92  NE2       19.8250   -8.5570   -4.7420 N.ar  129  HIS129     -0.2212
     93  N         24.9000  -16.3640   -0.6040 N.3   134  LEU134     -0.1245
     94  CA        23.6140  -16.5710   -1.2790 C.3   134  LEU134      0.1561
     95  C         22.9580  -15.2450   -1.6680 C.2   134  LEU134      0.2260
     96  O         22.2880  -15.1610   -2.6990 O.2   134  LEU134     -0.2867
     97  CB        22.6550  -17.3840   -0.3930 C.3   134  LEU134      0.0270
     98  CG        21.2080  -17.5670   -0.8790 C.3   134  LEU134      0.0019
     99  CD1       21.1570  -18.1380   -2.2900 C.3   134  LEU134      0.0001
    100  CD2       20.4200  -18.4530    0.0780 C.3   134  LEU134      0.0001
    101  N         24.4010  -12.5860   -2.7070 N.3   136  TYR136     -0.1228
    102  CA        25.1270  -11.8790   -3.7620 C.3   136  TYR136      0.1721
    103  C         24.2060  -11.7260   -4.9830 C.2   136  TYR136      0.2437
    104  O         23.5480  -12.6880   -5.3780 O.2   136  TYR136     -0.2733
    105  CB        26.4010  -12.6430   -4.1340 C.3   136  TYR136      0.0547
    106  CG        27.3990  -11.8180   -4.9090 C.ar  136  TYR136     -0.0200
    107  CD1       28.2650  -10.9450   -4.2560 C.ar  136  TYR136     -0.0009
    108  CD2       27.4730  -11.9020   -6.2970 C.ar  136  TYR136     -0.0009
    109  CE1       29.1850  -10.1800   -4.9630 C.ar  136  TYR136      0.0417
    110  CE2       28.3880  -11.1400   -7.0130 C.ar  136  TYR136      0.0417
    111  CZ        29.2410  -10.2820   -6.3410 C.ar  136  TYR136      0.1957
    112  OH        30.1480   -9.5290   -7.0490 O.3   136  TYR136     -0.2866
    113  N         24.1630  -10.5210   -5.5920 N.am  137  PRO137     -0.2718
    114  CA        23.1300  -10.1890   -6.5890 C.3   137  PRO137      0.1535
    115  C         23.2290  -10.8760   -7.9650 C.2   137  PRO137      0.2598
    116  O         22.6100  -10.3990   -8.9190 O.2   137  PRO137     -0.2715
    117  CB        23.2940   -8.6710   -6.7540 C.3   137  PRO137      0.0310
    118  CG        24.7100   -8.4150   -6.4490 C.3   137  PRO137      0.0237
    119  CD        25.0850   -9.3900   -5.3750 C.3   137  PRO137      0.0939
    120  N         23.9720  -11.9760   -8.0730 N.am  138  LEU138     -0.1964
    121  CA        24.1550  -12.6540   -9.3580 C.3   138  LEU138      0.1728
    122  C         23.9350  -14.1630   -9.2440 C.2   138  LEU138      0.2616
    123  O         24.4360  -14.8070   -8.3220 O.2   138  LEU138     -0.2715
    124  CB        25.5500  -12.3560   -9.9120 C.3   138  LEU138      0.0311
    125  CG        25.8230  -10.8740  -10.2000 C.3   138  LEU138      0.0022
    126  CD1       27.3040  -10.6280  -10.4050 C.3   138  LEU138      0.0001
    127  CD2       25.0220  -10.3940  -11.4050 C.3   138  LEU138      0.0001
    128  N         23.1830  -14.7120  -10.1960 N.am  139  TYR139     -0.1960
    129  CA        22.8230  -16.1290  -10.2020 C.3   139  TYR139      0.1771
    130  C         23.9780  -16.9790  -10.7290 C.2   139  TYR139      0.2619
    131  O         24.4080  -16.8080  -11.8710 O.2   139  TYR139     -0.2715
    132  CB        21.5690  -16.3470  -11.0610 C.3   139  TYR139      0.0574
    133  CG        21.1430  -17.7940  -11.2030 C.ar  139  TYR139     -0.0198
    134  CD1       20.3410  -18.4020  -10.2420 C.ar  139  TYR139     -0.0009
    135  CD2       21.5360  -18.5500  -12.3040 C.ar  139  TYR139     -0.0009
    136  CE1       19.9460  -19.7290  -10.3700 C.ar  139  TYR139      0.0417
    137  CE2       21.1470  -19.8770  -12.4410 C.ar  139  TYR139      0.0417
    138  CZ        20.3530  -20.4600  -11.4710 C.ar  139  TYR139      0.1957
    139  OH        19.9670  -21.7740  -11.6050 O.3   139  TYR139     -0.2866
    140  N         24.4760  -17.8880   -9.8910 N.am  140  HIS140     -0.1973
    141  CA        25.5160  -18.8390  -10.2940 C.3   140  HIS140      0.1656
    142  C         25.3110  -20.1890   -9.6130 C.2   140  HIS140      0.2291
    143  O         24.2910  -20.8480   -9.8160 O.2   140  HIS140     -0.2864
    144  CB        26.9140  -18.2910   -9.9790 C.3   140  HIS140      0.0771
    145  CG        27.1170  -17.9220   -8.5410 C.ar  140  HIS140      0.0820
    146  ND1       27.4310  -18.8490   -7.5700 N.ar  140  HIS140     -0.2267
    147  CD2       27.0640  -16.7230   -7.9130 C.ar  140  HIS140      0.1154
    148  CE1       27.5550  -18.2390   -6.4050 C.ar  140  HIS140      0.1986
    149  NE2       27.3380  -16.9480   -6.5850 N.ar  140  HIS140     -0.2212
@<TRIPOS>BOND
     1     8     6   am
     2     7     6    2
     3     6     5    1
     4     1     2    1
     5     5     2    1
     6     2     3    1
     7     3     9   am
     8     3     4    2
     9     9    10    1
    10    23    21    1
    11    12    11    2
    12    11    10    1
    13    11    16   am
    14    10    13    1
    15    13    15    1
    16    13    14    1
    17    21    22    1
    18    21    20    1
    19    16    17    1
    20    17    20    1
    21    17    18    1
    22   137   135   ar
    23   137   138   ar
    24   135   133   ar
    25    19    18    2
    26   131   130    2
    27    18    24   am
    28   139   138    1
    29   138   136   ar
    30   127   125    1
    31   133   132    1
    32   133   134   ar
    33   132   129    1
    34   130   129    1
    35   130   140   am
    36    24    25    1
    37   126   125    1
    38   136   134   ar
    39   141   144    1
    40   141   140    1
    41   141   142    1
    42   129   128    1
    43   125   124    1
    44   128   122   am
    45   144   145    1
    46   124   121    1
    47   143   142    2
    48    25    28    1
    49    25    26    1
    50    37    35   ar
    51    37    38   ar
    52   121   122    1
    53   121   120    1
    54    35    34   ar
    55   122   123    2
    56    53    51    1
    57   116   115    2
    58    27    26    2
    59    26    29   am
    60   145   147   ar
    61   145   146   ar
    62    38    36   ar
    63   120   115   am
    64    52    51    1
    65   115   114    1
    66    34    36   ar
    67    34    33    1
    68    51    48    1
    69   147   149   ar
    70    29    30    1
    71   146   148   ar
    72    45    44    1
    73    33    30    1
    74   112   111    1
    75   110   111   ar
    76   110   108   ar
    77    30    31    1
    78   117   114    1
    79   117   118    1
    80   114   113    1
    81   149   148   ar
    82    48    47    1
    83    48    49    1
    84   118   119    1
    85    47    41   am
    86    43    44    1
    87    43    40    1
    88   111   109   ar
    89   108   106   ar
    90    44    46    1
    91    72    70   ar
    92    32    31    2
    93    39    40    1
    94   113   119    1
    95   113   103   am
    96    49    50    2
    97    41    40    1
    98    41    42    2
    99   104   103    2
   100    70    69    1
   101    70    71   ar
   102    91    92   ar
   103    91    89   ar
   104    69    68    1
   105   103   102    1
   106   109   107   ar
   107   106   107   ar
   108   106   105    1
   109    92    90   ar
   110    89    88   ar
   111    63    61   ar
   112    63    62   ar
   113    61    59   ar
   114   105   102    1
   115    62    60   ar
   116    59    58    1
   117    59    60   ar
   118    90    88   ar
   119   102   101    1
   120    88    87    1
   121    68    65    1
   122    58    55    1
   123    82    80   ar
   124    82    81   ar
   125    87    84    1
   126    64    65    1
   127    64    56   am
   128    96    95    2
   129    80    78   ar
   130    65    66    1
   131    99    98    1
   132    55    54    1
   133    55    56    1
   134    56    57    2
   135    81    79   ar
   136    95    94    1
   137    78    79   ar
   138    78    77    1
   139    84    85    1
   140    84    83    1
   141    94    93    1
   142    94    97    1
   143    66    67    2
   144    98    97    1
   145    98   100    1
   146    85    86    2
   147    77    74    1
   148    74    73    1
   149    74    75    1
   150    75    76    2
