@<TRIPOS>MOLECULE
tmp/3ohtB02.pdb
 123 122 0 0 0
SMALL
GASTEIGER

@<TRIPOS>ATOM
      1  N         18.9760   26.0420   -0.2660 N.3   139  HIS139     -0.1241
      2  CA        18.0080   25.2210   -0.9780 C.3   139  HIS139      0.1621
      3  C         18.4140   24.9580   -2.4350 C.2   139  HIS139      0.2264
      4  O         18.1740   23.8730   -2.9600 O.2   139  HIS139     -0.2867
      5  CB        16.6030   25.8370   -0.9060 C.3   139  HIS139      0.0745
      6  CG        16.0640   25.9570    0.4850 C.ar  139  HIS139      0.0817
      7  ND1       15.2200   26.9780    0.8690 N.ar  139  HIS139     -0.2268
      8  CD2       16.2570   25.1940    1.5860 C.ar  139  HIS139      0.1154
      9  CE1       14.9090   26.8350    2.1450 C.ar  139  HIS139      0.1986
     10  NE2       15.5240   25.7580    2.6030 N.ar  139  HIS139     -0.2212
     11  N         20.6640   21.9410   -3.4430 N.3   142  ASP142     -0.1225
     12  CA        20.0810   20.5930   -3.3790 C.3   142  ASP142      0.1805
     13  C         20.9730   19.6250   -2.5930 C.2   142  ASP142      0.2598
     14  O         21.4050   18.6060   -3.1300 O.2   142  ASP142     -0.2718
     15  CB        19.8630   20.0370   -4.7870 C.3   142  ASP142      0.1424
     16  CG        18.9240   20.8820   -5.6200 C.2   142  ASP142      0.3668
     17  OD1       19.1080   20.9260   -6.8490 O.co2 142  ASP142     -0.2456
     18  OD2       18.0030   21.4920   -5.0680 O.co2 142  ASP142     -0.2456
     19  N         21.2570   19.9540   -1.3340 N.am  143  ILE143     -0.1966
     20  CA        22.2640   19.2330   -0.5680 C.3   143  ILE143      0.1727
     21  C         21.6400   18.0140    0.0770 C.2   143  ILE143      0.2616
     22  O         20.7790   18.1370    0.9500 O.2   143  ILE143     -0.2715
     23  CB        22.9310   20.1160    0.5090 C.3   143  ILE143      0.0290
     24  CG1       23.5380   21.3790   -0.1190 C.3   143  ILE143      0.0022
     25  CG2       23.9900   19.3180    1.2730 C.3   143  ILE143      0.0023
     26  CD1       23.8010   22.5090    0.8720 C.3   143  ILE143      0.0001
     27  N         22.0990   16.8420   -0.3580 N.am  144  ILE144     -0.1963
     28  CA        21.5290   15.5620    0.0450 C.3   144  ILE144      0.1727
     29  C         21.5410   15.3480    1.5590 C.2   144  ILE144      0.2616
     30  O         20.5210   14.9890    2.1360 O.2   144  ILE144     -0.2715
     31  CB        22.2350   14.3920   -0.6700 C.3   144  ILE144      0.0290
     32  CG1       21.9760   14.4710   -2.1720 C.3   144  ILE144      0.0022
     33  CG2       21.7790   13.0490   -0.0920 C.3   144  ILE144      0.0023
     34  CD1       22.6140   13.3640   -2.9750 C.3   144  ILE144      0.0001
     35  N         22.6920   15.5670    2.1920 N.am  145  HIS145     -0.1959
     36  CA        22.8140   15.4290    3.6480 C.3   145  HIS145      0.1787
     37  C         22.5980   16.7860    4.3160 C.2   145  HIS145      0.2620
     38  O         23.2480   17.7720    3.9710 O.2   145  HIS145     -0.2715
     39  CB        24.1830   14.8630    4.0100 C.3   145  HIS145      0.0785
     40  CG        24.3450   14.5430    5.4620 C.ar  145  HIS145      0.0821
     41  ND1       24.9830   15.3890    6.3430 N.ar  145  HIS145     -0.2267
     42  CD2       23.9670   13.4610    6.1840 C.ar  145  HIS145      0.1154
     43  CE1       24.9890   14.8430    7.5450 C.ar  145  HIS145      0.1986
     44  NE2       24.3690   13.6780    7.4790 N.ar  145  HIS145     -0.2212
     45  N         21.6780   16.8390    5.2680 N.am  146  ARG146     -0.1977
     46  CA        21.2660   18.1160    5.8390 C.3   146  ARG146      0.1597
     47  C         22.1380   18.5220    7.0260 C.2   146  ARG146      0.2287
     48  O         22.0230   17.9540    8.1090 O.2   146  ARG146     -0.2864
     49  CB        19.7790   18.0770    6.2290 C.3   146  ARG146      0.0334
     50  CG        19.1630   19.4480    6.4410 C.3   146  ARG146      0.0492
     51  CD        17.6580   19.3640    6.5550 C.3   146  ARG146      0.2205
     52  NE        17.2290   19.0310    7.9140 N.pl3 146  ARG146     -0.0865
     53  CZ        16.5290   19.8440    8.6980 C.cat 146  ARG146      0.5346
     54  NH1       16.1640   21.0450    8.2620 N.pl3 146  ARG146      0.1354
     55  NH2       16.1870   19.4560    9.9150 N.pl3 146  ARG146      0.1354
     56  N         14.1300    3.3060   11.3120 N.3   169  ARG169     -0.1245
     57  CA        13.3140    4.3770   10.7590 C.3   169  ARG169      0.1563
     58  C         12.5980    3.9000    9.4940 C.2   169  ARG169      0.2260
     59  O         13.1790    3.1890    8.6750 O.2   169  ARG169     -0.2867
     60  CB        14.1750    5.5910   10.4470 C.3   169  ARG169      0.0307
     61  CG        13.4340    6.8920   10.5630 C.3   169  ARG169      0.0489
     62  CD        13.6950    7.5450   11.9000 C.3   169  ARG169      0.2205
     63  NE        14.7690    8.5380   11.8060 N.pl3 169  ARG169     -0.0865
     64  CZ        15.5620    8.9020   12.8150 C.cat 169  ARG169      0.5346
     65  NH1       15.4450    8.3430   14.0180 N.pl3 169  ARG169      0.1354
     66  NH2       16.4940    9.8220   12.6140 N.pl3 169  ARG169      0.1354
     67  N         10.6790   13.9810    5.0300 N.3   177  TRP177     -0.1227
     68  CA        11.7630   14.9450    5.2160 C.3   177  TRP177      0.1737
     69  C         12.0910   15.6150    3.9020 C.2   177  TRP177      0.2595
     70  O         12.0090   16.8330    3.7750 O.2   177  TRP177     -0.2718
     71  CB        13.0330   14.2760    5.7410 C.3   177  TRP177      0.0564
     72  CG        12.9610   13.8150    7.1550 C.ar  177  TRP177      0.0003
     73  CD1       11.9610   14.0610    8.0620 C.ar  177  TRP177      0.0946
     74  CD2       13.9550   13.0580    7.8470 C.ar  177  TRP177      0.0152
     75  NE1       12.2700   13.4820    9.2680 N.ar  177  TRP177     -0.2442
     76  CE2       13.4880   12.8600    9.1640 C.ar  177  TRP177      0.0810
     77  CE3       15.2010   12.5300    7.4840 C.ar  177  TRP177      0.0012
     78  CZ2       14.2190   12.1440   10.1170 C.ar  177  TRP177      0.0191
     79  CZ3       15.9240   11.8150    8.4330 C.ar  177  TRP177      0.0001
     80  CH2       15.4280   11.6290    9.7330 C.ar  177  TRP177      0.0015
     81  N         12.4520   14.7910    2.9250 N.am  178  MET178     -0.1979
     82  CA        12.8100   15.2460    1.5950 C.3   178  MET178      0.1605
     83  C         11.7250   16.1200    1.0200 C.2   178  MET178      0.2287
     84  O         12.0080   17.1420    0.3910 O.2   178  MET178     -0.2864
     85  CB        13.0240   14.0590    0.6730 C.3   178  MET178      0.0413
     86  CG        14.1920   13.2100    1.0690 C.3   178  MET178      0.0598
     87  SD        14.5290   11.9680   -0.1660 S.3   178  MET178     -0.1393
     88  CE        14.9200   12.9970   -1.5850 C.3   178  MET178      0.0692
     89  N          9.3610   17.9940    2.4460 N.3   180  TYR180     -0.1227
     90  CA         9.0900   19.2770    3.0730 C.3   180  TYR180      0.1736
     91  C         10.3280   20.0050    3.5800 C.2   180  TYR180      0.2595
     92  O         10.2130   21.0080    4.3050 O.2   180  TYR180     -0.2718
     93  CB         8.0800   19.0840    4.1970 C.3   180  TYR180      0.0548
     94  CG         6.7300   18.6300    3.7010 C.ar  180  TYR180     -0.0200
     95  CD1        6.2080   17.3850    4.0760 C.ar  180  TYR180     -0.0009
     96  CD2        5.9720   19.4350    2.8380 C.ar  180  TYR180     -0.0009
     97  CE1        4.9610   16.9610    3.6110 C.ar  180  TYR180      0.0417
     98  CE2        4.7210   19.0110    2.3690 C.ar  180  TYR180      0.0417
     99  CZ         4.2290   17.7850    2.7680 C.ar  180  TYR180      0.1957
    100  OH         3.0100   17.3730    2.3200 O.3   180  TYR180     -0.2866
    101  N         11.5060   19.5340    3.1630 N.am  181  ASN181     -0.1960
    102  CA        12.7580   20.0540    3.7000 C.3   181  ASN181      0.1819
    103  C         12.9090   21.5510    3.5180 C.2   181  ASN181      0.2621
    104  O         13.5310   22.2020    4.3510 O.2   181  ASN181     -0.2715
    105  CB        13.9720   19.3090    3.1590 C.3   181  ASN181      0.1195
    106  CG        14.7940   20.1500    2.2220 C.2   181  ASN181      0.2630
    107  OD1       14.5280   20.2030    1.0180 O.2   181  ASN181     -0.2716
    108  ND2       15.8120   20.8180    2.7670 N.am  181  ASN181     -0.0877
    109  N         12.3380   22.0900    2.4420 N.am  182  MET182     -0.1977
    110  CA        12.3020   23.5440    2.2280 C.3   182  MET182      0.1605
    111  C         11.1840   24.2230    3.0280 C.2   182  MET182      0.2287
    112  O         11.4110   25.2680    3.6260 O.2   182  MET182     -0.2864
    113  CB        12.1580   23.9040    0.7470 C.3   182  MET182      0.0413
    114  CG        13.2810   23.4380   -0.1510 C.3   182  MET182      0.0598
    115  SD        13.0550   24.0390   -1.8400 S.3   182  MET182     -0.1393
    116  CE        14.0060   22.8630   -2.7820 C.3   182  MET182      0.0692
    117  N          9.6890   23.2920    5.8360 N.3   184  VAL184     -0.1245
    118  CA         9.9790   23.3460    7.2770 C.3   184  VAL184      0.1561
    119  C         10.9770   24.4520    7.6010 C.2   184  VAL184      0.2260
    120  O         10.9320   25.0200    8.6990 O.2   184  VAL184     -0.2867
    121  CB        10.4420   21.9910    7.9200 C.3   184  VAL184      0.0252
    122  CG1        9.6220   20.8120    7.4000 C.3   184  VAL184      0.0019
    123  CG2       11.9120   21.7510    7.7190 C.3   184  VAL184      0.0019
@<TRIPOS>BOND
     1    17    16   ar
     2    16    18   ar
     3    16    15    1
     4    15    12    1
     5    11    12    1
     6    12    13    1
     7    14    13    2
     8    34    32    1
     9     4     3    2
    10   116   115    1
    11    13    19   am
    12     3     2    1
    13    32    31    1
    14   115   114    1
    15    88    87    1
    16    19    20    1
    17     2     5    1
    18     2     1    1
    19     5     6    1
    20    31    33    1
    21    31    28    1
    22    20    21    1
    23    20    23    1
    24    27    28    1
    25    27    21   am
    26    87    86    1
    27   114   113    1
    28    24    23    1
    29    24    26    1
    30    28    29    1
    31    21    22    2
    32    84    83    2
    33     6     7   ar
    34     6     8   ar
    35    23    25    1
    36    85    86    1
    37    85    82    1
    38   113   110    1
    39     7     9   ar
    40   107   106    2
    41    83    82    1
    42    29    30    2
    43    29    35   am
    44     8    10   ar
    45    82    81    1
    46     9    10   ar
    47    35    36    1
    48   106   108   am
    49   106   105    1
    50   110   109    1
    51   110   111    1
    52   100    99    1
    53    98    99   ar
    54    98    96   ar
    55   109   103   am
    56    89    90    1
    57    99    97   ar
    58    96    94   ar
    59    81    69   am
    60   111   112    2
    61    90    91    1
    62    90    93    1
    63   105   102    1
    64   101    91   am
    65   101   102    1
    66   103   102    1
    67   103   104    2
    68    91    92    2
    69    97    95   ar
    70    36    39    1
    71    36    37    1
    72    94    95   ar
    73    94    93    1
    74    70    69    2
    75    69    68    1
    76    38    37    2
    77    39    40    1
    78    37    45   am
    79    67    68    1
    80    68    71    1
    81    45    46    1
    82    40    42   ar
    83    40    41   ar
    84    71    72    1
    85   117   118    1
    86    46    49    1
    87    46    47    1
    88    42    44   ar
    89    49    50    1
    90    41    43   ar
    91    50    51    1
    92    51    52    1
    93    47    48    2
    94    72    74   ar
    95    72    73   ar
    96   118   119    1
    97   118   121    1
    98   122   121    1
    99    44    43   ar
   100    77    74   ar
   101    77    79   ar
   102   119   120    2
   103   123   121    1
   104    74    76   ar
   105    52    53    2
   106    73    75   ar
   107    54    53    1
   108    79    80   ar
   109    59    58    2
   110    53    55    1
   111    76    75   ar
   112    76    78   ar
   113    58    57    1
   114    80    78   ar
   115    60    61    1
   116    60    57    1
   117    61    62    1
   118    57    56    1
   119    63    62    1
   120    63    64    2
   121    66    64    1
   122    64    65    1
