@<TRIPOS>MOLECULE
tmp/3ohtB01.pdb
 175 167 0 0 0
SMALL
GASTEIGER

@<TRIPOS>ATOM
      1  N         36.3680   27.1020   22.7900 N.3    27  VAL27      -0.1231
      2  CA        35.0850   27.7630   23.0240 C.3    27  VAL27       0.1692
      3  C         33.9270   26.7820   23.2160 C.2    27  VAL27       0.2593
      4  O         33.0470   27.0130   24.0470 O.2    27  VAL27      -0.2718
      5  CB        34.7470   28.7740   21.9090 C.3    27  VAL27       0.0266
      6  CG1       35.5280   30.0640   22.1090 C.3    27  VAL27       0.0020
      7  CG2       35.0230   28.1810   20.5310 C.3    27  VAL27       0.0020
      8  N         33.9360   25.6900   22.4550 N.am   28  GLY28      -0.1942
      9  CA        32.8660   24.6950   22.5180 C.3    28  GLY28       0.2014
     10  C         33.1360   23.4770   21.6610 C.2    28  GLY28       0.2639
     11  O         34.0330   23.4820   20.8200 O.2    28  GLY28      -0.2714
     12  N         32.3410   22.4330   21.8700 N.am   29  SER29      -0.1949
     13  CA        32.5820   21.1380   21.2400 C.3    29  SER29       0.1924
     14  C         31.2960   20.4420   20.8050 C.2    29  SER29       0.2314
     15  O         30.2010   20.8110   21.2270 O.2    29  SER29      -0.2863
     16  CB        33.3780   20.2270   22.1890 C.3    29  SER29       0.2116
     17  OG        33.7400   19.0030   21.5590 O.3    29  SER29      -0.2180
     18  N         31.2710   15.8980   16.2750 N.3    32  TYR32      -0.1241
     19  CA        32.1040   16.1310   15.0870 C.3    32  TYR32       0.1605
     20  C         33.5710   16.3910   15.4410 C.2    32  TYR32       0.2264
     21  O         34.4600   15.7140   14.9270 O.2    32  TYR32      -0.2867
     22  CB        31.5370   17.2930   14.2480 C.3    32  TYR32       0.0534
     23  CG        31.2540   18.5430   15.0540 C.ar   32  TYR32      -0.0201
     24  CD1       29.9750   18.8370   15.5140 C.ar   32  TYR32      -0.0009
     25  CD2       32.2740   19.4220   15.3760 C.ar   32  TYR32      -0.0009
     26  CE1       29.7340   19.9880   16.2750 C.ar   32  TYR32       0.0417
     27  CE2       32.0430   20.5700   16.1280 C.ar   32  TYR32       0.0417
     28  CZ        30.7830   20.8450   16.5770 C.ar   32  TYR32       0.1957
     29  OH        30.6030   21.9870   17.3210 O.3    32  TYR32      -0.2866
     30  N         36.3190   22.9210   18.9230 N.3    35  VAL35      -0.1245
     31  CA        36.5680   24.2140   18.2730 C.3    35  VAL35       0.1561
     32  C         37.3610   25.1760   19.1640 C.2    35  VAL35       0.2260
     33  O         37.1110   25.2680   20.3650 O.2    35  VAL35      -0.2867
     34  CB        35.2510   24.8830   17.7890 C.3    35  VAL35       0.0252
     35  CG1       35.5000   26.3060   17.2910 C.3    35  VAL35       0.0019
     36  CG2       34.5960   24.0590   16.6950 C.3    35  VAL35       0.0019
     37  N         38.0780   30.8270   13.7080 N.3    48  ALA48      -0.1231
     38  CA        37.6390   29.5780   14.3290 C.3    48  ALA48       0.1694
     39  C         38.4050   28.3910   13.7600 C.2    48  ALA48       0.2592
     40  O         38.4700   28.2240   12.5410 O.2    48  ALA48      -0.2718
     41  CB        36.1410   29.3890   14.1410 C.3    48  ALA48       0.0304
     42  N         38.9850   27.5790   14.6450 N.am   49  VAL49      -0.1966
     43  CA        39.7310   26.3780   14.2450 C.3    49  VAL49       0.1727
     44  C         39.1630   25.1320   14.9070 C.2    49  VAL49       0.2616
     45  O         39.1340   25.0190   16.1290 O.2    49  VAL49      -0.2715
     46  CB        41.2510   26.4790   14.5730 C.3    49  VAL49       0.0290
     47  CG1       41.9340   25.1100   14.4540 C.3    49  VAL49       0.0023
     48  CG2       41.9410   27.4980   13.6700 C.3    49  VAL49       0.0023
     49  N         38.7360   24.1860   14.0800 N.am   50  LYS50      -0.1977
     50  CA        38.1170   22.9540   14.5510 C.3    50  LYS50       0.1596
     51  C         38.9950   21.7430   14.2400 C.2    50  LYS50       0.2287
     52  O         39.4300   21.5630   13.0990 O.2    50  LYS50      -0.2864
     53  CB        36.7350   22.8020   13.9130 C.3    50  LYS50       0.0298
     54  CG        35.9990   21.5210   14.2450 C.3    50  LYS50       0.0038
     55  CD        34.7600   21.3830   13.3700 C.3    50  LYS50       0.0206
     56  CE        34.3070   19.9480   13.3460 C.3    50  LYS50       0.1093
     57  NZ        33.1360   19.7230   12.4630 N.3    50  LYS50      -0.1314
     58  N         32.0300   17.0490    5.0690 N.3    68  GLU68      -0.1245
     59  CA        32.1970   18.3880    5.6270 C.3    68  GLU68       0.1567
     60  C         33.2360   19.1970    4.8580 C.2    68  GLU68       0.2260
     61  O         33.0560   20.4060    4.6440 O.2    68  GLU68      -0.2867
     62  CB        32.5680   18.3360    7.1060 C.3    68  GLU68       0.0388
     63  CG        32.2930   19.6350    7.8260 C.3    68  GLU68       0.1160
     64  CD        32.6880   19.6040    9.2810 C.2    68  GLU68       0.3649
     65  OE1       32.2150   20.4770   10.0390 O.co2  68  GLU68      -0.2457
     66  OE2       33.4730   18.7110    9.6710 O.co2  68  GLU68      -0.2457
     67  N         31.8600   22.7700    2.8570 N.3    72  LEU72      -0.1245
     68  CA        32.3440   24.1050    3.1810 C.3    72  LEU72       0.1561
     69  C         33.2900   24.6250    2.1140 C.2    72  LEU72       0.2260
     70  O         33.4870   25.8330    1.9880 O.2    72  LEU72      -0.2867
     71  CB        33.0220   24.1050    4.5520 C.3    72  LEU72       0.0270
     72  CG        32.2570   23.4380    5.6990 C.3    72  LEU72       0.0019
     73  CD1       33.0160   23.6360    6.9800 C.3    72  LEU72       0.0001
     74  CD2       30.8420   23.9640    5.8310 C.3    72  LEU72       0.0001
     75  N         28.5370   29.8160    6.3180 N.3    81  ILE81      -0.1245
     76  CA        29.8890   29.4870    6.7560 C.3    81  ILE81       0.1561
     77  C         30.7010   28.8300    5.6260 C.2    81  ILE81       0.2260
     78  O         30.2140   27.9310    4.9250 O.2    81  ILE81      -0.2867
     79  CB        29.8810   28.6160    8.0400 C.3    81  ILE81       0.0252
     80  CG1       31.2260   28.6880    8.7620 C.3    81  ILE81       0.0019
     81  CG2       29.4810   27.1910    7.7390 C.3    81  ILE81       0.0019
     82  CD1       31.4860   30.0180    9.4810 C.3    81  ILE81       0.0001
     83  N         39.9360   22.1790   10.3660 N.3   101  LEU101     -0.1245
     84  CA        39.1370   23.0080    9.4640 C.3   101  LEU101      0.1561
     85  C         39.0170   24.4120   10.0210 C.2   101  LEU101      0.2260
     86  O         38.7640   24.5880   11.2080 O.2   101  LEU101     -0.2867
     87  CB        37.7490   22.4030    9.2750 C.3   101  LEU101      0.0270
     88  CG        37.6620   21.0350    8.6160 C.3   101  LEU101      0.0019
     89  CD1       36.4140   20.3280    9.0850 C.3   101  LEU101      0.0001
     90  CD2       37.6540   21.1900    7.1220 C.3   101  LEU101      0.0001
     91  N         37.3450   28.3450    9.7450 N.3   103  THR103     -0.1203
     92  CA        36.3420   29.2860    9.2620 C.3   103  THR103      0.1994
     93  C         36.4310   30.6100   10.0270 C.2   103  THR103      0.2618
     94  O         37.3210   30.7990   10.8640 O.2   103  THR103     -0.2717
     95  CB        34.9100   28.7500    9.4680 C.3   103  THR103      0.1784
     96  OG1       34.5880   28.7590   10.8710 O.3   103  THR103     -0.2211
     97  CG2       34.7440   27.3450    8.8810 C.3   103  THR103      0.0376
     98  N         35.4900   31.5130    9.7540 N.am  104  HIS104     -0.1961
     99  CA        35.3270   32.7090   10.5680 C.3   104  HIS104      0.1787
    100  C         34.7450   32.3300   11.9210 C.2   104  HIS104      0.2620
    101  O         34.1730   31.2500   12.0650 O.2   104  HIS104     -0.2715
    102  CB        34.4440   33.7390    9.8560 C.3   104  HIS104      0.0785
    103  CG        35.1350   34.4430    8.7300 C.ar  104  HIS104      0.0821
    104  ND1       36.1910   35.3060    8.9300 N.ar  104  HIS104     -0.2267
    105  CD2       34.9260   34.4090    7.3920 C.ar  104  HIS104      0.1154
    106  CE1       36.6050   35.7690    7.7630 C.ar  104  HIS104      0.1986
    107  NE2       35.8520   35.2440    6.8140 N.ar  104  HIS104     -0.2212
    108  N         34.9240   33.2020   12.9120 N.am  105  LEU105     -0.1963
    109  CA        34.3460   33.0100   14.2490 C.3   105  LEU105      0.1728
    110  C         33.1480   33.9260   14.4320 C.2   105  LEU105      0.2616
    111  O         33.2220   35.1190   14.1220 O.2   105  LEU105     -0.2715
    112  CB        35.3790   33.2830   15.3470 C.3   105  LEU105      0.0311
    113  CG        34.9160   33.1170   16.7990 C.3   105  LEU105      0.0022
    114  CD1       34.5880   31.6670   17.1080 C.3   105  LEU105      0.0001
    115  CD2       35.9580   33.6380   17.7670 C.3   105  LEU105      0.0001
    116  N         32.0500   33.3680   14.9400 N.am  106  MET106     -0.1963
    117  CA        30.8120   34.1300   15.0980 C.3   106  MET106      0.1736
    118  C         30.6100   34.6460   16.5280 C.2   106  MET106      0.2617
    119  O         30.6070   35.8610   16.7610 O.2   106  MET106     -0.2715
    120  CB        29.6070   33.3330   14.6030 C.3   106  MET106      0.0427
    121  CG        29.7700   32.7420   13.2030 C.3   106  MET106      0.0599
    122  SD        30.4970   33.8290   11.9550 S.3   106  MET106     -0.1393
    123  CE        29.2600   35.1210   11.7990 C.3   106  MET106      0.0692
    124  N         30.4460   33.7330   17.4790 N.am  107  GLY107     -0.1940
    125  CA        30.4000   34.1140   18.8900 C.3   107  GLY107      0.2014
    126  C         29.0450   34.3780   19.5210 C.2   107  GLY107      0.2639
    127  O         28.9860   34.8450   20.6580 O.2   107  GLY107     -0.2714
    128  N         27.9590   34.0910   18.8010 N.am  108  ALA108     -0.1963
    129  CA        26.6120   34.1380   19.3860 C.3   108  ALA108      0.1728
    130  C         25.6270   33.1650   18.7290 C.2   108  ALA108      0.2616
    131  O         25.2180   33.3480   17.5790 O.2   108  ALA108     -0.2715
    132  CB        26.0540   35.5700   19.3900 C.3   108  ALA108      0.0334
    133  N         25.2640   32.1320   19.4870 N.am  109  ASP109     -0.1971
    134  CA        24.3000   31.1110   19.0770 C.3   109  ASP109      0.1709
    135  C         22.8840   31.6760   19.0280 C.2   109  ASP109      0.2293
    136  O         22.6230   32.7670   19.5460 O.2   109  ASP109     -0.2864
    137  CB        24.3290   29.9320   20.0640 C.3   109  ASP109      0.1436
    138  CG        25.3640   28.8660   19.6980 C.2   109  ASP109      0.3671
    139  OD1       26.3110   29.1560   18.9260 O.co2 109  ASP109     -0.2456
    140  OD2       25.2290   27.7250   20.1950 O.co2 109  ASP109     -0.2456
    141  N         21.4480   32.4020   22.2320 N.3   112  ASN112     -0.1240
    142  CA        22.0710   33.5800   22.8320 C.3   112  ASN112      0.1653
    143  C         21.5500   34.8840   22.2240 C.2   112  ASN112      0.2266
    144  O         21.7540   35.9720   22.7800 O.2   112  ASN112     -0.2867
    145  CB        23.6030   33.4990   22.7160 C.3   112  ASN112      0.1155
    146  CG        24.2260   32.5290   23.7240 C.2   112  ASN112      0.2627
    147  OD1       23.7420   31.4110   23.9210 O.2   112  ASN112     -0.2716
    148  ND2       25.3130   32.9570   24.3570 N.am  112  ASN112     -0.0877
    149  N         25.8060   28.0000   10.2880 N.3   164  LEU164     -0.1231
    150  CA        26.8410   26.9880   10.5200 C.3   164  LEU164      0.1693
    151  C         26.3200   25.5720   10.2780 C.2   164  LEU164      0.2592
    152  O         25.1240   25.3780   10.0720 O.2   164  LEU164     -0.2718
    153  CB        27.4120   27.1050   11.9390 C.3   164  LEU164      0.0284
    154  CG        27.8010   28.4660   12.5240 C.3   164  LEU164      0.0019
    155  CD1       28.4800   28.2510   13.8590 C.3   164  LEU164      0.0001
    156  CD2       28.7060   29.2530   11.5990 C.3   164  LEU164      0.0001
    157  N         27.2200   24.5900   10.3110 N.am  165  ASP165     -0.1960
    158  CA        26.8610   23.1870   10.0590 C.3   165  ASP165      0.1840
    159  C         26.5540   22.3760   11.3250 C.2   165  ASP165      0.2622
    160  O         26.8510   21.1770   11.3860 O.2   165  ASP165     -0.2715
    161  CB        27.9450   22.4880    9.2190 C.3   165  ASP165      0.1450
    162  CG        29.2550   22.2700    9.9830 C.2   165  ASP165      0.3671
    163  OD1       30.2130   21.7770    9.3600 O.co2 165  ASP165     -0.2456
    164  OD2       29.3400   22.5830   11.1880 O.co2 165  ASP165     -0.2456
    165  N         25.9620   23.0380   12.3190 N.am  166  PHE166     -0.1974
    166  CA        25.5910   22.4230   13.5970 C.3   166  PHE166      0.1639
    167  C         24.8450   23.4460   14.4700 C.2   166  PHE166      0.2290
    168  O         24.8710   24.6530   14.1830 O.2   166  PHE166     -0.2864
    169  CB        26.8370   21.9050   14.3320 C.3   166  PHE166      0.0560
    170  CG        27.6660   22.9890   14.9560 C.ar  166  PHE166     -0.0200
    171  CD1       28.5380   23.7530   14.1830 C.ar  166  PHE166     -0.0042
    172  CD2       27.5650   23.2590   16.3190 C.ar  166  PHE166     -0.0042
    173  CE1       29.3090   24.7680   14.7630 C.ar  166  PHE166     -0.0003
    174  CE2       28.3190   24.2770   16.9050 C.ar  166  PHE166     -0.0003
    175  CZ        29.1990   25.0280   16.1240 C.ar  166  PHE166     -0.0000
@<TRIPOS>BOND
     1    70    69    2
     2    69    68    1
     3    67    68    1
     4    68    71    1
     5    71    72    1
     6    61    60    2
     7    60    59    1
     8    78    77    2
     9    58    59    1
    10    77    76    1
    11    59    62    1
    12    72    74    1
    13    72    73    1
    14    75    76    1
    15    76    79    1
    16   107   105   ar
    17   107   106   ar
    18    62    63    1
    19    90    88    1
    20   105   103   ar
    21    81    79    1
    22   106   104   ar
    23    63    64    1
    24    79    80    1
    25    88    89    1
    26    88    87    1
    27   103   104   ar
    28   103   102    1
    29    80    82    1
    30    97    95    1
    31   161   162    1
    32   161   158    1
    33    92    95    1
    34    92    91    1
    35    92    93    1
    36    87    84    1
    37    64    66   ar
    38    64    65   ar
    39   163   162   ar
    40    84    85    1
    41    84    83    1
    42    95    96    1
    43    98    93   am
    44    98    99    1
    45   102    99    1
    46   162   164   ar
    47    85    86    2
    48    93    94    2
    49   158   157    1
    50   158   159    1
    51   152   151    2
    52   151   157   am
    53   151   150    1
    54   149   150    1
    55   150   153    1
    56    99   100    1
    57   159   160    2
    58   159   165   am
    59   156   154    1
    60   123   122    1
    61   100   101    2
    62   100   108   am
    63   153   154    1
    64   122   121    1
    65   165   166    1
    66    57    56    1
    67   154   155    1
    68    40    39    2
    69   108   109    1
    70    52    51    2
    71   121   120    1
    72    56    55    1
    73    55    54    1
    74   166   169    1
    75   166   167    1
    76    48    46    1
    77    37    38    1
    78    39    38    1
    79    39    42   am
    80    53    54    1
    81    53    50    1
    82    49    50    1
    83    49    44   am
    84   111   110    2
    85    41    38    1
    86   168   167    2
    87   171   173   ar
    88   171   170   ar
    89    51    50    1
    90    43    46    1
    91    43    42    1
    92    43    44    1
    93    22    23    1
    94    22    19    1
    95   109   110    1
    96   109   112    1
    97   169   170    1
    98   110   116   am
    99    47    46    1
   100   120   117    1
   101   173   175   ar
   102    44    45    2
   103    21    20    2
   104   116   117    1
   105   170   172   ar
   106    23    25   ar
   107    23    24   ar
   108    19    20    1
   109    19    18    1
   110   117   118    1
   111   112   113    1
   112    25    27   ar
   113    24    26   ar
   114   175   174   ar
   115    27    28   ar
   116    26    28   ar
   117   172   174   ar
   118   118   119    2
   119   118   124   am
   120    28    29    1
   121    36    34    1
   122   113   114    1
   123   113   115    1
   124    35    34    1
   125   124   125    1
   126   131   130    2
   127    34    31    1
   128    31    30    1
   129    31    32    1
   130   130   129    1
   131   130   133   am
   132   128   129    1
   133   128   126   am
   134   125   126    1
   135   139   138   ar
   136   135   134    1
   137   135   136    2
   138   134   133    1
   139   134   137    1
   140    32    33    2
   141   129   132    1
   142   126   127    2
   143   138   137    1
   144   138   140   ar
   145     7     5    1
   146    14    15    2
   147    14    13    1
   148    11    10    2
   149    13    12    1
   150    13    16    1
   151    17    16    1
   152    10    12   am
   153    10     9    1
   154     5     6    1
   155     5     2    1
   156   143   144    2
   157   143   142    1
   158   141   142    1
   159     8     9    1
   160     8     3   am
   161   145   142    1
   162   145   146    1
   163     1     2    1
   164     2     3    1
   165     3     4    2
   166   146   147    2
   167   146   148   am
