@<TRIPOS>MOLECULE
tmp/3oi7D00.pdb
 171 164 0 0 0
SMALL
GASTEIGER

@<TRIPOS>ATOM
      1  N          2.0340   -9.0990   31.1910 N.3     9  ARG9       -0.1231
      2  CA         2.9610   -9.8980   30.3780 C.3     9  ARG9        0.1694
      3  C          2.2190  -10.9590   29.5680 C.2     9  ARG9        0.2592
      4  O          1.3160  -11.6360   30.0710 O.2     9  ARG9       -0.2718
      5  CB         4.0530  -10.5280   31.2420 C.3     9  ARG9        0.0321
      6  CG         5.0440  -11.3790   30.4410 C.3     9  ARG9        0.0489
      7  CD         6.0490  -11.9990   31.3530 C.3     9  ARG9        0.2205
      8  NE         6.9330  -12.8550   30.5940 N.pl3   9  ARG9       -0.0865
      9  CZ         7.8980  -13.6160   31.1030 C.cat   9  ARG9        0.5346
     10  NH1        8.1240  -13.6540   32.4130 N.pl3   9  ARG9        0.1354
     11  NH2        8.6410  -14.3560   30.2890 N.pl3   9  ARG9        0.1354
     12  N          2.5830  -11.0710   28.2970 N.am   10  ALA10      -0.1966
     13  CA         2.0310  -12.0780   27.4190 C.3    10  ALA10       0.1728
     14  C          1.9960  -13.4260   28.1270 C.2    10  ALA10       0.2616
     15  O          2.8790  -13.7280   28.9210 O.2    10  ALA10      -0.2715
     16  CB         2.8720  -12.1580   26.1610 C.3    10  ALA10       0.0334
     17  N          0.9840  -14.2410   27.8470 N.am   11  GLY11      -0.1955
     18  CA         0.8990  -15.5730   28.4230 C.3    11  GLY11       0.1869
     19  C          1.9990  -16.4770   27.9090 C.2    11  GLY11       0.2309
     20  O          2.8350  -16.0630   27.0990 O.2    11  GLY11      -0.2863
     21  N          4.5170  -19.1400   26.2510 N.3    13  THR13      -0.1218
     22  CA         4.8640  -19.6180   24.9210 C.3    13  THR13       0.1862
     23  C          5.8150  -20.8190   25.0510 C.2    13  THR13       0.2287
     24  O          6.2670  -21.1550   26.1560 O.2    13  THR13      -0.2866
     25  CB         5.5720  -18.5360   24.0630 C.3    13  THR13       0.1770
     26  OG1        6.8320  -18.1860   24.6740 O.3    13  THR13      -0.2211
     27  CG2        4.6990  -17.3060   23.8700 C.3    13  THR13       0.0375
     28  N          8.9720  -19.2520   26.4180 N.3    16  SER16      -0.1217
     29  CA         8.8710  -18.6450   27.7430 C.3    16  SER16       0.1889
     30  C          8.8650  -19.7200   28.8060 C.2    16  SER16       0.2288
     31  O          9.5210  -19.5520   29.8290 O.2    16  SER16      -0.2866
     32  CB         7.6800  -17.6520   27.8900 C.3    16  SER16       0.2089
     33  OG         6.4160  -18.2720   28.1900 O.3    16  SER16      -0.2183
     34  N         12.4180  -21.1160   29.1030 N.3    19  GLY19      -0.1210
     35  CA        13.4460  -20.1070   29.4390 C.3    19  GLY19       0.1956
     36  C         14.2440  -19.4610   28.2960 C.2    19  GLY19       0.2612
     37  O         15.2560  -18.8030   28.5300 O.2    19  GLY19      -0.2717
     38  N         13.7760  -19.6440   27.0610 N.am   20  GLN20      -0.1965
     39  CA        14.5000  -19.1990   25.8660 C.3    20  GLN20       0.1733
     40  C         14.1290  -17.7600   25.5520 C.2    20  GLN20       0.2616
     41  O         12.9730  -17.3740   25.6990 O.2    20  GLN20      -0.2715
     42  CB        14.1890  -20.1230   24.6740 C.3    20  GLN20       0.0408
     43  CG        14.4280  -21.6270   24.9260 C.3    20  GLN20       0.0908
     44  CD        14.1000  -22.4990   23.7020 C.2    20  GLN20       0.2608
     45  OE1       14.7090  -22.3390   22.6150 O.2    20  GLN20      -0.2717
     46  NE2       13.1450  -23.4290   23.8680 N.am   20  GLN20      -0.0878
     47  N         15.0910  -16.9600   25.1200 N.am   21  TYR21      -0.1960
     48  CA        14.8560  -15.5200   25.0210 C.3    21  TYR21       0.1771
     49  C         14.0370  -15.1600   23.7780 C.2    21  TYR21       0.2620
     50  O         14.5220  -15.3060   22.6480 O.2    21  TYR21      -0.2715
     51  CB        16.1800  -14.7410   25.0240 C.3    21  TYR21       0.0574
     52  CG        16.8640  -14.5620   26.3750 C.ar   21  TYR21      -0.0198
     53  CD1       17.5500  -13.3740   26.6570 C.ar   21  TYR21      -0.0009
     54  CD2       16.8490  -15.5680   27.3530 C.ar   21  TYR21      -0.0009
     55  CE1       18.2220  -13.1770   27.8790 C.ar   21  TYR21       0.0417
     56  CE2       17.4970  -15.3820   28.5900 C.ar   21  TYR21       0.0417
     57  CZ        18.1950  -14.1700   28.8290 C.ar   21  TYR21       0.1957
     58  OH        18.8520  -13.9360   30.0020 O.3    21  TYR21      -0.2866
     59  N         12.8060  -14.6840   23.9870 N.am   22  THR22      -0.1951
     60  CA        11.9320  -14.2990   22.8860 C.3    22  THR22       0.1897
     61  C         11.8570  -12.8000   22.7600 C.2    22  THR22       0.2313
     62  O         11.3560  -12.1130   23.6390 O.2    22  THR22      -0.2863
     63  CB        10.4930  -14.8540   23.0370 C.3    22  THR22       0.1794
     64  OG1       10.5170  -16.0610   23.8060 O.3    22  THR22      -0.2208
     65  CG2        9.8480  -15.0840   21.6650 C.3    22  THR22       0.0378
     66  N          1.8870  -12.8470   20.4510 N.3    65  ARG65      -0.1245
     67  CA         1.6710  -13.2810   21.8260 C.3    65  ARG65       0.1563
     68  C          1.0970  -12.1680   22.7300 C.2    65  ARG65       0.2260
     69  O          0.2480  -12.4490   23.5850 O.2    65  ARG65      -0.2867
     70  CB         2.9480  -13.8990   22.4190 C.3    65  ARG65       0.0307
     71  CG         4.1170  -12.9400   22.6810 C.3    65  ARG65       0.0489
     72  CD         5.4310  -13.7260   22.7860 C.3    65  ARG65       0.2205
     73  NE         6.6150  -12.9010   23.0470 N.pl3  65  ARG65      -0.0865
     74  CZ         7.4400  -12.4030   22.1170 C.cat  65  ARG65       0.5346
     75  NH1        7.2420  -12.6140   20.8000 N.pl3  65  ARG65       0.1354
     76  NH2        8.4870  -11.6920   22.5170 N.pl3  65  ARG65       0.1354
     77  N          9.7040   -6.3420   22.9000 N.3    95  GLU95      -0.1245
     78  CA        10.7000   -6.8470   23.8300 C.3    95  GLU95       0.1567
     79  C         12.1090   -6.2690   23.5230 C.2    95  GLU95       0.2260
     80  O         12.3640   -5.7580   22.4240 O.2    95  GLU95      -0.2867
     81  CB        10.7020   -8.3870   23.7950 C.3    95  GLU95       0.0388
     82  CG        11.6360   -9.0710   24.8290 C.3    95  GLU95       0.1160
     83  CD        11.4240   -8.5950   26.2640 C.2    95  GLU95       0.3649
     84  OE1       11.6850   -7.4220   26.5760 O.co2  95  GLU95      -0.2457
     85  OE2       10.9830   -9.3930   27.0970 O.co2  95  GLU95      -0.2457
     86  N         17.1630   -8.9230   21.4380 N.3    98  TYR98      -0.1241
     87  CA        18.2550   -9.7900   21.9090 C.3    98  TYR98       0.1605
     88  C         19.3920  -10.0160   20.9020 C.2    98  TYR98       0.2264
     89  O         20.4620  -10.4510   21.2850 O.2    98  TYR98      -0.2867
     90  CB        17.7070  -11.1240   22.4160 C.3    98  TYR98       0.0534
     91  CG        16.7450  -10.9640   23.5740 C.ar   98  TYR98      -0.0201
     92  CD1       17.1160  -10.2550   24.7300 C.ar   98  TYR98      -0.0009
     93  CD2       15.4490  -11.4880   23.5100 C.ar   98  TYR98      -0.0009
     94  CE1       16.2200  -10.0970   25.7860 C.ar   98  TYR98       0.0417
     95  CE2       14.5590  -11.3350   24.5720 C.ar   98  TYR98       0.0417
     96  CZ        14.9570  -10.6460   25.7000 C.ar   98  TYR98       0.1957
     97  OH        14.0800  -10.4910   26.7500 O.3    98  TYR98      -0.2866
     98  N         19.8660  -18.2050   29.3190 N.3   105  THR105     -0.1218
     99  CA        20.8600  -17.4870   30.0870 C.3   105  THR105      0.1862
    100  C         22.2270  -18.1820   30.1370 C.2   105  THR105      0.2287
    101  O         23.2350  -17.5670   29.7690 O.2   105  THR105     -0.2866
    102  CB        20.3290  -17.0860   31.4960 C.3   105  THR105      0.1770
    103  OG1       19.2620  -16.1410   31.3180 O.3   105  THR105     -0.2211
    104  CG2       21.4560  -16.4100   32.3350 C.3   105  THR105      0.0375
    105  N         20.9480   -5.5850   31.8860 N.3   126  TRP126     -0.1241
    106  CA        20.4020   -4.2810   32.2840 C.3   126  TRP126      0.1605
    107  C         21.4240   -3.1520   32.1790 C.2   126  TRP126      0.2264
    108  O         21.0580   -1.9740   32.1120 O.2   126  TRP126     -0.2867
    109  CB        19.8790   -4.3750   33.7120 C.3   126  TRP126      0.0550
    110  CG        18.9490   -5.5310   33.9200 C.ar  126  TRP126      0.0003
    111  CD1       19.2780   -6.7820   34.3790 C.ar  126  TRP126      0.0946
    112  CD2       17.5330   -5.5600   33.6560 C.ar  126  TRP126      0.0152
    113  NE1       18.1540   -7.5780   34.4200 N.ar  126  TRP126     -0.2442
    114  CE2       17.0720   -6.8570   33.9870 C.ar  126  TRP126      0.0810
    115  CE3       16.6140   -4.6140   33.1890 C.ar  126  TRP126      0.0012
    116  CZ2       15.7320   -7.2320   33.8710 C.ar  126  TRP126      0.0191
    117  CZ3       15.2660   -4.9980   33.0610 C.ar  126  TRP126      0.0001
    118  CH2       14.8430   -6.2910   33.4110 C.ar  126  TRP126      0.0015
    119  N          2.8280   -6.3700   27.0110 N.3   169  ALA169     -0.1231
    120  CA         4.1370   -6.4730   26.4430 C.3   169  ALA169      0.1694
    121  C          4.7970   -7.7390   26.9500 C.2   169  ALA169      0.2592
    122  O          4.1580   -8.8090   26.9490 O.2   169  ALA169     -0.2718
    123  CB         4.9800   -5.1760   26.7470 C.3   169  ALA169      0.0304
    124  N          6.0460   -7.6110   27.4160 N.am  170  HIS170     -0.1962
    125  CA         6.9570   -8.7400   27.5830 C.3   170  HIS170      0.1787
    126  C          7.7530   -8.7010   28.8840 C.2   170  HIS170      0.2621
    127  O          7.8710   -7.6610   29.5340 O.2   170  HIS170     -0.2715
    128  CB         7.9050   -8.8010   26.3800 C.3   170  HIS170      0.0785
    129  CG         7.1960   -8.7340   25.0640 C.ar  170  HIS170      0.0821
    130  ND1        6.4730   -9.7930   24.5530 N.ar  170  HIS170     -0.2267
    131  CD2        7.0380   -7.7110   24.1930 C.ar  170  HIS170      0.1154
    132  CE1        5.9330   -9.4340   23.4030 C.ar  170  HIS170      0.1986
    133  NE2        6.2620   -8.1770   23.1620 N.ar  170  HIS170     -0.2212
    134  N          8.2850   -9.8560   29.2620 N.am  171  GLY171     -0.1940
    135  CA         8.9780  -10.0290   30.5320 C.3   171  GLY171      0.2014
    136  C         10.0640   -9.0270   30.8680 C.2   171  GLY171      0.2638
    137  O         10.0650   -8.4900   31.9800 O.2   171  GLY171     -0.2714
    138  N         11.0020   -8.7960   29.9480 N.am  172  HIS172     -0.1973
    139  CA        12.0730   -7.7950   30.1910 C.3   172  HIS172      0.1656
    140  C         11.5740   -6.3590   30.0890 C.2   172  HIS172      0.2291
    141  O         11.8270   -5.5580   30.9760 O.2   172  HIS172     -0.2864
    142  CB        13.2740   -7.9600   29.2360 C.3   172  HIS172      0.0771
    143  CG        14.3130   -8.9230   29.7150 C.ar  172  HIS172      0.0820
    144  ND1       14.4290  -10.2060   29.2150 N.ar  172  HIS172     -0.2267
    145  CD2       15.3080   -8.7820   30.6240 C.ar  172  HIS172      0.1154
    146  CE1       15.4510  -10.8110   29.7950 C.ar  172  HIS172      0.1986
    147  NE2       15.9950   -9.9730   30.6610 N.ar  172  HIS172     -0.2212
    148  N          9.3560   -5.1970   33.1300 N.3   175  ARG175     -0.1245
    149  CA        10.1380   -5.0370   34.3500 C.3   175  ARG175      0.1563
    150  C         10.9130   -3.7390   34.2600 C.2   175  ARG175      0.2260
    151  O         10.9910   -2.9950   35.2360 O.2   175  ARG175     -0.2867
    152  CB        11.0720   -6.2310   34.5780 C.3   175  ARG175      0.0307
    153  CG        10.3370   -7.4750   35.0610 C.3   175  ARG175      0.0489
    154  CD        11.3250   -8.5850   35.4150 C.3   175  ARG175      0.2205
    155  NE        11.7110   -9.3550   34.2350 N.pl3 175  ARG175     -0.0865
    156  CZ        12.8310  -10.0540   34.1210 C.cat 175  ARG175      0.5346
    157  NH1       13.6940  -10.0750   35.1080 N.pl3 175  ARG175      0.1354
    158  NH2       13.0920  -10.7300   33.0080 N.pl3 175  ARG175      0.1354
    159  N         20.2290   -4.5500   37.5120 N.3   221  ASN221     -0.1240
    160  CA        19.0260   -5.3590   37.6530 C.3   221  ASN221      0.1653
    161  C         18.0450   -4.6960   38.6140 C.2   221  ASN221      0.2266
    162  O         18.4290   -4.3440   39.7220 O.2   221  ASN221     -0.2867
    163  CB        19.4130   -6.7380   38.1760 C.3   221  ASN221      0.1155
    164  CG        18.2820   -7.7650   38.0600 C.2   221  ASN221      0.2627
    165  OD1       17.0760   -7.4510   38.0400 O.2   221  ASN221     -0.2716
    166  ND2       18.6860   -9.0200   37.9960 N.am  221  ASN221     -0.0877
    167  N          4.9820  -14.9770   33.0780 N.3   228  ALA228     -0.1245
    168  CA         4.0800  -15.0530   31.9310 C.3   228  ALA228      0.1562
    169  C          2.6480  -14.8380   32.4170 C.2   228  ALA228      0.2260
    170  O          2.2060  -15.4810   33.3570 O.2   228  ALA228     -0.2867
    171  CB         4.2170  -16.4040   31.2100 C.3   228  ALA228      0.0290
@<TRIPOS>BOND
     1    66    67    1
     2    75    74    1
     3    88    89    2
     4    88    87    1
     5    86    87    1
     6    65    63    1
     7    67    70    1
     8    67    68    1
     9    87    90    1
    10    74    76    1
    11    74    73    2
    12    90    91    1
    13    70    71    1
    14    80    79    2
    15    45    44    2
    16    50    49    2
    17    71    72    1
    18    68    69    2
    19    61    60    1
    20    61    62    2
    21    72    73    1
    22    60    63    1
    23    60    59    1
    24    77    78    1
    25    63    64    1
    26   133   132   ar
    27   133   131   ar
    28   132   130   ar
    29    93    91   ar
    30    93    95   ar
    31    79    78    1
    32    91    92   ar
    33    44    46   am
    34    44    43    1
    35    49    59   am
    36    49    48    1
    37    81    78    1
    38    81    82    1
    39    27    25    1
    40    25    26    1
    41    25    22    1
    42   131   129   ar
    43   130   129   ar
    44    95    96   ar
    45    42    43    1
    46    42    39    1
    47    92    94   ar
    48    82    83    1
    49    22    23    1
    50    22    21    1
    51    48    51    1
    52    48    47    1
    53    51    52    1
    54    23    24    2
    55   129   128    1
    56    47    40   am
    57    40    41    2
    58    40    39    1
    59    96    94   ar
    60    96    97    1
    61    39    38    1
    62    16    13    1
    63    83    84   ar
    64    83    85   ar
    65    52    53   ar
    66    52    54   ar
    67   128   125    1
    68    28    29    1
    69   120   123    1
    70   120   121    1
    71   120   119    1
    72    53    55   ar
    73   122   121    2
    74   121   124   am
    75    38    36   am
    76    20    19    2
    77    54    56   ar
    78   124   125    1
    79    13    14    1
    80    13    12    1
    81   125   126    1
    82    29    32    1
    83    29    30    1
    84    17    14   am
    85    17    18    1
    86    55    57   ar
    87    32    33    1
    88    19    18    1
    89    14    15    2
    90    36    37    2
    91    36    35    1
    92    12     3   am
    93    56    57   ar
    94    30    31    2
    95    57    58    1
    96   126   134   am
    97   126   127    2
    98    34    35    1
    99   144   143   ar
   100   144   146   ar
   101   142   143    1
   102   142   139    1
   103   134   135    1
   104    98    99    1
   105     3     4    2
   106     3     2    1
   107   143   145   ar
   108   101   100    2
   109   146   147   ar
   110   138   139    1
   111   138   136   am
   112    99   100    1
   113    99   102    1
   114   140   139    1
   115   140   141    2
   116    11     9    1
   117     2     1    1
   118     2     5    1
   119     6     5    1
   120     6     7    1
   121   135   136    1
   122     8     9    2
   123     8     7    1
   124   145   147   ar
   125   136   137    2
   126     9    10    1
   127   171   168    1
   128   103   102    1
   129   102   104    1
   130   105   106    1
   131   168   169    1
   132   168   167    1
   133   108   107    2
   134   107   106    1
   135   106   109    1
   136   169   170    2
   137   158   156    1
   138   117   115   ar
   139   117   118   ar
   140   148   149    1
   141   115   112   ar
   142   118   116   ar
   143   112   110   ar
   144   112   114   ar
   145   109   110    1
   146   116   114   ar
   147   110   111   ar
   148   114   113   ar
   149   156   155    2
   150   156   157    1
   151   155   154    1
   152   150   149    1
   153   150   151    2
   154   149   152    1
   155   111   113   ar
   156   152   153    1
   157   153   154    1
   158   159   160    1
   159   160   163    1
   160   160   161    1
   161   166   164   am
   162   165   164    2
   163   164   163    1
   164   161   162    2
