@<TRIPOS>MOLECULE
tmp/3oi8A00.pdb
 125 120 0 0 0
SMALL
GASTEIGER

@<TRIPOS>ATOM
      1  N         -5.1170   28.7010   41.2430 N.3    44  ILE44      -0.1245
      2  CA        -4.5190   29.6730   42.1520 C.3    44  ILE44       0.1561
      3  C         -3.1370   29.1670   42.5420 C.2    44  ILE44       0.2260
      4  O         -3.0020   28.0490   43.0320 O.2    44  ILE44      -0.2867
      5  CB        -5.3810   29.8270   43.4040 C.3    44  ILE44       0.0252
      6  CG1       -6.7740   30.3260   43.0010 C.3    44  ILE44       0.0019
      7  CG2       -4.6990   30.7640   44.4160 C.3    44  ILE44       0.0019
      8  CD1       -7.8000   30.1910   44.0970 C.3    44  ILE44       0.0001
      9  N         -0.0850   31.7710   46.8050 N.3    48  ARG48      -0.1245
     10  CA        -1.2790   32.5970   47.0290 C.3    48  ARG48       0.1563
     11  C         -2.4780   31.8540   47.6350 C.2    48  ARG48       0.2260
     12  O         -3.5220   32.4620   47.9040 O.2    48  ARG48      -0.2867
     13  CB        -1.7150   33.2710   45.7230 C.3    48  ARG48       0.0307
     14  CG        -0.6900   34.2470   45.1760 C.3    48  ARG48       0.0489
     15  CD        -1.1590   34.8830   43.8730 C.3    48  ARG48       0.2205
     16  NE        -0.1220   35.7390   43.2980 N.pl3  48  ARG48      -0.0865
     17  CZ        -0.2280   36.3670   42.1310 C.cat  48  ARG48       0.5346
     18  NH1       -1.3290   36.2370   41.3980 N.pl3  48  ARG48       0.1354
     19  NH2        0.7710   37.1210   41.6950 N.pl3  48  ARG48       0.1354
     20  N         -4.9190   30.1900   50.3320 N.3    49  ASN49      -0.1240
     21  CA        -5.2090   30.3420   51.7520 C.3    49  ASN49       0.1653
     22  C         -5.3500   28.9580   52.3680 C.2    49  ASN49       0.2266
     23  O         -6.2630   28.2140   52.0000 O.2    49  ASN49      -0.2867
     24  CB        -6.5000   31.1460   51.9720 C.3    49  ASN49       0.1155
     25  CG        -6.3550   32.6090   51.5870 C.2    49  ASN49       0.2627
     26  OD1       -7.2090   33.1620   50.8970 O.2    49  ASN49      -0.2716
     27  ND2       -5.2710   33.2420   52.0340 N.am   49  ASN49      -0.0877
     28  N        -11.4820   35.1560   55.2160 N.3    67  THR67      -0.1203
     29  CA       -11.2010   34.9390   53.8000 C.3    67  THR67       0.1994
     30  C        -12.4790   34.6180   53.0420 C.2    67  THR67       0.2618
     31  O        -12.5520   34.7810   51.8280 O.2    67  THR67      -0.2717
     32  CB       -10.1900   33.8040   53.5900 C.3    67  THR67       0.1784
     33  OG1      -10.7100   32.6000   54.1560 O.3    67  THR67      -0.2211
     34  CG2       -8.8620   34.1310   54.2550 C.3    67  THR67       0.0376
     35  N        -13.4830   34.1550   53.7740 N.am   68  ALA68      -0.1965
     36  CA       -14.8000   33.8780   53.2110 C.3    68  ALA68       0.1728
     37  C        -14.8270   32.7350   52.1860 C.2    68  ALA68       0.2616
     38  O        -15.8170   32.5790   51.4660 O.2    68  ALA68      -0.2715
     39  CB       -15.4020   35.1500   52.6100 C.3    68  ALA68       0.0334
     40  N        -13.7580   31.9440   52.1090 N.am   69  HIS69      -0.1959
     41  CA       -13.7610   30.7870   51.2030 C.3    69  HIS69       0.1787
     42  C        -14.5990   29.6710   51.8000 C.2    69  HIS69       0.2621
     43  O        -14.8570   29.6440   53.0130 O.2    69  HIS69      -0.2715
     44  CB       -12.3460   30.2410   50.9360 C.3    69  HIS69       0.0785
     45  CG       -11.3820   31.2520   50.4000 C.ar   69  HIS69       0.0821
     46  ND1      -11.6320   31.9960   49.2660 N.ar   69  HIS69      -0.2267
     47  CD2      -10.1480   31.6180   50.8260 C.ar   69  HIS69       0.1154
     48  CE1      -10.6030   32.7920   49.0310 C.ar   69  HIS69       0.1986
     49  NE2       -9.6910   32.5820   49.9640 N.ar   69  HIS69      -0.2212
     50  N        -14.9920   28.7210   50.9590 N.am   70  SER70      -0.1936
     51  CA       -15.7640   27.5740   51.4250 C.3    70  SER70       0.2055
     52  C        -14.9090   26.3530   51.7380 C.2    70  SER70       0.2643
     53  O        -15.2780   25.5410   52.5920 O.2    70  SER70      -0.2714
     54  CB       -16.8390   27.1980   50.3940 C.3    70  SER70       0.2130
     55  OG       -17.7900   28.2430   50.2590 O.3    70  SER70      -0.2179
     56  N        -13.7840   26.2130   51.0310 N.am   71  ARG71      -0.1963
     57  CA       -12.8920   25.0520   51.1990 C.3    71  ARG71       0.1729
     58  C        -11.4440   25.5010   51.3400 C.2    71  ARG71       0.2616
     59  O        -11.0460   26.4770   50.7130 O.2    71  ARG71      -0.2715
     60  CB       -13.0340   24.1070   50.0050 C.3    71  ARG71       0.0348
     61  CG       -14.2150   23.1620   50.1440 C.3    71  ARG71       0.0492
     62  CD       -14.8240   22.8210   48.8260 C.3    71  ARG71       0.2205
     63  NE       -15.3640   24.0120   48.1870 N.pl3  71  ARG71      -0.0865
     64  CZ       -16.6590   24.2690   48.0460 C.cat  71  ARG71       0.5346
     65  NH1      -17.0420   25.3870   47.4510 N.pl3  71  ARG71       0.1354
     66  NH2      -17.5680   23.4090   48.4900 N.pl3  71  ARG71       0.1354
     67  N        -10.6760   24.7830   52.1670 N.am   72  PHE72      -0.1960
     68  CA        -9.2890   25.1400   52.4910 C.3    72  PHE72       0.1756
     69  C         -8.3940   23.9000   52.5440 C.2    72  PHE72       0.2461
     70  O         -8.7080   22.9390   53.2550 O.2    72  PHE72      -0.2730
     71  CB        -9.2390   25.8010   53.8740 C.3    72  PHE72       0.0574
     72  CG       -10.0850   27.0400   53.9910 C.ar   72  PHE72      -0.0200
     73  CD1       -9.5060   28.2960   53.9230 C.ar   72  PHE72      -0.0042
     74  CD2      -11.4490   26.9460   54.1730 C.ar   72  PHE72      -0.0042
     75  CE1      -10.2760   29.4470   54.0330 C.ar   72  PHE72      -0.0003
     76  CE2      -12.2290   28.0900   54.2720 C.ar   72  PHE72      -0.0003
     77  CZ       -11.6450   29.3410   54.1980 C.ar   72  PHE72      -0.0000
     78  N         -7.2720   23.9200   51.8090 N.am   73  PRO73      -0.2727
     79  CA        -6.2550   22.8750   51.9980 C.3    73  PRO73       0.1402
     80  C         -5.7570   22.9370   53.4340 C.2    73  PRO73       0.2269
     81  O         -5.6010   24.0260   53.9730 O.2    73  PRO73      -0.2865
     82  CB        -5.1010   23.3250   51.0860 C.3    73  PRO73       0.0296
     83  CG        -5.7290   24.2840   50.1010 C.3    73  PRO73       0.0237
     84  CD        -6.8540   24.9510   50.8360 C.3    73  PRO73       0.0939
     85  N         -3.8340   25.2960   43.6160 N.3   144  LEU144     -0.1245
     86  CA        -5.1100   24.6080   43.7830 C.3   144  LEU144      0.1561
     87  C         -6.0370   25.0940   42.6720 C.2   144  LEU144      0.2260
     88  O         -5.7530   26.1140   42.0210 O.2   144  LEU144     -0.2867
     89  CB        -5.6990   24.8660   45.1850 C.3   144  LEU144      0.0270
     90  CG        -6.1240   26.2840   45.5880 C.3   144  LEU144      0.0019
     91  CD1       -7.4540   26.6810   44.9520 C.3   144  LEU144      0.0001
     92  CD2       -6.2380   26.4020   47.1230 C.3   144  LEU144      0.0001
     93  N        -10.4440   25.2590   41.6250 N.3   146  THR146     -0.1218
     94  CA       -11.8000   25.0650   42.1230 C.3   146  THR146      0.1862
     95  C        -12.8530   25.0400   41.0080 C.2   146  THR146      0.2287
     96  O        -12.6840   25.6520   39.9530 O.2   146  THR146     -0.2866
     97  CB       -12.2010   26.1810   43.1280 C.3   146  THR146      0.1770
     98  OG1      -12.4280   27.3970   42.4080 O.3   146  THR146     -0.2211
     99  CG2      -11.0870   26.4190   44.1680 C.3   146  THR146      0.0375
    100  N        -15.8500   26.4050   41.1340 N.3   148  GLU148     -0.1231
    101  CA       -16.4500   27.7160   40.9280 C.3   148  GLU148      0.1699
    102  C        -15.5890   28.6220   40.0570 C.2   148  GLU148      0.2592
    103  O        -16.1120   29.4650   39.3270 O.2   148  GLU148     -0.2718
    104  CB       -16.8130   28.3680   42.2660 C.3   148  GLU148      0.0402
    105  CG       -17.8490   27.5500   43.0460 C.3   148  GLU148      0.1161
    106  CD       -18.4330   28.2850   44.2400 C.2   148  GLU148      0.3649
    107  OE1      -19.4490   27.8030   44.7930 O.co2 148  GLU148     -0.2457
    108  OE2      -17.8820   29.3410   44.6240 O.co2 148  GLU148     -0.2457
    109  N        -14.2740   28.4270   40.1050 N.am  149  ASP149     -0.1974
    110  CA       -13.3630   29.1920   39.2550 C.3   149  ASP149      0.1709
    111  C        -13.4590   28.8000   37.7820 C.2   149  ASP149      0.2293
    112  O        -13.3220   29.6420   36.9000 O.2   149  ASP149     -0.2864
    113  CB       -11.9160   29.0110   39.7060 C.3   149  ASP149      0.1436
    114  CG       -11.5310   29.9550   40.8140 C.2   149  ASP149      0.3671
    115  OD1      -12.2910   30.9220   41.0520 O.co2 149  ASP149     -0.2456
    116  OD2      -10.4690   29.7320   41.4370 O.co2 149  ASP149     -0.2456
    117  N        -16.8800   29.7930   35.9220 N.3   152  GLU152     -0.1245
    118  CA       -16.9920   31.2390   35.7870 C.3   152  GLU152      0.1567
    119  C        -17.4460   31.6280   34.3820 C.2   152  GLU152      0.2260
    120  O        -18.0850   32.6650   34.1920 O.2   152  GLU152     -0.2867
    121  CB       -15.6380   31.8920   36.0840 C.3   152  GLU152      0.0388
    122  CG       -15.6020   32.7860   37.3170 C.3   152  GLU152      0.1160
    123  CD       -14.2190   33.3700   37.5680 C.2   152  GLU152      0.3649
    124  OE1      -13.2960   33.0640   36.7800 O.co2 152  GLU152     -0.2457
    125  OE2      -14.0520   34.1300   38.5480 O.co2 152  GLU152     -0.2457
@<TRIPOS>BOND
     1   120   119    2
     2   119   118    1
     3   118   117    1
     4   118   121    1
     5   121   122    1
     6   124   123   ar
     7   112   111    2
     8   122   123    1
     9   123   125   ar
    10   111   110    1
    11   110   113    1
    12   110   109    1
    13   103   102    2
    14   113   114    1
    15    96    95    2
    16   102   109   am
    17   102   101    1
    18   114   115   ar
    19   114   116   ar
    20   101   100    1
    21   101   104    1
    22    95    94    1
    23     1     2    1
    24    18    17    1
    25    93    94    1
    26    19    17    1
    27    88    87    2
    28    94    97    1
    29    17    16    2
    30     2     3    1
    31     2     5    1
    32   104   105    1
    33    98    97    1
    34     3     4    2
    35    87    86    1
    36     6     5    1
    37     6     8    1
    38   105   106    1
    39    97    99    1
    40    16    15    1
    41     5     7    1
    42    85    86    1
    43    86    89    1
    44    15    14    1
    45   106   108   ar
    46   106   107   ar
    47    91    90    1
    48    14    13    1
    49    89    90    1
    50    90    92    1
    51    13    10    1
    52     9    10    1
    53    10    11    1
    54    65    64    1
    55    11    12    2
    56    64    63    2
    57    64    66    1
    58    63    62    1
    59    62    61    1
    60    48    46   ar
    61    48    49   ar
    62    46    45   ar
    63    49    47   ar
    64    60    61    1
    65    60    57    1
    66    83    84    1
    67    83    82    1
    68    55    54    1
    69    20    21    1
    70    54    51    1
    71    45    47   ar
    72    45    44    1
    73    59    58    2
    74    84    78    1
    75    26    25    2
    76    44    41    1
    77    50    51    1
    78    50    42   am
    79    56    57    1
    80    56    52   am
    81    82    79    1
    82    57    58    1
    83    41    42    1
    84    41    40    1
    85    58    67   am
    86    51    52    1
    87    38    37    2
    88    25    24    1
    89    25    27   am
    90    52    53    2
    91    21    24    1
    92    21    22    1
    93    42    43    2
    94    78    79    1
    95    78    69   am
    96    31    30    2
    97    79    80    1
    98    23    22    2
    99    40    37   am
   100    67    68    1
   101    37    36    1
   102    68    69    1
   103    68    71    1
   104    69    70    2
   105    39    36    1
   106    30    35   am
   107    30    29    1
   108    36    35    1
   109    80    81    2
   110    32    29    1
   111    32    33    1
   112    32    34    1
   113    29    28    1
   114    71    72    1
   115    73    72   ar
   116    73    75   ar
   117    72    74   ar
   118    75    77   ar
   119    74    76   ar
   120    77    76   ar
