@<TRIPOS>MOLECULE
tmp/3oiaA01.pdb
 183 172 0 0 0
SMALL
GASTEIGER

@<TRIPOS>ATOM
      1  N         15.2870   33.2290   22.7670 N.3    20  TYR20      -0.1241
      2  CA        14.4680   34.4070   22.4810 C.3    20  TYR20       0.1605
      3  C         15.1440   35.4550   21.6030 C.2    20  TYR20       0.2264
      4  O         14.4870   36.3740   21.1180 O.2    20  TYR20      -0.2867
      5  CB        13.9550   35.0400   23.7780 C.3    20  TYR20       0.0534
      6  CG        12.9070   34.1910   24.4530 C.ar   20  TYR20      -0.0201
      7  CD1       11.6100   34.1180   23.9420 C.ar   20  TYR20      -0.0009
      8  CD2       13.2180   33.4370   25.5850 C.ar   20  TYR20      -0.0009
      9  CE1       10.6370   33.3320   24.5480 C.ar   20  TYR20       0.0417
     10  CE2       12.2470   32.6510   26.2090 C.ar   20  TYR20       0.0417
     11  CZ        10.9710   32.5930   25.6690 C.ar   20  TYR20       0.1957
     12  OH        10.0060   31.8500   26.2780 O.3    20  TYR20      -0.2866
     13  N         18.5900   32.7190   29.8380 N.3    50  ASN50      -0.1240
     14  CA        17.1820   32.5620   30.2030 C.3    50  ASN50       0.1653
     15  C         17.0160   31.6850   31.4360 C.2    50  ASN50       0.2266
     16  O         16.0910   30.8820   31.5310 O.2    50  ASN50      -0.2867
     17  CB        16.3800   32.0220   29.0140 C.3    50  ASN50       0.1155
     18  CG        16.3940   32.9670   27.8330 C.2    50  ASN50       0.2627
     19  OD1       16.9350   32.6430   26.7630 O.2    50  ASN50      -0.2716
     20  ND2       15.8020   34.1280   28.0080 N.am   50  ASN50      -0.0877
     21  N          7.8470   25.3640   29.8670 N.3    78  PHE78      -0.1241
     22  CA         8.4250   26.5480   29.2140 C.3    78  PHE78       0.1605
     23  C          9.6390   27.1280   29.9150 C.2    78  PHE78       0.2264
     24  O          9.7570   27.0600   31.1410 O.2    78  PHE78      -0.2867
     25  CB         7.4130   27.7000   29.1620 C.3    78  PHE78       0.0534
     26  CG         6.1360   27.3700   28.4700 C.ar   78  PHE78      -0.0203
     27  CD1        6.1140   26.5560   27.3390 C.ar   78  PHE78      -0.0042
     28  CD2        4.9480   27.9030   28.9350 C.ar   78  PHE78      -0.0042
     29  CE1        4.9340   26.2540   26.7100 C.ar   78  PHE78      -0.0003
     30  CE2        3.7570   27.6250   28.2920 C.ar   78  PHE78      -0.0003
     31  CZ         3.7450   26.7880   27.1790 C.ar   78  PHE78      -0.0000
     32  N         11.2530   30.9180   30.2520 N.3    80  PRO80      -0.2116
     33  CA        11.9080   30.7650   31.5380 C.3    80  PRO80       0.1372
     34  C         11.0180   30.0450   32.5600 C.2    80  PRO80       0.2244
     35  O          9.7930   29.9720   32.3920 O.2    80  PRO80      -0.2868
     36  CB        12.1310   32.2170   31.9730 C.3    80  PRO80       0.0268
     37  CG        10.9000   32.9340   31.4280 C.3    80  PRO80       0.0207
     38  CD        10.7130   32.2830   30.0610 C.3    80  PRO80       0.0892
     39  N          7.5360   31.3530   33.7340 N.3    83  ALA83      -0.1245
     40  CA         6.4290   31.1100   32.8030 C.3    83  ALA83       0.1562
     41  C          5.9480   29.6530   32.9060 C.2    83  ALA83       0.2260
     42  O          4.7450   29.3830   32.9470 O.2    83  ALA83      -0.2867
     43  CB         6.8620   31.4160   31.3870 C.3    83  ALA83       0.0290
     44  N          2.1510   28.3400   34.1810 N.3    87  TYR87      -0.1241
     45  CA         1.3320   27.7520   33.1270 C.3    87  TYR87       0.1605
     46  C          0.5710   26.5190   33.6120 C.2    87  TYR87       0.2264
     47  O          1.1930   25.5780   34.1110 O.2    87  TYR87      -0.2867
     48  CB         2.2600   27.3610   32.0140 C.3    87  TYR87       0.0534
     49  CG         1.6250   26.7950   30.7890 C.ar   87  TYR87      -0.0201
     50  CD1        1.8030   25.4470   30.4750 C.ar   87  TYR87      -0.0009
     51  CD2        0.9150   27.6100   29.9010 C.ar   87  TYR87      -0.0009
     52  CE1        1.2810   24.9170   29.3330 C.ar   87  TYR87       0.0417
     53  CE2        0.3820   27.0870   28.7370 C.ar   87  TYR87       0.0417
     54  CZ         0.5810   25.7420   28.4590 C.ar   87  TYR87       0.1957
     55  OH         0.0700   25.1940   27.3100 O.3    87  TYR87      -0.2866
     56  N         -2.4600   25.2480   31.7030 N.3    89  PHE89      -0.1241
     57  CA        -3.3410   24.7520   30.6650 C.3    89  PHE89       0.1605
     58  C         -3.4090   23.2250   30.6220 C.2    89  PHE89       0.2264
     59  O         -2.4310   22.5240   30.9580 O.2    89  PHE89      -0.2867
     60  CB        -2.8240   25.2180   29.3050 C.3    89  PHE89       0.0534
     61  CG        -3.2120   26.6290   28.9270 C.ar   89  PHE89      -0.0203
     62  CD1       -3.8980   27.4660   29.8090 C.ar   89  PHE89      -0.0042
     63  CD2       -2.8260   27.1360   27.6930 C.ar   89  PHE89      -0.0042
     64  CE1       -4.2340   28.7780   29.4560 C.ar   89  PHE89      -0.0003
     65  CE2       -3.1530   28.4460   27.3270 C.ar   89  PHE89      -0.0003
     66  CZ        -3.8580   29.2690   28.2070 C.ar   89  PHE89      -0.0000
     67  N         -1.6020   20.3090   28.2830 N.3    92  THR92      -0.1218
     68  CA        -0.1750   20.5700   28.0970 C.3    92  THR92       0.1862
     69  C          0.6700   20.7190   29.3700 C.2    92  THR92       0.2287
     70  O          1.8840   20.6750   29.2590 O.2    92  THR92      -0.2866
     71  CB         0.0610   21.8310   27.2420 C.3    92  THR92       0.1770
     72  OG1       -0.9110   22.8210   27.6200 O.3    92  THR92      -0.2211
     73  CG2       -0.0960   21.4920   25.7560 C.3    92  THR92       0.0375
     74  N         -0.9930   37.5950   25.9790 N.3   175  MET175     -0.1230
     75  CA        -0.3820   36.4290   26.5900 C.3   175  MET175      0.1702
     76  C          0.7980   35.8690   25.7850 C.2   175  MET175      0.2593
     77  O          1.8360   35.5380   26.3600 O.2   175  MET175     -0.2718
     78  CB        -1.4300   35.3340   26.8260 C.3   175  MET175      0.0401
     79  CG        -0.8780   34.1790   27.6510 C.3   175  MET175      0.0596
     80  SD        -1.9380   32.7110   27.7340 S.3   175  MET175     -0.1393
     81  CE        -3.3380   33.3780   28.5780 C.3   175  MET175      0.0692
     82  N          0.6320   35.7720   24.4690 N.am  176  THR176     -0.1953
     83  CA         1.5840   35.0510   23.6080 C.3   176  THR176      0.1897
     84  C          2.6000   35.9680   22.9330 C.2   176  THR176      0.2313
     85  O          3.6210   35.5000   22.4290 O.2   176  THR176     -0.2863
     86  CB         0.8620   34.2120   22.5240 C.3   176  THR176      0.1794
     87  OG1        0.1110   35.0670   21.6580 O.3   176  THR176     -0.2208
     88  CG2       -0.0910   33.1850   23.1480 C.3   176  THR176      0.0378
     89  N          4.1690   38.7710   24.6450 N.3   178  PRO178     -0.2102
     90  CA         4.3060   39.6930   25.7810 C.3   178  PRO178      0.1504
     91  C          5.2890   40.8320   25.4920 C.2   178  PRO178      0.2576
     92  O          6.2920   40.6270   24.7950 O.2   178  PRO178     -0.2718
     93  CB         4.8340   38.7910   26.9070 C.3   178  PRO178      0.0282
     94  CG         5.5660   37.6990   26.1990 C.3   178  PRO178      0.0208
     95  CD         4.7740   37.4510   24.9320 C.3   178  PRO178      0.0893
     96  N          4.9820   42.0250   26.0090 N.am  179  ASP179     -0.1960
     97  CA         5.8720   43.1720   25.8570 C.3   179  ASP179      0.1840
     98  C          6.5740   43.5170   27.1700 C.2   179  ASP179      0.2622
     99  O          7.3750   44.4660   27.2250 O.2   179  ASP179     -0.2715
    100  CB         5.1110   44.3860   25.2990 C.3   179  ASP179      0.1450
    101  CG         3.9720   44.8560   26.2050 C.2   179  ASP179      0.3671
    102  OD1        3.6610   44.2170   27.2370 O.co2 179  ASP179     -0.2456
    103  OD2        3.3660   45.8900   25.8610 O.co2 179  ASP179     -0.2456
    104  N          6.2690   42.7390   28.2120 N.am  180  GLY180     -0.1954
    105  CA         6.8860   42.9040   29.5340 C.3   180  GLY180      0.1869
    106  C          6.0780   43.7500   30.5040 C.2   180  GLY180      0.2309
    107  O          6.4750   43.9260   31.6630 O.2   180  GLY180     -0.2863
    108  N          3.4100   36.8170   32.9600 N.3   184  PHE184     -0.1241
    109  CA         2.7320   35.6910   32.3150 C.3   184  PHE184      0.1605
    110  C          1.4230   35.3460   33.0570 C.2   184  PHE184      0.2264
    111  O          0.3460   35.1710   32.4500 O.2   184  PHE184     -0.2867
    112  CB         3.6820   34.4880   32.3510 C.3   184  PHE184      0.0534
    113  CG         3.1350   33.2470   31.6820 C.ar  184  PHE184     -0.0203
    114  CD1        3.5970   32.8680   30.4240 C.ar  184  PHE184     -0.0042
    115  CD2        2.1860   32.4390   32.3240 C.ar  184  PHE184     -0.0042
    116  CE1        3.1090   31.7180   29.8070 C.ar  184  PHE184     -0.0003
    117  CE2        1.6900   31.2910   31.7080 C.ar  184  PHE184     -0.0003
    118  CZ         2.1560   30.9310   30.4470 C.ar  184  PHE184     -0.0000
    119  N         -6.2110   26.5200   26.3930 N.3   235  LEU235     -0.1245
    120  CA        -5.3400   25.8730   25.4060 C.3   235  LEU235      0.1561
    121  C         -5.9840   25.7060   24.0220 C.2   235  LEU235      0.2260
    122  O         -5.3290   25.9190   22.9890 O.2   235  LEU235     -0.2867
    123  CB        -4.8440   24.5260   25.9370 C.3   235  LEU235      0.0270
    124  CG        -3.9600   23.7710   24.9350 C.3   235  LEU235      0.0019
    125  CD1       -2.6680   24.5690   24.6540 C.3   235  LEU235      0.0001
    126  CD2       -3.6790   22.3700   25.4090 C.3   235  LEU235      0.0001
    127  N         -5.7590   29.1320   22.3700 N.3   238  VAL238     -0.1231
    128  CA        -4.4420   29.6280   21.9730 C.3   238  VAL238      0.1692
    129  C         -3.6250   28.6810   21.0940 C.2   238  VAL238      0.2592
    130  O         -2.8010   29.1420   20.3130 O.2   238  VAL238     -0.2718
    131  CB        -3.5660   30.0810   23.1730 C.3   238  VAL238      0.0266
    132  CG1       -4.3410   31.0740   24.0570 C.3   238  VAL238      0.0020
    133  CG2       -3.0810   28.8900   23.9470 C.3   238  VAL238      0.0020
    134  N         -3.8730   27.3710   21.2080 N.am  239  GLY239     -0.1957
    135  CA        -3.0300   26.3610   20.5390 C.3   239  GLY239      0.1869
    136  C         -2.9720   26.4930   19.0410 C.2   239  GLY239      0.2309
    137  O         -1.9430   26.1940   18.4110 O.2   239  GLY239     -0.2863
    138  N          0.7440   29.4290   16.2070 N.3   243  THR243     -0.1218
    139  CA         1.3590   28.3490   15.4160 C.3   243  THR243      0.1862
    140  C          0.9160   28.4710   13.9490 C.2   243  THR243      0.2287
    141  O          1.7550   28.5310   13.0580 O.2   243  THR243     -0.2866
    142  CB         0.9890   26.9670   15.9440 C.3   243  THR243      0.1770
    143  OG1       -0.4060   26.9180   16.1560 O.3   243  THR243     -0.2211
    144  CG2        1.7060   26.6850   17.2740 C.3   243  THR243      0.0375
    145  N          8.0160   25.4290   16.6570 N.3   286  VAL286     -0.1245
    146  CA         7.7090   25.3310   18.1090 C.3   286  VAL286      0.1561
    147  C          8.9390   24.8210   18.8640 C.2   286  VAL286      0.2260
    148  O          9.6920   23.9680   18.3730 O.2   286  VAL286     -0.2867
    149  CB         6.4580   24.4420   18.3920 C.3   286  VAL286      0.0252
    150  CG1        6.1590   24.3540   19.9100 C.3   286  VAL286      0.0019
    151  CG2        5.2140   24.9570   17.6600 C.3   286  VAL286      0.0019
    152  N          9.0120   23.9610   22.9100 N.3   288  ASP288     -0.1239
    153  CA         8.8200   23.8520   24.3610 C.3   288  ASP288      0.1674
    154  C          9.6870   22.7240   24.9510 C.2   288  ASP288      0.2266
    155  O         10.6890   22.3110   24.3560 O.2   288  ASP288     -0.2867
    156  CB         7.3250   23.9110   24.8310 C.3   288  ASP288      0.1410
    157  CG         6.5390   22.6220   24.6270 C.2   288  ASP288      0.3668
    158  OD1        5.4370   22.5120   25.2090 O.co2 288  ASP288     -0.2456
    159  OD2        6.9650   21.7150   23.9030 O.co2 288  ASP288     -0.2456
    160  N         10.8500   21.1260   19.0400 N.3   313  GLN313     -0.1245
    161  CA        10.1260   20.3820   18.0180 C.3   313  GLN313      0.1566
    162  C         10.6880   20.7350   16.6500 C.2   313  GLN313      0.2260
    163  O         10.7300   19.8660   15.7430 O.2   313  GLN313     -0.2867
    164  CB         8.6340   20.7240   18.0860 C.3   313  GLN313      0.0367
    165  CG         7.8950   19.9960   19.2140 C.3   313  GLN313      0.0905
    166  CD         7.9150   20.7460   20.5680 C.2   313  GLN313      0.2608
    167  OE1        8.6170   21.7490   20.7460 O.2   313  GLN313     -0.2717
    168  NE2        7.1650   20.2180   21.5390 N.am  313  GLN313     -0.0878
    169  N          9.1480   30.4210   22.0170 N.3   386  ILE386     -0.1231
    170  CA         8.4360   29.1550   22.1460 C.3   386  ILE386      0.1692
    171  C          7.6880   28.8630   20.8450 C.2   386  ILE386      0.2591
    172  O          7.6390   27.7130   20.3940 O.2   386  ILE386     -0.2718
    173  CB         7.4560   29.1960   23.3440 C.3   386  ILE386      0.0266
    174  CG1        8.2550   29.3010   24.6500 C.3   386  ILE386      0.0019
    175  CG2        6.5950   27.9200   23.4070 C.3   386  ILE386      0.0020
    176  CD1        7.4260   29.7350   25.8360 C.3   386  ILE386      0.0001
    177  N          7.1000   29.9000   20.2530 N.am  387  VAL387     -0.1980
    178  CA         6.5650   29.7940   18.8850 C.3   387  VAL387      0.1595
    179  C          7.2710   30.8820   18.0580 C.2   387  VAL387      0.2287
    180  O          7.0230   32.0740   18.2550 O.2   387  VAL387     -0.2864
    181  CB         5.0290   29.8960   18.8210 C.3   387  VAL387      0.0276
    182  CG1        4.5200   29.6420   17.3920 C.3   387  VAL387      0.0022
    183  CG2        4.3580   28.9030   19.7790 C.3   387  VAL387      0.0022
@<TRIPOS>BOND
     1   141   140    2
     2   140   139    1
     3   139   142    1
     4   139   138    1
     5   163   162    2
     6   142   143    1
     7   142   144    1
     8   162   161    1
     9   145   146    1
    10   182   181    1
    11   151   149    1
    12   161   164    1
    13   161   160    1
    14   179   180    2
    15   179   178    1
    16   164   165    1
    17   146   149    1
    18   146   147    1
    19   148   147    2
    20   149   150    1
    21   137   136    2
    22   181   178    1
    23   181   183    1
    24   178   177    1
    25   136   135    1
    26   165   166    1
    27   177   171   am
    28   130   129    2
    29   172   171    2
    30   135   134    1
    31   166   167    2
    32   166   168   am
    33   171   170    1
    34   129   134   am
    35   129   128    1
    36     4     3    2
    37     3     2    1
    38    87    86    1
    39   128   127    1
    40   128   131    1
    41   169   170    1
    42   170   173    1
    43    85    84    2
    44     2     1    1
    45     2     5    1
    46    86    88    1
    47    86    83    1
    48   152   153    1
    49    84    83    1
    50   122   121    2
    51   131   133    1
    52   131   132    1
    53   173   175    1
    54   173   174    1
    55    83    82    1
    56     5     6    1
    57   159   157   ar
    58     7     6   ar
    59     7     9   ar
    60   121   120    1
    61   155   154    2
    62   153   156    1
    63   153   154    1
    64     6     8   ar
    65    82    76   am
    66     9    11   ar
    67   157   156    1
    68   157   158   ar
    69    89    95    1
    70    89    90    1
    71   174   176    1
    72   125   124    1
    73    92    91    2
    74    95    94    1
    75   124   126    1
    76   124   123    1
    77   100    97    1
    78   100   101    1
    79   120   123    1
    80   120   119    1
    81    91    90    1
    82    91    96   am
    83     8    10   ar
    84    11    10   ar
    85    11    12    1
    86    73    71    1
    87    90    93    1
    88    76    77    2
    89    76    75    1
    90    97    96    1
    91    97    98    1
    92   103   101   ar
    93    74    75    1
    94    94    93    1
    95   101   102   ar
    96    75    78    1
    97    29    31   ar
    98    29    27   ar
    99    19    18    2
   100    78    79    1
   101    98    99    2
   102    98   104   am
   103    31    30   ar
   104    71    72    1
   105    71    68    1
   106    55    54    1
   107    65    63   ar
   108    65    66   ar
   109    27    26   ar
   110    79    80    1
   111    63    61   ar
   112    80    81    1
   113    18    20   am
   114    18    17    1
   115    68    67    1
   116    68    69    1
   117    66    64   ar
   118   104   105    1
   119    30    28   ar
   120    54    53   ar
   121    54    52   ar
   122    26    28   ar
   123    26    25    1
   124    53    51   ar
   125    61    60    1
   126    61    62   ar
   127    17    14    1
   128    25    22    1
   129    22    21    1
   130    22    23    1
   131    70    69    2
   132    60    57    1
   133    52    50   ar
   134    64    62   ar
   135   105   106    1
   136   116   114   ar
   137   116   118   ar
   138    13    14    1
   139    51    49   ar
   140    23    24    2
   141    38    32    1
   142    38    37    1
   143    14    15    1
   144    32    33    1
   145   114   113   ar
   146   118   117   ar
   147    50    49   ar
   148   106   107    2
   149    58    57    1
   150    58    59    2
   151    57    56    1
   152    49    48    1
   153    43    40    1
   154    37    36    1
   155    15    16    2
   156    33    36    1
   157    33    34    1
   158   113   115   ar
   159   113   112    1
   160   117   115   ar
   161    48    45    1
   162   109   112    1
   163   109   108    1
   164   109   110    1
   165    35    34    2
   166   111   110    2
   167    40    41    1
   168    40    39    1
   169    41    42    2
   170    45    46    1
   171    45    44    1
   172    46    47    2
