@<TRIPOS>MOLECULE
tmp/3oidB00.pdb
 151 141 0 0 0
SMALL
GASTEIGER

@<TRIPOS>ATOM
      1  N        -10.7350  114.4670   58.9150 N.3    89  ASN89      -0.1240
      2  CA       -11.7440  113.3980   58.8080 C.3    89  ASN89       0.1653
      3  C        -12.2040  113.2100   57.3840 C.2    89  ASN89       0.2266
      4  O        -12.6410  112.0880   56.9940 O.2    89  ASN89      -0.2867
      5  CB       -12.9360  113.7640   59.7280 C.3    89  ASN89       0.1155
      6  CG       -14.1900  113.0210   59.3580 C.2    89  ASN89       0.2627
      7  OD1      -14.3670  111.8720   59.8030 O.2    89  ASN89      -0.2716
      8  ND2      -15.0750  113.6490   58.5530 N.am   89  ASN89      -0.0877
      9  N        -12.7490  112.2950   53.5910 N.3    91  ALA91      -0.1231
     10  CA       -12.1300  111.3360   52.6580 C.3    91  ALA91       0.1694
     11  C        -13.0150  111.1390   51.4420 C.2    91  ALA91       0.2593
     12  O        -14.2070  111.3660   51.5230 O.2    91  ALA91      -0.2718
     13  CB       -11.8490  109.8940   53.3770 C.3    91  ALA91       0.0304
     14  N        -12.3780  110.7070   50.3610 N.am   92  SER92      -0.1938
     15  CA       -13.0590  110.2950   49.1400 C.3    92  SER92       0.2055
     16  C        -12.2210  109.1450   48.5810 C.2    92  SER92       0.2643
     17  O        -11.3370  108.6390   49.2630 O.2    92  SER92      -0.2714
     18  CB       -13.1660  111.4600   48.1900 C.3    92  SER92       0.2130
     19  OG       -14.0860  111.0950   47.1680 O.3    92  SER92      -0.2179
     20  N        -12.5010  108.7030   47.3700 N.am   93  GLY93      -0.1954
     21  CA       -11.8100  107.4840   46.9020 C.3    93  GLY93       0.1869
     22  C        -12.4900  106.9820   45.6220 C.2    93  GLY93       0.2309
     23  O        -13.6180  107.3800   45.2980 O.2    93  GLY93      -0.2863
     24  N        -13.2290  103.2180   44.3190 N.3    95  LEU95      -0.1245
     25  CA       -13.2090  101.8020   44.7780 C.3    95  LEU95       0.1561
     26  C        -13.3640  100.7930   43.6430 C.2    95  LEU95       0.2260
     27  O        -14.4790  100.5430   43.1500 O.2    95  LEU95      -0.2867
     28  CB       -14.2880  101.6140   45.8300 C.3    95  LEU95       0.0270
     29  CG       -14.2460  102.5440   47.0840 C.3    95  LEU95       0.0019
     30  CD1      -15.1590  102.1060   48.1360 C.3    95  LEU95       0.0001
     31  CD2      -12.8330  102.5530   47.6990 C.3    95  LEU95       0.0001
     32  N         -8.5630  103.7400   58.7360 N.3   141  SER141     -0.1202
     33  CA        -9.3610  102.5070   58.7580 C.3   141  SER141      0.2020
     34  C         -8.4540  101.2870   58.7130 C.2   141  SER141      0.2618
     35  O         -7.2050  101.4200   58.4930 O.2   141  SER141     -0.2717
     36  CB       -10.3320  102.4390   57.5560 C.3   141  SER141      0.2103
     37  OG        -9.5960  101.9810   56.3660 O.3   141  SER141     -0.2182
     38  N         -9.0560  100.0890   58.8890 N.am  142  LEU142     -0.1979
     39  CA        -8.2750   98.8470   58.8430 C.3   142  LEU142      0.1596
     40  C         -7.6170   98.6060   57.5040 C.2   142  LEU142      0.2287
     41  O         -6.6260   97.8500   57.4140 O.2   142  LEU142     -0.2864
     42  CB        -9.1450   97.5990   59.1610 C.3   142  LEU142      0.0297
     43  CG        -9.6690   97.5860   60.6220 C.3   142  LEU142      0.0022
     44  CD1      -10.6060   96.3930   60.8010 C.3   142  LEU142      0.0001
     45  CD2       -8.4480   97.5060   61.5790 C.3   142  LEU142      0.0001
     46  N         -8.4630   95.3320   52.0760 N.3   148  LEU148     -0.1245
     47  CA        -9.9360   95.3970   51.9850 C.3   148  LEU148      0.1561
     48  C        -10.3090   95.4010   50.5350 C.2   148  LEU148      0.2260
     49  O         -9.8440   96.2240   49.7440 O.2   148  LEU148     -0.2867
     50  CB       -10.4200   96.7230   52.6540 C.3   148  LEU148      0.0270
     51  CG       -11.6170   96.8540   53.5100 C.3   148  LEU148      0.0019
     52  CD1      -11.8250   95.6160   54.4420 C.3   148  LEU148      0.0001
     53  CD2      -11.3800   98.0960   54.3680 C.3   148  LEU148      0.0001
     54  N        -10.4920   98.4620   47.8650 N.3   151  TYR151     -0.1241
     55  CA       -10.1190   99.6800   48.6110 C.3   151  TYR151      0.1605
     56  C         -8.7170  100.1360   48.3400 C.2   151  TYR151      0.2264
     57  O         -8.2520  101.0450   49.0480 O.2   151  TYR151     -0.2867
     58  CB       -10.2160   99.3250   50.0890 C.3   151  TYR151      0.0534
     59  CG       -10.2590  100.4330   51.1060 C.ar  151  TYR151     -0.0201
     60  CD1       -9.1930  100.5470   52.0610 C.ar  151  TYR151     -0.0009
     61  CD2      -11.4200  101.2380   51.2600 C.ar  151  TYR151     -0.0009
     62  CE1       -9.2440  101.5390   53.0850 C.ar  151  TYR151      0.0417
     63  CE2      -11.4850  102.2320   52.3240 C.ar  151  TYR151      0.0417
     64  CZ       -10.3820  102.3040   53.2290 C.ar  151  TYR151      0.1957
     65  OH       -10.4150  103.2170   54.2610 O.3   151  TYR151     -0.2866
     66  N         -7.8770  104.0450   48.6210 N.3   154  VAL154     -0.1245
     67  CA        -8.1480  104.6380   49.9430 C.3   154  VAL154      0.1561
     68  C         -7.1700  104.0140   50.9370 C.2   154  VAL154      0.2260
     69  O         -6.5680  104.7440   51.7710 O.2   154  VAL154     -0.2867
     70  CB        -9.6020  104.4500   50.3720 C.3   154  VAL154      0.0252
     71  CG1       -9.7960  105.1550   51.7550 C.3   154  VAL154      0.0019
     72  CG2      -10.5290  105.0820   49.2750 C.3   154  VAL154      0.0019
     73  N         -4.6230  105.8600   53.3310 N.3   158  LYS158     -0.1245
     74  CA        -4.6850  105.8700   54.8110 C.3   158  LYS158      0.1561
     75  C         -3.3470  105.3980   55.3590 C.2   158  LYS158      0.2260
     76  O         -2.9240  105.8410   56.4540 O.2   158  LYS158     -0.2867
     77  CB        -5.7620  104.8470   55.3170 C.3   158  LYS158      0.0271
     78  CG        -7.2090  105.2870   54.9730 C.3   158  LYS158      0.0035
     79  CD        -7.5200  106.7380   55.4170 C.3   158  LYS158      0.0206
     80  CE        -9.1330  106.9110   55.3900 C.3   158  LYS158      0.1093
     81  NZ        -9.4630  108.3120   55.9420 N.3   158  LYS158     -0.1314
     82  N        -10.9000  102.9260   62.2020 N.3   184  GLY184     -0.1210
     83  CA       -12.1170  102.2230   62.4960 C.3   184  GLY184      0.1956
     84  C        -12.3320  100.9740   61.6780 C.2   184  GLY184      0.2612
     85  O        -11.8750  100.8960   60.5510 O.2   184  GLY184     -0.2717
     86  N        -13.0590  100.0000   62.2390 N.am  185  GLY185     -0.1942
     87  CA       -13.6270   98.9570   61.3880 C.3   185  GLY185      0.2014
     88  C        -14.8580   99.5780   60.6560 C.2   185  GLY185      0.2639
     89  O        -15.0770  100.8150   60.6610 O.2   185  GLY185     -0.2714
     90  N        -15.6220   98.7280   59.9620 N.am  186  ALA186     -0.1963
     91  CA       -16.7400   99.1900   59.1150 C.3   186  ALA186      0.1728
     92  C        -17.8660   99.7780   59.9750 C.2   186  ALA186      0.2616
     93  O        -18.1760   99.2480   61.0450 O.2   186  ALA186     -0.2715
     94  CB       -17.2640   98.0060   58.2840 C.3   186  ALA186      0.0334
     95  N        -18.5020  100.8680   59.4620 N.am  187  ILE187     -0.1977
     96  CA       -19.5890  101.5820   60.2350 C.3   187  ILE187      0.1596
     97  C        -20.7490  101.7260   59.2190 C.2   187  ILE187      0.2287
     98  O        -20.5110  102.0570   58.0520 O.2   187  ILE187     -0.2864
     99  CB       -19.1210  102.9710   60.6780 C.3   187  ILE187      0.0276
    100  CG1      -17.8110  102.8280   61.4810 C.3   187  ILE187      0.0022
    101  CG2      -20.1380  103.5720   61.7060 C.3   187  ILE187      0.0022
    102  CD1      -17.0740  104.1870   61.7570 C.3   187  ILE187      0.0001
    103  N        -22.7360  103.7960   57.4630 N.3   189  THR189     -0.1218
    104  CA       -22.8280  105.2390   57.1490 C.3   189  THR189      0.1862
    105  C        -23.0700  105.3600   55.6430 C.2   189  THR189      0.2287
    106  O        -23.0890  104.3410   54.9330 O.2   189  THR189     -0.2866
    107  CB       -21.5920  106.0880   57.5270 C.3   189  THR189      0.1770
    108  OG1      -20.5710  105.9550   56.5450 O.3   189  THR189     -0.2211
    109  CG2      -20.9710  105.7700   58.9180 C.3   189  THR189      0.0375
    110  N        -21.0620  106.3650   53.5970 N.3   191  ALA191     -0.1231
    111  CA       -19.8580  106.0800   52.8410 C.3   191  ALA191      0.1694
    112  C        -19.8660  104.6040   52.3710 C.2   191  ALA191      0.2591
    113  O        -19.1920  104.2760   51.4100 O.2   191  ALA191     -0.2718
    114  CB       -18.6530  106.3180   53.7480 C.3   191  ALA191      0.0304
    115  N        -20.5460  103.6920   53.0690 N.am  192  LEU192     -0.1980
    116  CA       -20.5180  102.2600   52.6380 C.3   192  LEU192      0.1596
    117  C        -21.0970  102.0950   51.2580 C.2   192  LEU192      0.2287
    118  O        -20.7490  101.1170   50.5630 O.2   192  LEU192     -0.2864
    119  CB       -21.2730  101.3100   53.5680 C.3   192  LEU192      0.0297
    120  CG       -20.6420  101.1830   54.9230 C.3   192  LEU192      0.0022
    121  CD1      -21.3360   99.9770   55.6430 C.3   192  LEU192      0.0001
    122  CD2      -19.1120  100.8110   54.8160 C.3   192  LEU192      0.0001
    123  N        -20.3250  103.5840   48.6970 N.3   194  HIS194     -0.1226
    124  CA       -19.2680  103.6070   47.6800 C.3   194  HIS194      0.1752
    125  C        -18.7700  102.2170   47.3290 C.2   194  HIS194      0.2596
    126  O        -18.1400  102.0600   46.2890 O.2   194  HIS194     -0.2718
    127  CB       -18.0640  104.4250   48.1750 C.3   194  HIS194      0.0759
    128  CG       -18.3840  105.8830   48.2620 C.ar  194  HIS194      0.0818
    129  ND1      -18.2960  106.6000   49.4480 N.ar  194  HIS194     -0.2268
    130  CD2      -18.9070  106.7280   47.3440 C.ar  194  HIS194      0.1154
    131  CE1      -18.7160  107.8410   49.2330 C.ar  194  HIS194      0.1986
    132  NE2      -19.1140  107.9380   47.9740 N.ar  194  HIS194     -0.2212
    133  N        -18.9350  101.2410   48.2100 N.am  195  PHE195     -0.1976
    134  CA       -18.3620   99.9050   47.9700 C.3   195  PHE195      0.1639
    135  C        -19.2740   99.0360   47.1060 C.2   195  PHE195      0.2290
    136  O        -20.4180   98.7950   47.4680 O.2   195  PHE195     -0.2864
    137  CB       -18.1980   99.1530   49.2980 C.3   195  PHE195      0.0560
    138  CG       -17.0900   99.7030   50.1630 C.ar  195  PHE195     -0.0200
    139  CD1      -17.2790  100.8850   50.8870 C.ar  195  PHE195     -0.0042
    140  CD2      -15.8540   99.0710   50.1880 C.ar  195  PHE195     -0.0042
    141  CE1      -16.2440  101.4200   51.6620 C.ar  195  PHE195     -0.0003
    142  CE2      -14.8150   99.5680   50.9950 C.ar  195  PHE195     -0.0003
    143  CZ       -15.0210  100.7470   51.7530 C.ar  195  PHE195     -0.0000
    144  N        -19.3470   93.4800   53.2820 N.3   201  LEU201     -0.1245
    145  CA       -18.6860   94.1660   54.4370 C.3   201  LEU201      0.1561
    146  C        -19.5920   94.1810   55.6640 C.2   201  LEU201      0.2260
    147  O        -19.1540   94.0030   56.8310 O.2   201  LEU201     -0.2867
    148  CB       -18.3890   95.6290   54.0980 C.3   201  LEU201      0.0270
    149  CG       -17.3000   95.9770   53.1310 C.3   201  LEU201      0.0019
    150  CD1      -17.1820   97.5190   53.3140 C.3   201  LEU201      0.0001
    151  CD2      -16.0550   95.2130   53.6230 C.3   201  LEU201      0.0001
@<TRIPOS>BOND
     1    27    26    2
     2    26    25    1
     3    24    25    1
     4    25    28    1
     5    23    22    2
     6    22    21    1
     7    28    29    1
     8   126   125    2
     9    21    20    1
    10    29    31    1
    11    29    30    1
    12   135   136    2
    13   135   134    1
    14    19    18    1
    15   125   124    1
    16   125   133   am
    17   130   132   ar
    18   130   128   ar
    19    20    16   am
    20   124   127    1
    21   124   123    1
    22    54    55    1
    23   134   133    1
    24   134   137    1
    25   132   131   ar
    26   127   128    1
    27    18    15    1
    28   128   129   ar
    29    56    55    1
    30    56    57    2
    31    16    15    1
    32    16    17    2
    33    55    58    1
    34    66    67    1
    35    15    14    1
    36   131   129   ar
    37    72    70    1
    38   137   138    1
    39    49    48    2
    40    67    70    1
    41    67    68    1
    42    58    59    1
    43   138   140   ar
    44   138   139   ar
    45   140   142   ar
    46    14    11   am
    47    70    71    1
    48    48    47    1
    49   118   117    2
    50   139   141   ar
    51    68    69    2
    52   142   143   ar
    53    59    61   ar
    54    59    60   ar
    55   117   116    1
    56    61    63   ar
    57   113   112    2
    58    11    12    2
    59    11    10    1
    60   141   143   ar
    61    47    46    1
    62    47    50    1
    63    60    62   ar
    64    63    64   ar
    65   112   111    1
    66   112   115   am
    67   116   115    1
    68   116   119    1
    69    50    51    1
    70    10    13    1
    71    10     9    1
    72   111   110    1
    73   111   114    1
    74    62    64   ar
    75   149   150    1
    76   149   151    1
    77   149   148    1
    78    64    65    1
    79   144   145    1
    80    73    74    1
    81    51    53    1
    82    51    52    1
    83   119   120    1
    84   148   145    1
    85   145   146    1
    86    74    77    1
    87    74    75    1
    88   122   120    1
    89   120   121    1
    90   106   105    2
    91    78    77    1
    92    78    79    1
    93    75    76    2
    94    80    79    1
    95    80    81    1
    96   105   104    1
    97   146   147    2
    98    37    36    1
    99   108   107    1
   100     4     3    2
   101   104   103    1
   102   104   107    1
   103     3     2    1
   104    41    40    2
   105    40    39    1
   106   107   109    1
   107    36    33    1
   108    98    97    2
   109    94    91    1
   110    35    34    2
   111     8     6   am
   112    34    33    1
   113    34    38   am
   114    32    33    1
   115     2     1    1
   116     2     5    1
   117    39    38    1
   118    39    42    1
   119    91    90    1
   120    91    92    1
   121    42    43    1
   122    97    96    1
   123     6     5    1
   124     6     7    2
   125    95    92   am
   126    95    96    1
   127    90    88   am
   128    92    93    2
   129    96    99    1
   130    85    84    2
   131    43    44    1
   132    43    45    1
   133    88    89    2
   134    88    87    1
   135    99   100    1
   136    99   101    1
   137    87    86    1
   138   100   102    1
   139    84    86   am
   140    84    83    1
   141    82    83    1
