@<TRIPOS>MOLECULE
tmp/3oifA01.pdb
 149 142 0 0 0
SMALL
GASTEIGER

@<TRIPOS>ATOM
      1  N         32.3190   46.5330   96.0500 N.3    94  CYS94      -0.1235
      2  CA        33.6130   45.9740   96.4030 C.3    94  CYS94       0.1677
      3  C         33.4650   44.5950   97.0200 C.2    94  CYS94       0.2270
      4  O         34.1360   44.2620   98.0100 O.2    94  CYS94      -0.2867
      5  CB        34.3810   46.8920   97.3570 C.3    94  CYS94       0.0956
      6  SG        34.5120   48.6130   96.8660 S.3    94  CYS94      -0.0801
      7  N         33.6990   40.5180   96.7440 N.3    96  ALA96      -0.1231
      8  CA        34.1350   39.2700   96.0590 C.3    96  ALA96       0.1694
      9  C         34.2400   38.0930   97.0110 C.2    96  ALA96       0.2592
     10  O         34.2960   38.2760   98.2170 O.2    96  ALA96      -0.2718
     11  CB        35.4550   39.4530   95.3140 C.3    96  ALA96       0.0304
     12  N         34.2310   36.8880   96.4580 N.am   97  PHE97      -0.1962
     13  CA        34.5490   35.6760   97.2100 C.3    97  PHE97       0.1771
     14  C         34.6400   34.4610   96.2890 C.2    97  PHE97       0.2619
     15  O         34.0200   34.4280   95.2180 O.2    97  PHE97      -0.2715
     16  CB        33.5410   35.4330   98.3370 C.3    97  PHE97       0.0574
     17  CG        33.7460   34.1280   99.0670 C.ar   97  PHE97      -0.0200
     18  CD1       34.7390   34.0070  100.0560 C.ar   97  PHE97      -0.0042
     19  CD2       32.9590   33.0130   98.7560 C.ar   97  PHE97      -0.0042
     20  CE1       34.9520   32.7910  100.7170 C.ar   97  PHE97      -0.0003
     21  CE2       33.1570   31.7980   99.4180 C.ar   97  PHE97      -0.0003
     22  CZ        34.1580   31.6880  100.4060 C.ar   97  PHE97      -0.0000
     23  N         35.4500   33.4940   96.7170 N.am   98  ALA98      -0.1963
     24  CA        35.5880   32.1640   96.1100 C.3    98  ALA98       0.1728
     25  C         36.2000   31.2010   97.1540 C.2    98  ALA98       0.2616
     26  O         36.7980   31.6570   98.1470 O.2    98  ALA98      -0.2715
     27  CB        36.4640   32.2250   94.8520 C.3    98  ALA98       0.0334
     28  N         36.0470   29.8890   96.9430 N.am   99  ASN99      -0.1958
     29  CA        36.6260   28.9180   97.8680 C.3    99  ASN99       0.1819
     30  C         38.1610   28.9280   97.7740 C.2    99  ASN99       0.2621
     31  O         38.7440   28.9810   96.6940 O.2    99  ASN99      -0.2715
     32  CB        36.0340   27.4990   97.6990 C.3    99  ASN99       0.1195
     33  CG        34.4790   27.4380   97.8940 C.2    99  ASN99       0.2630
     34  OD1       33.7760   26.8480   97.0780 O.2    99  ASN99      -0.2716
     35  ND2       33.9650   28.0350   98.9710 N.am   99  ASN99      -0.0877
     36  N         38.8050   28.8880   98.9330 N.am  100  LYS100     -0.1977
     37  CA        40.2220   29.1860   99.0400 C.3   100  LYS100      0.1596
     38  C         41.0790   28.0200   98.5420 C.2   100  LYS100      0.2287
     39  O         42.2350   28.2050   98.1150 O.2   100  LYS100     -0.2864
     40  CB        40.5780   29.6390  100.4770 C.3   100  LYS100      0.0298
     41  CG        40.3300   28.6060  101.5650 C.3   100  LYS100      0.0038
     42  CD        40.0450   29.2240  102.9650 C.3   100  LYS100      0.0206
     43  CE        39.7470   28.1160  104.0260 C.3   100  LYS100      0.1093
     44  NZ        38.8330   28.5510  105.1490 N.3   100  LYS100     -0.1314
     45  N         41.6890   28.3560   94.7170 N.3   103  LEU103     -0.1245
     46  CA        42.6570   29.3620   94.2760 C.3   103  LEU103      0.1561
     47  C         44.0840   28.9420   94.5970 C.2   103  LEU103      0.2260
     48  O         44.9520   29.7820   94.8710 O.2   103  LEU103     -0.2867
     49  CB        42.3500   30.7210   94.9390 C.3   103  LEU103      0.0270
     50  CG        40.8990   31.1890   94.8440 C.3   103  LEU103      0.0019
     51  CD1       40.6960   32.4750   95.6480 C.3   103  LEU103      0.0001
     52  CD2       40.4610   31.3350   93.3750 C.3   103  LEU103      0.0001
     53  N         40.2650   42.6620   88.4450 N.3   148  TYR148     -0.1241
     54  CA        41.6900   42.3960   88.5950 C.3   148  TYR148      0.1605
     55  C         42.2090   41.7790   87.3000 C.2   148  TYR148      0.2264
     56  O         41.4510   41.0880   86.6100 O.2   148  TYR148     -0.2867
     57  CB        41.9530   41.4690   89.8140 C.3   148  TYR148      0.0534
     58  CG        43.3990   41.1420   90.0140 C.ar  148  TYR148     -0.0201
     59  CD1       44.3200   42.1550   90.3000 C.ar  148  TYR148     -0.0009
     60  CD2       43.8720   39.8360   89.8750 C.ar  148  TYR148     -0.0009
     61  CE1       45.6570   41.8850   90.4630 C.ar  148  TYR148      0.0417
     62  CE2       45.2190   39.5530   90.0330 C.ar  148  TYR148      0.0417
     63  CZ        46.1080   40.5890   90.3210 C.ar  148  TYR148      0.1957
     64  OH        47.4620   40.3490   90.5010 O.3   148  TYR148     -0.2866
     65  N         44.9240   32.6100   90.5400 N.3   158  TYR158     -0.1241
     66  CA        43.7100   33.4340   90.5640 C.3   158  TYR158      0.1605
     67  C         42.5330   32.6140   90.0680 C.2   158  TYR158      0.2264
     68  O         41.4440   32.6890   90.6100 O.2   158  TYR158     -0.2867
     69  CB        43.8840   34.7250   89.7780 C.3   158  TYR158      0.0534
     70  CG        42.9190   35.7950   90.1930 C.ar  158  TYR158     -0.0201
     71  CD1       42.9000   36.2860   91.5040 C.ar  158  TYR158     -0.0009
     72  CD2       42.0300   36.3390   89.2700 C.ar  158  TYR158     -0.0009
     73  CE1       41.9970   37.2890   91.8800 C.ar  158  TYR158      0.0417
     74  CE2       41.1240   37.3390   89.6380 C.ar  158  TYR158      0.0417
     75  CZ        41.1200   37.8130   90.9310 C.ar  158  TYR158      0.1957
     76  OH        40.2250   38.8010   91.2480 O.3   158  TYR158     -0.2866
     77  N         38.5570   32.5800   90.3550 N.3   161  MET161     -0.1245
     78  CA        38.2700   33.9810   90.6640 C.3   161  MET161      0.1570
     79  C         38.4010   34.8760   89.4350 C.2   161  MET161      0.2261
     80  O         37.6650   35.8400   89.2980 O.2   161  MET161     -0.2867
     81  CB        39.0960   34.5030   91.8390 C.3   161  MET161      0.0387
     82  CG        38.7750   35.9460   92.1610 C.3   161  MET161      0.0595
     83  SD        37.0630   36.2790   92.6380 S.3   161  MET161     -0.1393
     84  CE        37.1250   35.8820   94.3720 C.3   161  MET161      0.0692
     85  N         35.7010   37.1270   87.5300 N.3   165  LYS165     -0.1245
     86  CA        36.0290   38.4990   87.2000 C.3   165  LYS165      0.1561
     87  C         35.7390   38.8150   85.7340 C.2   165  LYS165      0.2260
     88  O         35.2640   39.9220   85.4080 O.2   165  LYS165     -0.2867
     89  CB        37.4700   38.8340   87.5730 C.3   165  LYS165      0.0271
     90  CG        37.6860   38.9030   89.0870 C.3   165  LYS165      0.0035
     91  CD        36.6200   39.7720   89.8660 C.3   165  LYS165      0.0206
     92  CE        37.1630   40.2770   91.2270 C.3   165  LYS165      0.1093
     93  NZ        36.3130   41.3370   91.8770 N.3   165  LYS165     -0.1314
     94  N         47.6040   44.5120   93.0900 N.3   193  PRO193     -0.2102
     95  CA        47.4940   43.8640   94.4150 C.3   193  PRO193      0.1504
     96  C         47.8490   44.7820   95.5830 C.2   193  PRO193      0.2575
     97  O         48.8390   45.5250   95.5310 O.2   193  PRO193     -0.2718
     98  CB        48.4950   42.7020   94.3380 C.3   193  PRO193      0.0282
     99  CG        48.7830   42.5300   92.8290 C.3   193  PRO193      0.0208
    100  CD        48.6380   43.8920   92.2440 C.3   193  PRO193      0.0893
    101  N         46.9980   44.7370   96.6020 N.am  194  ILE194     -0.1980
    102  CA        47.1880   45.4290   97.8790 C.3   194  ILE194      0.1595
    103  C         46.9080   44.4050   99.0050 C.2   194  ILE194      0.2287
    104  O         46.0260   43.5360   98.8420 O.2   194  ILE194     -0.2864
    105  CB        46.2180   46.6200   98.0500 C.3   194  ILE194      0.0276
    106  CG1       46.1490   47.4450   96.7800 C.3   194  ILE194      0.0022
    107  CG2       46.6270   47.4910   99.2580 C.3   194  ILE194      0.0022
    108  CD1       44.8480   48.1250   96.6000 C.3   194  ILE194      0.0001
    109  N         45.1090   43.0560  101.8050 N.3   196  THR196     -0.1218
    110  CA        43.8050   43.1220  102.4660 C.3   196  THR196      0.1862
    111  C         43.4740   41.7500  103.1010 C.2   196  THR196      0.2287
    112  O         44.2290   40.7720  102.9240 O.2   196  THR196     -0.2866
    113  CB        42.6690   43.5120  101.4750 C.3   196  THR196      0.1770
    114  OG1       42.3240   42.3920  100.6520 O.3   196  THR196     -0.2211
    115  CG2       43.0680   44.6730  100.5890 C.3   196  THR196      0.0375
    116  N         41.1190   39.6460  102.1690 N.3   198  SER198     -0.1202
    117  CA        40.9540   38.7030  101.0660 C.3   198  SER198      0.2020
    118  C         42.2570   38.2980  100.3510 C.2   198  SER198      0.2618
    119  O         42.3290   37.2280   99.7500 O.2   198  SER198     -0.2717
    120  CB        39.9190   39.2170  100.0780 C.3   198  SER198      0.2103
    121  OG        38.6190   39.1280  100.6280 O.3   198  SER198     -0.2182
    122  N         43.2810   39.1420  100.4300 N.am  199  ALA199     -0.1979
    123  CA        44.5890   38.8170   99.8560 C.3   199  ALA199      0.1597
    124  C         45.1520   37.4950  100.4150 C.2   199  ALA199      0.2287
    125  O         45.6790   36.6660   99.6710 O.2   199  ALA199     -0.2864
    126  CB        45.5710   39.9680  100.0770 C.3   199  ALA199      0.0319
    127  N         44.9770   33.9180  101.3580 N.3   201  GLY201     -0.1210
    128  CA        44.1920   32.9910  100.5300 C.3   201  GLY201      0.1956
    129  C         44.5960   33.0560   99.0590 C.2   201  GLY201      0.2611
    130  O         44.2870   32.1520   98.2700 O.2   201  GLY201     -0.2717
    131  N         45.2710   34.1520   98.7070 N.am  202  ILE202     -0.1979
    132  CA        46.0230   34.3040   97.4600 C.3   202  ILE202      0.1595
    133  C         47.5090   34.0780   97.8160 C.2   202  ILE202      0.2287
    134  O         48.2290   35.0180   98.1830 O.2   202  ILE202     -0.2864
    135  CB        45.7810   35.7280   96.8430 C.3   202  ILE202      0.0276
    136  CG1       44.2770   36.0110   96.6540 C.3   202  ILE202      0.0022
    137  CG2       46.5830   35.9530   95.5530 C.3   202  ILE202      0.0022
    138  CD1       43.5400   35.0200   95.7800 C.3   202  ILE202      0.0001
    139  N         52.1330   36.0800   98.5930 N.3   205  PHE205     -0.1241
    140  CA        51.7390   37.4590   98.3010 C.3   205  PHE205      0.1605
    141  C         52.9440   38.4060   98.2870 C.2   205  PHE205      0.2264
    142  O         53.1700   39.0810   97.2750 O.2   205  PHE205     -0.2867
    143  CB        50.6690   37.9340   99.2990 C.3   205  PHE205      0.0534
    144  CG        49.7450   39.0030   98.7600 C.ar  205  PHE205     -0.0203
    145  CD1       48.8050   38.7080   97.7760 C.ar  205  PHE205     -0.0042
    146  CD2       49.7870   40.3020   99.2690 C.ar  205  PHE205     -0.0042
    147  CE1       47.9410   39.7000   97.2890 C.ar  205  PHE205     -0.0003
    148  CE2       48.9270   41.2960   98.7880 C.ar  205  PHE205     -0.0003
    149  CZ        48.0070   40.9920   97.7990 C.ar  205  PHE205     -0.0000
@<TRIPOS>BOND
     1    88    87    2
     2    87    86    1
     3    56    55    2
     4    86    85    1
     5    86    89    1
     6    55    54    1
     7    89    90    1
     8    53    54    1
     9    54    57    1
    10    90    91    1
    11    72    74   ar
    12    72    70   ar
    13    80    79    2
    14    79    78    1
    15    74    75   ar
    16    69    70    1
    17    69    66    1
    18    57    58    1
    19    91    92    1
    20    60    58   ar
    21    60    62   ar
    22    58    59   ar
    23    62    63   ar
    24    67    66    1
    25    67    68    2
    26    70    71   ar
    27    59    61   ar
    28    63    61   ar
    29    63    64    1
    30    77    78    1
    31    65    66    1
    32    78    81    1
    33    75    76    1
    34    75    73   ar
    35    92    93    1
    36    71    73   ar
    37    81    82    1
    38    82    83    1
    39   100    99    1
    40   100    94    1
    41    83    84    1
    42    99    98    1
    43    94    95    1
    44    52    50    1
    45    46    47    1
    46    46    45    1
    47    46    49    1
    48    98    95    1
    49    95    96    1
    50    47    48    2
    51    50    49    1
    52    50    51    1
    53    27    24    1
    54    15    14    2
    55    11     8    1
    56    97    96    2
    57   137   135    1
    58    96   101   am
    59   138   136    1
    60     1     2    1
    61     8     7    1
    62     8     9    1
    63    24    23    1
    64    24    25    1
    65    14    23   am
    66    14    13    1
    67     2     3    1
    68     2     5    1
    69    12     9   am
    70    12    13    1
    71   108   106    1
    72   101   102    1
    73   136   135    1
    74    31    30    2
    75   106   105    1
    76   135   132    1
    77     6     5    1
    78    28    25   am
    79    28    29    1
    80     9    10    2
    81     3     4    2
    82    34    33    2
    83    25    26    2
    84    13    16    1
    85   142   141    2
    86   147   145   ar
    87   147   149   ar
    88   132   133    1
    89   132   131    1
    90    32    29    1
    91    32    33    1
    92    30    29    1
    93    30    36   am
    94   145   144   ar
    95   149   148   ar
    96   133   134    2
    97   102   105    1
    98   102   103    1
    99    33    35   am
   100   105   107    1
   101    39    38    2
   102   130   129    2
   103   141   140    1
   104   140   139    1
   105   140   143    1
   106    16    17    1
   107    38    37    1
   108   131   129   am
   109    19    17   ar
   110    19    21   ar
   111   144   146   ar
   112   144   143    1
   113   148   146   ar
   114   104   103    2
   115    36    37    1
   116    37    40    1
   117   129   128    1
   118    17    18   ar
   119    21    22   ar
   120   125   124    2
   121   119   118    2
   122   123   126    1
   123   123   124    1
   124   123   122    1
   125    18    20   ar
   126   120   121    1
   127   120   117    1
   128   118   122   am
   129   118   117    1
   130    22    20   ar
   131    40    41    1
   132   128   127    1
   133   115   113    1
   134   114   113    1
   135   117   116    1
   136   113   110    1
   137    41    42    1
   138   109   110    1
   139   110   111    1
   140   112   111    2
   141    42    43    1
   142    43    44    1
