@<TRIPOS>MOLECULE
tmp/3oigA01.pdb
 183 178 0 0 0
SMALL
GASTEIGER

@<TRIPOS>ATOM
      1  N         14.3170  -47.1570  100.0260 N.3    96  ALA96      -0.1231
      2  CA        14.3450  -47.4330   98.5780 C.3    96  ALA96       0.1694
      3  C         13.2550  -48.3720   98.2400 C.2    96  ALA96       0.2592
      4  O         12.8810  -49.2070   99.0890 O.2    96  ALA96      -0.2718
      5  CB        15.6750  -48.1580   98.1610 C.3    96  ALA96       0.0304
      6  N         12.7110  -48.2540   97.0400 N.am   97  PHE97      -0.1962
      7  CA        11.7640  -49.2810   96.5400 C.3    97  PHE97       0.1771
      8  C         11.6940  -49.1430   95.0480 C.2    97  PHE97       0.2619
      9  O         11.7060  -48.0970   94.4680 O.2    97  PHE97      -0.2715
     10  CB        10.3570  -48.9950   97.0780 C.3    97  PHE97       0.0574
     11  CG         9.4020  -50.1370   96.8280 C.ar   97  PHE97      -0.0200
     12  CD1        9.4560  -51.2640   97.6200 C.ar   97  PHE97      -0.0042
     13  CD2        8.5230  -50.0550   95.7640 C.ar   97  PHE97      -0.0042
     14  CE1        8.5720  -52.3640   97.3530 C.ar   97  PHE97      -0.0003
     15  CE2        7.6280  -51.1460   95.5280 C.ar   97  PHE97      -0.0003
     16  CZ         7.7060  -52.2690   96.3300 C.ar   97  PHE97      -0.0000
     17  N         11.6020  -50.3390   94.4410 N.am   98  ALA98      -0.1977
     18  CA        11.2410  -50.5030   93.0350 C.3    98  ALA98       0.1597
     19  C         10.4520  -51.7950   92.9250 C.2    98  ALA98       0.2287
     20  O         10.4980  -52.6550   93.7870 O.2    98  ALA98      -0.2864
     21  CB        12.4870  -50.6620   92.1500 C.3    98  ALA98       0.0319
     22  N          9.8730  -55.4580   92.1770 N.3   100  LYS100     -0.1245
     23  CA        10.8610  -56.4730   92.2110 C.3   100  LYS100      0.1561
     24  C         11.0990  -57.1260   90.8350 C.2   100  LYS100      0.2260
     25  O         12.2250  -57.5590   90.5250 O.2   100  LYS100     -0.2867
     26  CB        10.5510  -57.5290   93.3220 C.3   100  LYS100      0.0271
     27  CG         9.2790  -58.2890   93.0120 C.3   100  LYS100      0.0035
     28  CD         8.9720  -59.3750   94.1000 C.3   100  LYS100      0.0206
     29  CE         7.7640  -60.2270   93.6390 C.3   100  LYS100      0.1093
     30  NZ         6.4040  -59.5630   93.4690 N.3   100  LYS100     -0.1314
     31  N         13.9210  -55.8470   88.7510 N.3   103  LEU103     -0.1245
     32  CA        15.2520  -55.9940   89.2910 C.3   103  LEU103      0.1561
     33  C         15.7290  -57.4340   89.0770 C.2   103  LEU103      0.2260
     34  O         16.5370  -57.9950   89.7960 O.2   103  LEU103     -0.2867
     35  CB        15.2680  -55.7400   90.8050 C.3   103  LEU103      0.0270
     36  CG        14.6470  -54.3890   91.2010 C.3   103  LEU103      0.0019
     37  CD1       14.6620  -54.2550   92.7800 C.3   103  LEU103      0.0001
     38  CD2       15.3670  -53.1840   90.4910 C.3   103  LEU103      0.0001
     39  N         24.3020  -47.0480   96.4510 N.3   148  TYR148     -0.1241
     40  CA        24.9630  -48.2910   96.1200 C.3   148  TYR148      0.1605
     41  C         25.7360  -48.1150   94.8040 C.2   148  TYR148      0.2264
     42  O         25.2370  -47.3510   93.9310 O.2   148  TYR148     -0.2867
     43  CB        23.9200  -49.4510   95.9520 C.3   148  TYR148      0.0534
     44  CG        24.5450  -50.7640   95.5590 C.ar  148  TYR148     -0.0201
     45  CD1       25.5450  -51.3620   96.2880 C.ar  148  TYR148     -0.0009
     46  CD2       24.1230  -51.3760   94.3860 C.ar  148  TYR148     -0.0009
     47  CE1       26.1610  -52.4980   95.8880 C.ar  148  TYR148      0.0417
     48  CE2       24.7140  -52.5780   93.9600 C.ar  148  TYR148      0.0417
     49  CZ        25.7330  -53.0870   94.7070 C.ar  148  TYR148      0.1957
     50  OH        26.3420  -54.2670   94.2640 O.3   148  TYR148     -0.2866
     51  N         25.5340  -52.7630   87.6640 N.3   155  MET155     -0.1231
     52  CA        25.5800  -53.9850   88.4640 C.3   155  MET155      0.1687
     53  C         24.4430  -54.9120   88.0170 C.2   155  MET155      0.2434
     54  O         23.2880  -54.4900   87.9640 O.2   155  MET155     -0.2733
     55  CB        25.4490  -53.6620   89.9520 C.3   155  MET155      0.0400
     56  CG        26.7270  -53.1400   90.5890 C.3   155  MET155      0.0596
     57  SD        27.9760  -54.4240   90.7950 S.3   155  MET155     -0.1393
     58  CE        26.9420  -55.8660   91.0390 C.3   155  MET155      0.0692
     59  N         24.7600  -56.1650   87.6860 N.am  156  PRO156     -0.2718
     60  CA        23.7540  -57.0650   87.1400 C.3   156  PRO156      0.1535
     61  C         22.4690  -57.0320   87.9960 C.2   156  PRO156      0.2599
     62  O         22.5260  -57.1190   89.2030 O.2   156  PRO156     -0.2715
     63  CB        24.4540  -58.4660   87.2910 C.3   156  PRO156      0.0310
     64  CG        25.9250  -58.1120   86.9870 C.3   156  PRO156      0.0237
     65  CD        26.0970  -56.8060   87.8080 C.3   156  PRO156      0.0939
     66  N         21.3390  -56.8700   87.2890 N.am  157  ASN157     -0.1959
     67  CA        20.0230  -56.9020   87.8400 C.3   157  ASN157      0.1819
     68  C         19.6020  -55.6550   88.6130 C.2   157  ASN157      0.2621
     69  O         18.4600  -55.5050   88.9490 O.2   157  ASN157     -0.2715
     70  CB        19.7480  -58.1800   88.6690 C.3   157  ASN157      0.1195
     71  CG        19.9890  -59.4030   87.8670 C.2   157  ASN157      0.2630
     72  OD1       19.4460  -59.5620   86.8020 O.2   157  ASN157     -0.2716
     73  ND2       20.9140  -60.1970   88.2920 N.am  157  ASN157     -0.0877
     74  N         20.5770  -54.7730   88.9410 N.am  158  TYR158     -0.1974
     75  CA        20.2160  -53.6010   89.7630 C.3   158  TYR158      0.1639
     76  C         19.3740  -52.6360   89.0040 C.2   158  TYR158      0.2290
     77  O         18.4560  -51.9630   89.5670 O.2   158  TYR158     -0.2864
     78  CB        21.4810  -52.9880   90.3500 C.3   158  TYR158      0.0560
     79  CG        21.1790  -52.0570   91.5530 C.ar  158  TYR158     -0.0198
     80  CD1       20.5950  -52.5610   92.6990 C.ar  158  TYR158     -0.0009
     81  CD2       21.5570  -50.7290   91.5250 C.ar  158  TYR158     -0.0009
     82  CE1       20.3010  -51.7830   93.7940 C.ar  158  TYR158      0.0417
     83  CE2       21.2800  -49.9040   92.6350 C.ar  158  TYR158      0.0417
     84  CZ        20.6610  -50.4290   93.7290 C.ar  158  TYR158      0.1957
     85  OH        20.4430  -49.6200   94.7950 O.3   158  TYR158     -0.2866
     86  N         16.7720  -49.6080   89.8090 N.3   161  MET161     -0.1245
     87  CA        17.2970  -49.0400   91.0800 C.3   161  MET161      0.1570
     88  C         18.6310  -48.3650   90.8580 C.2   161  MET161      0.2261
     89  O         18.9120  -47.3750   91.5620 O.2   161  MET161     -0.2867
     90  CB        17.4760  -50.1250   92.1250 C.3   161  MET161      0.0387
     91  CG        16.1790  -50.4050   92.9440 C.3   161  MET161      0.0595
     92  SD        15.4710  -48.9430   93.7460 S.3   161  MET161     -0.1393
     93  CE        16.8080  -48.2600   94.4810 C.3   161  MET161      0.0692
     94  N         19.2210  -44.6100   91.9050 N.3   165  LYS165     -0.1245
     95  CA        20.3200  -44.1720   92.7360 C.3   165  LYS165      0.1561
     96  C         21.1460  -43.0790   92.0970 C.2   165  LYS165      0.2260
     97  O         21.6600  -42.2050   92.7790 O.2   165  LYS165     -0.2867
     98  CB        21.2540  -45.3440   93.0860 C.3   165  LYS165      0.0271
     99  CG        20.6520  -46.3500   94.0940 C.3   165  LYS165      0.0035
    100  CD        20.2260  -45.7120   95.4300 C.3   165  LYS165      0.0206
    101  CE        19.8660  -46.7880   96.4520 C.3   165  LYS165      0.1093
    102  NZ        19.3970  -46.1980   97.7500 N.3   165  LYS165     -0.1314
    103  N         27.2580  -54.5970   99.5670 N.3   193  PRO193     -0.2102
    104  CA        26.0530  -55.4360   99.7510 C.3   193  PRO193      0.1504
    105  C         25.9450  -56.0060  101.1220 C.2   193  PRO193      0.2575
    106  O         26.9480  -56.4580  101.7070 O.2   193  PRO193     -0.2718
    107  CB        26.2590  -56.5300   98.7020 C.3   193  PRO193      0.0282
    108  CG        27.0200  -55.9180   97.5610 C.3   193  PRO193      0.0208
    109  CD        28.0210  -54.9670   98.3260 C.3   193  PRO193      0.0893
    110  N         24.7170  -55.9790  101.6370 N.am  194  ILE194     -0.1980
    111  CA        24.3710  -56.4910  103.0060 C.3   194  ILE194      0.1595
    112  C         23.0630  -57.2550  102.8390 C.2   194  ILE194      0.2287
    113  O         22.1440  -56.8450  102.1490 O.2   194  ILE194     -0.2864
    114  CB        24.2010  -55.3630  103.9730 C.3   194  ILE194      0.0276
    115  CG1       25.4810  -54.5380  104.1190 C.3   194  ILE194      0.0022
    116  CG2       23.7840  -55.9070  105.3520 C.3   194  ILE194      0.0022
    117  CD1       25.3230  -53.3070  105.0010 C.3   194  ILE194      0.0001
    118  N         19.9110  -57.8110  103.8580 N.3   196  THR196     -0.1203
    119  CA        18.8000  -57.1500  104.4690 C.3   196  THR196      0.1994
    120  C         17.5070  -57.6370  103.8100 C.2   196  THR196      0.2618
    121  O         17.5250  -58.3660  102.8060 O.2   196  THR196     -0.2717
    122  CB        18.9080  -55.6370  104.3310 C.3   196  THR196      0.1784
    123  OG1       18.6930  -55.3180  102.9510 O.3   196  THR196     -0.2211
    124  CG2       20.2750  -55.0780  104.7760 C.3   196  THR196      0.0376
    125  N         16.3620  -57.1060  104.2540 N.am  197  LEU197     -0.1965
    126  CA        15.1190  -57.3970  103.5490 C.3   197  LEU197      0.1728
    127  C         15.1520  -56.9620  102.1020 C.2   197  LEU197      0.2617
    128  O         14.5380  -57.5680  101.2280 O.2   197  LEU197     -0.2715
    129  CB        13.9600  -56.6590  104.1680 C.3   197  LEU197      0.0311
    130  CG        13.5370  -57.1960  105.5220 C.3   197  LEU197      0.0022
    131  CD1       12.5910  -56.1970  106.1800 C.3   197  LEU197      0.0001
    132  CD2       12.8490  -58.6410  105.3990 C.3   197  LEU197      0.0001
    133  N         15.9290  -55.9280  101.8010 N.am  198  SER198     -0.1936
    134  CA        16.0500  -55.4360  100.3920 C.3   198  SER198      0.2055
    135  C         17.0430  -56.2490   99.5510 C.2   198  SER198      0.2643
    136  O         17.2010  -55.9370   98.3370 O.2   198  SER198     -0.2714
    137  CB        16.3210  -53.9500  100.4060 C.3   198  SER198      0.2130
    138  OG        15.1410  -53.2280  100.7980 O.3   198  SER198     -0.2179
    139  N         17.6340  -57.2890  100.1330 N.am  199  ALA199     -0.1963
    140  CA        18.3850  -58.2480   99.3530 C.3   199  ALA199      0.1728
    141  C         17.5260  -59.3950   98.9550 C.2   199  ALA199      0.2616
    142  O         18.0480  -60.2670   98.1440 O.2   199  ALA199     -0.2715
    143  CB        19.5970  -58.7950  100.1460 C.3   199  ALA199      0.0334
    144  N         16.3100  -59.5420   99.4800 N.am  200  LYS200     -0.1963
    145  CA        15.4900  -60.7070   99.0400 C.3   200  LYS200      0.1728
    146  C         15.0890  -60.4880   97.5910 C.2   200  LYS200      0.2617
    147  O         14.6210  -59.4080   97.2050 O.2   200  LYS200     -0.2715
    148  CB        14.3180  -60.8130   99.9430 C.3   200  LYS200      0.0311
    149  CG        13.3420  -61.9450   99.5490 C.3   200  LYS200      0.0038
    150  CD        12.3200  -62.2090  100.6590 C.3   200  LYS200      0.0206
    151  CE        10.9050  -61.6850  100.2000 C.3   200  LYS200      0.1093
    152  NZ         9.7160  -61.9000  101.1230 N.3   200  LYS200     -0.1314
    153  N         15.3810  -61.4900   96.7440 N.am  201  GLY201     -0.1940
    154  CA        15.1570  -61.3900   95.2880 C.3   201  GLY201      0.2014
    155  C         16.4340  -61.3420   94.4470 C.2   201  GLY201      0.2638
    156  O         16.4050  -61.5840   93.2060 O.2   201  GLY201     -0.2714
    157  N         17.5560  -60.9590   95.0280 N.am  202  ILE202     -0.1977
    158  CA        18.8230  -61.1490   94.3520 C.3   202  ILE202      0.1596
    159  C         19.1210  -62.6180   94.1300 C.2   202  ILE202      0.2287
    160  O         18.9680  -63.3970   95.0610 O.2   202  ILE202     -0.2864
    161  CB        19.9630  -60.5500   95.1810 C.3   202  ILE202      0.0276
    162  CG1       19.7430  -59.0100   95.2870 C.3   202  ILE202      0.0022
    163  CG2       21.3140  -60.8940   94.5530 C.3   202  ILE202      0.0022
    164  CD1       20.7670  -58.3850   96.3310 C.3   202  ILE202      0.0001
    165  N         22.8000  -64.5440   95.7540 N.3   205  PHE205     -0.1298
    166  CA        23.4440  -63.5550   96.6200 C.3   205  PHE205      0.1290
    167  C         24.5990  -64.1010   97.3730 C.3   205  PHE205      0.2013
    168  O         25.6380  -63.3470   97.6070 O.3   205  PHE205     -0.2188
    169  CB        22.4100  -62.9980   97.5500 C.3   205  PHE205      0.0480
    170  CG        22.8620  -61.7270   98.1890 C.ar  205  PHE205     -0.0206
    171  CD1       23.6750  -60.8360   97.4700 C.ar  205  PHE205     -0.0042
    172  CD2       22.5760  -61.3840   99.4760 C.ar  205  PHE205     -0.0042
    173  CE1       24.0250  -59.5580   98.1000 C.ar  205  PHE205     -0.0003
    174  CE2       22.8910  -60.1730  100.0640 C.ar  205  PHE205     -0.0003
    175  CZ        23.5370  -59.2720   99.4630 C.ar  205  PHE205     -0.0000
    176  N         27.6050  -63.5680   95.2450 N.3   208  ILE208     -0.1301
    177  CA        27.9530  -62.1190   95.2240 C.3   208  ILE208      0.1246
    178  C         28.7740  -61.8580   96.4870 C.3   208  ILE208      0.2009
    179  O         29.8910  -61.1820   96.4370 O.3   208  ILE208     -0.2188
    180  CB        26.7440  -61.2130   95.1790 C.3   208  ILE208      0.0202
    181  CG1       26.1070  -61.2980   93.7780 C.3   208  ILE208      0.0015
    182  CG2       27.1050  -59.7470   95.4310 C.3   208  ILE208      0.0016
    183  CD1       24.7850  -60.6040   93.6270 C.3   208  ILE208      0.0000
@<TRIPOS>BOND
     1    72    71    2
     2    64    63    1
     3    64    65    1
     4    60    63    1
     5    60    59    1
     6    60    61    1
     7    66    67    1
     8    66    61   am
     9    51    52    1
    10    59    65    1
    11    59    53   am
    12    67    68    1
    13    67    70    1
    14    71    73   am
    15    71    70    1
    16    54    53    2
    17    61    62    2
    18    53    52    1
    19    52    55    1
    20    68    74   am
    21    68    69    2
    22    31    32    1
    23    74    75    1
    24    76    77    2
    25    76    75    1
    26    33    32    1
    27    33    34    2
    28    32    35    1
    29    75    78    1
    30    86    87    1
    31    55    56    1
    32    78    79    1
    33    38    36    1
    34    25    24    2
    35    56    57    1
    36    57    58    1
    37    35    36    1
    38    24    23    1
    39    88    87    1
    40    88    89    2
    41    87    90    1
    42    36    37    1
    43    81    79   ar
    44    81    83   ar
    45    79    80   ar
    46    94    95    1
    47    96    95    1
    48    96    97    2
    49    90    91    1
    50    21    18    1
    51    22    23    1
    52    23    26    1
    53    83    84   ar
    54    80    82   ar
    55    95    98    1
    56    19    18    1
    57    19    20    2
    58    91    92    1
    59    27    26    1
    60    27    28    1
    61    18    17    1
    62    98    99    1
    63   156   155    2
    64    30    29    1
    65   183   181    1
    66    29    28    1
    67    84    82   ar
    68    84    85    1
    69    92    93    1
    70   181   180    1
    71    42    41    2
    72    48    46   ar
    73    48    49   ar
    74    99   100    1
    75   159   158    1
    76   159   160    2
    77    50    49    1
    78   158   157    1
    79   158   161    1
    80    46    44   ar
    81    17     8   am
    82   155   157   am
    83   155   154    1
    84     9     8    2
    85   163   161    1
    86    49    47   ar
    87    41    40    1
    88     8     7    1
    89   180   177    1
    90   180   182    1
    91   161   162    1
    92   177   176    1
    93   177   178    1
    94   162   164    1
    95   154   153    1
    96   100   101    1
    97    15    13   ar
    98    15    16   ar
    99    44    43    1
   100    44    45   ar
   101   165   166    1
   102    13    11   ar
   103    47    45   ar
   104    43    40    1
   105    40    39    1
   106    16    14   ar
   107   179   178    1
   108   101   102    1
   109     7     6    1
   110     7    10    1
   111   166   167    1
   112   166   169    1
   113   153   146   am
   114    11    10    1
   115    11    12   ar
   116     6     3   am
   117   147   146    2
   118    14    12   ar
   119   167   168    1
   120   171   173   ar
   121   171   170   ar
   122   169   170    1
   123   108   109    1
   124   108   107    1
   125   146   145    1
   126   173   175   ar
   127   142   141    2
   128     5     2    1
   129   170   172   ar
   130     3     2    1
   131     3     4    2
   132   109   103    1
   133   136   135    2
   134     2     1    1
   135   107   104    1
   136   141   140    1
   137   141   144   am
   138   145   144    1
   139   145   148    1
   140   140   139    1
   141   140   143    1
   142   175   174   ar
   143   172   174   ar
   144   149   148    1
   145   149   150    1
   146   135   139   am
   147   135   134    1
   148   103   104    1
   149   104   105    1
   150   151   150    1
   151   151   152    1
   152   134   137    1
   153   134   133    1
   154   137   138    1
   155   105   110   am
   156   105   106    2
   157   128   127    2
   158   110   111    1
   159   133   127   am
   160   127   126    1
   161   113   112    2
   162   121   120    2
   163   112   111    1
   164   123   122    1
   165   111   114    1
   166   126   129    1
   167   126   125    1
   168   120   125   am
   169   120   119    1
   170   118   119    1
   171   114   115    1
   172   114   116    1
   173   115   117    1
   174   129   130    1
   175   122   119    1
   176   122   124    1
   177   132   130    1
   178   130   131    1
