@<TRIPOS>MOLECULE
tmp/3oijB00.pdb
 159 155 0 0 0
SMALL
GASTEIGER

@<TRIPOS>ATOM
      1  N         33.2750   -2.5950   31.6990 N.3   146  LEU146     -0.1231
      2  CA        31.9180   -2.2270   31.3370 C.3   146  LEU146      0.1693
      3  C         30.9790   -3.3380   31.7310 C.2   146  LEU146      0.2593
      4  O         31.2410   -4.5040   31.4650 O.2   146  LEU146     -0.2718
      5  CB        31.8150   -1.9800   29.8450 C.3   146  LEU146      0.0284
      6  CG        32.6820   -0.8370   29.3300 C.3   146  LEU146      0.0019
      7  CD1       32.1530   -0.3540   27.9910 C.3   146  LEU146      0.0001
      8  CD2       32.7040    0.2990   30.3320 C.3   146  LEU146      0.0001
      9  N         29.8840   -2.9720   32.3770 N.am  147  SER147     -0.1938
     10  CA        28.9810   -3.9490   32.9600 C.3   147  SER147      0.2055
     11  C         27.6170   -3.3170   33.1200 C.2   147  SER147      0.2643
     12  O         27.4890   -2.1920   33.6190 O.2   147  SER147     -0.2714
     13  CB        29.5050   -4.4000   34.3310 C.3   147  SER147      0.2130
     14  OG        28.6660   -5.3760   34.9270 O.3   147  SER147     -0.2179
     15  N         26.5950   -4.0450   32.6980 N.am  148  PHE148     -0.1959
     16  CA        25.2240   -3.6070   32.9050 C.3   148  PHE148      0.1771
     17  C         24.8590   -3.4230   34.3970 C.2   148  PHE148      0.2619
     18  O         24.0830   -2.5280   34.7460 O.2   148  PHE148     -0.2715
     19  CB        24.2690   -4.5900   32.2370 C.3   148  PHE148      0.0574
     20  CG        22.8490   -4.1570   32.2680 C.ar  148  PHE148     -0.0200
     21  CD1       22.4140   -3.1210   31.4640 C.ar  148  PHE148     -0.0042
     22  CD2       21.9350   -4.7850   33.1040 C.ar  148  PHE148     -0.0042
     23  CE1       21.0860   -2.7150   31.4930 C.ar  148  PHE148     -0.0003
     24  CE2       20.6040   -4.3790   33.1390 C.ar  148  PHE148     -0.0003
     25  CZ        20.1840   -3.3460   32.3260 C.ar  148  PHE148     -0.0000
     26  N         25.4270   -4.2500   35.2750 N.am  149  ASP149     -0.1971
     27  CA        25.0130   -4.2740   36.6770 C.3   149  ASP149      0.1709
     28  C         25.8850   -3.4030   37.5500 C.2   149  ASP149      0.2293
     29  O         25.8400   -3.5120   38.7830 O.2   149  ASP149     -0.2864
     30  CB        25.0470   -5.7000   37.2170 C.3   149  ASP149      0.1436
     31  CG        24.6290   -6.7140   36.1860 C.2   149  ASP149      0.3671
     32  OD1       23.4250   -7.0670   36.1750 O.co2 149  ASP149     -0.2456
     33  OD2       25.5050   -7.1350   35.3840 O.co2 149  ASP149     -0.2456
     34  N         35.6870   -4.6250   27.3300 N.3   172  VAL172     -0.1231
     35  CA        34.3540   -4.9780   26.8730 C.3   172  VAL172      0.1692
     36  C         34.2920   -6.4740   26.5920 C.2   172  VAL172      0.2592
     37  O         35.1950   -7.0190   25.9660 O.2   172  VAL172     -0.2718
     38  CB        34.0420   -4.2550   25.5600 C.3   172  VAL172      0.0266
     39  CG1       32.6110   -4.5740   25.0680 C.3   172  VAL172      0.0020
     40  CG2       34.2630   -2.7650   25.7260 C.3   172  VAL172      0.0020
     41  N         33.2330   -7.1360   27.0480 N.am  173  GLY173     -0.1957
     42  CA        33.0190   -8.5340   26.7100 C.3   173  GLY173      0.1869
     43  C         32.4660   -8.6820   25.3010 C.2   173  GLY173      0.2309
     44  O         31.2880   -8.4060   25.0510 O.2   173  GLY173     -0.2863
     45  N         30.9410  -10.4990   23.3390 N.3   175  MET175     -0.1230
     46  CA        30.1680  -11.7220   23.3870 C.3   175  MET175      0.1702
     47  C         28.6700  -11.4750   23.5610 C.2   175  MET175      0.2592
     48  O         28.2530  -10.3780   23.8660 O.2   175  MET175     -0.2718
     49  CB        30.6730  -12.5550   24.5390 C.3   175  MET175      0.0401
     50  CG        30.1910  -12.0110   25.8280 C.3   175  MET175      0.0596
     51  SD        31.4700  -11.9270   27.0440 S.3   175  MET175     -0.1393
     52  CE        30.4310  -11.8340   28.4840 C.3   175  MET175      0.0692
     53  N         27.8710  -12.5180   23.3740 N.am  176  ALA176     -0.1966
     54  CA        26.4220  -12.4000   23.3900 C.3   176  ALA176      0.1728
     55  C         25.8400  -12.3800   24.8090 C.2   176  ALA176      0.2616
     56  O         24.8150  -11.7340   25.0550 O.2   176  ALA176     -0.2715
     57  CB        25.8030  -13.5270   22.5670 C.3   176  ALA176      0.0334
     58  N         26.4880  -13.0940   25.7300 N.am  177  ARG177     -0.1963
     59  CA        26.0660  -13.1490   27.1350 C.3   177  ARG177      0.1729
     60  C         27.2290  -13.6240   28.0200 C.2   177  ARG177      0.2616
     61  O         28.2710  -14.0380   27.5070 O.2   177  ARG177     -0.2715
     62  CB        24.8310  -14.0430   27.3040 C.3   177  ARG177      0.0348
     63  CG        25.0620  -15.4900   26.8670 C.3   177  ARG177      0.0492
     64  CD        23.7690  -16.2180   26.4940 C.3   177  ARG177      0.2205
     65  NE        23.3330  -15.9640   25.1190 N.pl3 177  ARG177     -0.0865
     66  CZ        22.3960  -15.0830   24.7820 C.cat 177  ARG177      0.5346
     67  NH1       22.0610  -14.9230   23.5160 N.pl3 177  ARG177      0.1354
     68  NH2       21.7910  -14.3570   25.7120 N.pl3 177  ARG177      0.1354
     69  N         27.0590  -13.5470   29.3400 N.am  178  GLY178     -0.1955
     70  CA        28.0930  -13.9840   30.2640 C.3   178  GLY178      0.1869
     71  C         28.3170  -13.0630   31.4520 C.2   178  GLY178      0.2309
     72  O         27.9480  -11.8930   31.4190 O.2   178  GLY178     -0.2863
     73  N         30.2320  -10.5370   33.7120 N.3   180  ASP180     -0.1239
     74  CA        31.1900   -9.4940   33.3250 C.3   180  ASP180      0.1674
     75  C         32.3960   -9.4790   34.2580 C.2   180  ASP180      0.2266
     76  O         32.7510   -8.4400   34.8080 O.2   180  ASP180     -0.2867
     77  CB        30.5330   -8.1070   33.3090 C.3   180  ASP180      0.1410
     78  CG        29.4890   -7.9560   32.2120 C.2   180  ASP180      0.3668
     79  OD1       29.6620   -8.5550   31.1250 O.co2 180  ASP180     -0.2456
     80  OD2       28.4960   -7.2250   32.4420 O.co2 180  ASP180     -0.2456
     81  N         35.3300  -11.1260   33.2530 N.3   182  PHE182     -0.1241
     82  CA        36.3950  -11.6080   32.3770 C.3   182  PHE182      0.1605
     83  C         37.7150  -10.8800   32.6280 C.2   182  PHE182      0.2264
     84  O         38.7240  -11.1570   31.9750 O.2   182  PHE182     -0.2867
     85  CB        35.9590  -11.4430   30.9170 C.3   182  PHE182      0.0534
     86  CG        35.1740  -10.1850   30.6680 C.ar  182  PHE182     -0.0203
     87  CD1       35.8190   -8.9580   30.5560 C.ar  182  PHE182     -0.0042
     88  CD2       33.7950  -10.2240   30.5680 C.ar  182  PHE182     -0.0042
     89  CE1       35.1010   -7.7970   30.3400 C.ar  182  PHE182     -0.0003
     90  CE2       33.0780   -9.0720   30.3460 C.ar  182  PHE182     -0.0003
     91  CZ        33.7320   -7.8540   30.2320 C.ar  182  PHE182     -0.0000
     92  N         31.8280   -0.2220   35.4780 N.3   191  VAL191     -0.1231
     93  CA        30.8270    0.8150   35.2680 C.3   191  VAL191      0.1692
     94  C         29.7840    0.4110   34.2210 C.2   191  VAL191      0.2593
     95  O         30.0780   -0.3410   33.2940 O.2   191  VAL191     -0.2718
     96  CB        31.4910    2.1300   34.8390 C.3   191  VAL191      0.0266
     97  CG1       32.5720    2.5030   35.8180 C.3   191  VAL191      0.0020
     98  CG2       32.0830    1.9900   33.4360 C.3   191  VAL191      0.0020
     99  N         28.5620    0.9070   34.3880 N.am  192  GLY192     -0.1942
    100  CA        27.5440    0.8110   33.3570 C.3   192  GLY192      0.2014
    101  C         27.5610    2.0810   32.5270 C.2   192  GLY192      0.2639
    102  O         28.0830    3.1130   32.9680 O.2   192  GLY192     -0.2714
    103  N         27.0080    2.0120   31.3190 N.am  193  LEU193     -0.1963
    104  CA        26.9710    3.1780   30.4250 C.3   193  LEU193      0.1728
    105  C         25.5320    3.5930   30.0940 C.2   193  LEU193      0.2616
    106  O         25.2950    4.6850   29.5840 O.2   193  LEU193     -0.2715
    107  CB        27.7650    2.9240   29.1240 C.3   193  LEU193      0.0311
    108  CG        29.2740    2.6280   29.1470 C.3   193  LEU193      0.0022
    109  CD1       29.8040    2.3550   27.7590 C.3   193  LEU193      0.0001
    110  CD2       30.0590    3.7630   29.7580 C.3   193  LEU193      0.0001
    111  N         24.5830    2.7110   30.3930 N.am  194  SER194     -0.1950
    112  CA        23.1890    2.9220   30.0480 C.3   194  SER194      0.1924
    113  C         22.3170    2.1320   31.0140 C.2   194  SER194      0.2314
    114  O         22.7920    1.2030   31.6650 O.2   194  SER194     -0.2863
    115  CB        22.9270    2.4680   28.6100 C.3   194  SER194      0.2116
    116  OG        21.5540    2.5880   28.2730 O.3   194  SER194     -0.2180
    117  N         19.9290    0.6120   29.8260 N.3   196  TYR196     -0.1228
    118  CA        19.5560   -0.4460   28.9040 C.3   196  TYR196      0.1721
    119  C         20.7560   -1.3500   28.6460 C.2   196  TYR196      0.2437
    120  O         21.9010   -0.8820   28.5720 O.2   196  TYR196     -0.2733
    121  CB        19.0800    0.1430   27.5780 C.3   196  TYR196      0.0547
    122  CG        18.0530    1.2380   27.6930 C.ar  196  TYR196     -0.0200
    123  CD1       18.4290    2.5810   27.6570 C.ar  196  TYR196     -0.0009
    124  CD2       16.7080    0.9370   27.8130 C.ar  196  TYR196     -0.0009
    125  CE1       17.4820    3.5960   27.7560 C.ar  196  TYR196      0.0417
    126  CE2       15.7550    1.9370   27.9100 C.ar  196  TYR196      0.0417
    127  CZ        16.1440    3.2650   27.8840 C.ar  196  TYR196      0.1957
    128  OH        15.1830    4.2500   27.9800 O.3   196  TYR196     -0.2866
    129  N         20.5070   -2.6580   28.5090 N.am  197  PRO197     -0.2718
    130  CA        21.6370   -3.5010   28.1100 C.3   197  PRO197      0.1535
    131  C         22.1330   -3.0200   26.7570 C.2   197  PRO197      0.2598
    132  O         21.3250   -2.6490   25.9230 O.2   197  PRO197     -0.2715
    133  CB        21.0160   -4.9080   28.0170 C.3   197  PRO197      0.0310
    134  CG        19.5510   -4.6710   27.8710 C.3   197  PRO197      0.0237
    135  CD        19.2560   -3.4210   28.6380 C.3   197  PRO197      0.0939
    136  N         23.4390   -2.9920   26.5520 N.am  198  LEU198     -0.1964
    137  CA        23.9800   -2.5870   25.2650 C.3   198  LEU198      0.1728
    138  C         24.6060   -3.7810   24.5500 C.2   198  LEU198      0.2617
    139  O         24.8210   -4.8290   25.1540 O.2   198  LEU198     -0.2715
    140  CB        25.0350   -1.4930   25.4620 C.3   198  LEU198      0.0311
    141  CG        24.6230   -0.2240   26.2100 C.3   198  LEU198      0.0022
    142  CD1       25.8120    0.7340   26.3150 C.3   198  LEU198      0.0001
    143  CD2       23.4270    0.4490   25.5400 C.3   198  LEU198      0.0001
    144  N         24.8870   -3.6210   23.2620 N.am  199  SER199     -0.1936
    145  CA        25.7580   -4.5350   22.5410 C.3   199  SER199      0.2055
    146  C         27.1980   -4.0360   22.6280 C.2   199  SER199      0.2642
    147  O         27.4460   -2.8490   22.8390 O.2   199  SER199     -0.2714
    148  CB        25.3470   -4.6070   21.0810 C.3   199  SER199      0.2130
    149  OG        25.5750   -3.3640   20.4370 O.3   199  SER199     -0.2179
    150  N         28.1540   -4.9360   22.4560 N.am  200  ALA200     -0.1977
    151  CA        29.5570   -4.5620   22.6040 C.3   200  ALA200      0.1597
    152  C         29.9040   -3.3550   21.7300 C.2   200  ALA200      0.2287
    153  O         30.4730   -2.3730   22.2050 O.2   200  ALA200     -0.2864
    154  CB        30.4560   -5.7450   22.2940 C.3   200  ALA200      0.0319
    155  N         28.3550   -0.1540   23.2290 N.3   203  ALA203     -0.1245
    156  CA        29.1810    0.2350   24.3580 C.3   203  ALA203      0.1562
    157  C         30.4210    0.9730   23.8390 C.2   203  ALA203      0.2260
    158  O         30.8340    2.0000   24.3990 O.2   203  ALA203     -0.2867
    159  CB        29.5760   -0.9750   25.1720 C.3   203  ALA203      0.0290
@<TRIPOS>BOND
     1   149   148    1
     2   148   145    1
     3   152   153    2
     4   152   151    1
     5   154   151    1
     6   150   151    1
     7   150   146   am
     8   145   146    1
     9   145   144    1
    10    57    54    1
    11   146   147    2
    12   155   156    1
    13   144   138   am
    14    45    46    1
    15    53    54    1
    16    53    47   am
    17    46    47    1
    18    46    49    1
    19    54    55    1
    20    67    66    1
    21    47    48    2
    22   157   156    1
    23   157   158    2
    24   156   159    1
    25    49    50    1
    26   138   139    2
    27   138   137    1
    28    66    65    2
    29    66    68    1
    30    55    56    2
    31    55    58   am
    32    44    43    2
    33    39    38    1
    34    65    64    1
    35   137   140    1
    36   137   136    1
    37    43    42    1
    38   140   141    1
    39   143   141    1
    40    38    40    1
    41    38    35    1
    42    58    59    1
    43    50    51    1
    44   132   131    2
    45    37    36    2
    46   141   142    1
    47    64    63    1
    48   136   131   am
    49    36    35    1
    50    36    41   am
    51    42    41    1
    52   131   130    1
    53    63    62    1
    54    35    34    1
    55    51    52    1
    56    59    62    1
    57    59    60    1
    58    61    60    2
    59   121   122    1
    60   121   118    1
    61   123   122   ar
    62   123   125   ar
    63   122   124   ar
    64   125   127   ar
    65   109   108    1
    66   124   126   ar
    67   134   133    1
    68   134   135    1
    69   127   126   ar
    70   127   128    1
    71     7     6    1
    72   133   130    1
    73    60    69   am
    74   130   129    1
    75   116   115    1
    76   129   135    1
    77   129   119   am
    78   120   119    2
    79   115   112    1
    80   119   118    1
    81   118   117    1
    82   107   108    1
    83   107   104    1
    84   108   110    1
    85     6     5    1
    86     6     8    1
    87    69    70    1
    88   106   105    2
    89     5     2    1
    90   112   111    1
    91   112   113    1
    92   105   111   am
    93   105   104    1
    94    91    89   ar
    95    91    90   ar
    96    70    71    1
    97    89    87   ar
    98    90    88   ar
    99   104   103    1
   100    87    86   ar
   101    88    86   ar
   102    86    85    1
   103    85    82    1
   104   113   114    2
   105    79    78   ar
   106   103   101   am
   107     2     1    1
   108     2     3    1
   109    72    71    2
   110    21    23   ar
   111    21    20   ar
   112     4     3    2
   113    23    25   ar
   114     3     9   am
   115    84    83    2
   116    78    80   ar
   117    78    77    1
   118    19    20    1
   119    19    16    1
   120    20    22   ar
   121    25    24   ar
   122     9    10    1
   123    82    83    1
   124    82    81    1
   125   101   102    2
   126   101   100    1
   127    15    16    1
   128    15    11   am
   129    16    17    1
   130    10    11    1
   131    10    13    1
   132    22    24   ar
   133    11    12    2
   134    95    94    2
   135    77    74    1
   136    74    73    1
   137    74    75    1
   138   100    99    1
   139    98    96    1
   140    94    99   am
   141    94    93    1
   142    75    76    2
   143    13    14    1
   144    17    18    2
   145    17    26   am
   146    96    93    1
   147    96    97    1
   148    93    92    1
   149    26    27    1
   150    33    31   ar
   151    32    31   ar
   152    31    30    1
   153    27    30    1
   154    27    28    1
   155    28    29    2
