@<TRIPOS>MOLECULE
tmp/3oikA00.pdb
 182 177 0 0 0
SMALL
GASTEIGER

@<TRIPOS>ATOM
      1  N          8.3780   -0.8330   10.5390 N.3     3  TRP3       -0.1241
      2  CA         7.6890   -1.7830   11.4020 C.3     3  TRP3        0.1605
      3  C          6.6770   -2.5930   10.6200 C.2     3  TRP3        0.2264
      4  O          6.1350   -2.1230    9.6250 O.2     3  TRP3       -0.2867
      5  CB         7.0050   -1.0780   12.5780 C.3     3  TRP3        0.0550
      6  CG         5.8220   -0.2550   12.2000 C.ar    3  TRP3        0.0003
      7  CD1        5.8030    1.0780   11.8960 C.ar    3  TRP3        0.0946
      8  CD2        4.4740   -0.7000   12.1310 C.ar    3  TRP3        0.0152
      9  NE1        4.5220    1.4760   11.6160 N.ar    3  TRP3       -0.2442
     10  CE2        3.6830    0.4050   11.7650 C.ar    3  TRP3        0.0810
     11  CE3        3.8520   -1.9310   12.3510 C.ar    3  TRP3        0.0012
     12  CZ2        2.3090    0.3130   11.6070 C.ar    3  TRP3        0.0191
     13  CZ3        2.4900   -2.0090   12.1830 C.ar    3  TRP3        0.0001
     14  CH2        1.7340   -0.8970   11.8220 C.ar    3  TRP3        0.0015
     15  N         -3.5890   -0.1540    3.7410 N.3    60  ASN60      -0.1240
     16  CA        -2.5740    0.7310    4.3010 C.3    60  ASN60       0.1653
     17  C         -1.2110    0.0450    4.4930 C.2    60  ASN60       0.2266
     18  O         -0.2730    0.6450    5.0530 O.2    60  ASN60      -0.2867
     19  CB        -3.0740    1.3110    5.6380 C.3    60  ASN60       0.1155
     20  CG        -3.4140    0.2390    6.6030 C.2    60  ASN60       0.2627
     21  OD1       -2.7050   -0.7310    6.6740 O.2    60  ASN60      -0.2716
     22  ND2       -4.5150    0.3800    7.3190 N.am   60  ASN60      -0.0877
     23  N         -0.6450   -2.6830    6.3150 N.3    62  HIS62      -0.1241
     24  CA        -0.7000   -3.6250    7.4500 C.3    62  HIS62       0.1621
     25  C         -2.1080   -4.1490    7.7490 C.2    62  HIS62       0.2264
     26  O         -2.2450   -5.1760    8.4010 O.2    62  HIS62      -0.2867
     27  CB        -0.0730   -3.0280    8.6960 C.3    62  HIS62       0.0745
     28  CG        -0.6220   -1.7050    9.0500 C.ar   62  HIS62       0.0817
     29  ND1       -1.7540   -1.5530    9.8130 N.ar   62  HIS62      -0.2268
     30  CD2       -0.2300   -0.4520    8.6930 C.ar   62  HIS62       0.1154
     31  CE1       -2.0400   -0.2690    9.9140 C.ar   62  HIS62       0.1986
     32  NE2       -1.1270    0.4200    9.2570 N.ar   62  HIS62      -0.2212
     33  N         -8.6040   -0.3300    5.8110 N.3    65  GLN65      -0.1245
     34  CA        -9.4050    0.5840    6.6190 C.3    65  GLN65       0.1566
     35  C        -10.5020    1.1820    5.7630 C.2    65  GLN65       0.2260
     36  O        -10.2710    1.5670    4.6200 O.2    65  GLN65      -0.2867
     37  CB        -8.5650    1.6800    7.2640 C.3    65  GLN65       0.0367
     38  CG        -7.8180    2.5800    6.3070 C.3    65  GLN65       0.0905
     39  CD        -6.7890    3.4210    7.0220 C.2    65  GLN65       0.2608
     40  OE1       -5.9280    2.8990    7.7270 O.2    65  GLN65      -0.2717
     41  NE2       -6.8480    4.7290    6.8140 N.am   65  GLN65      -0.0878
     42  N        -12.6310    5.8370   11.2580 N.3    90  GLN90      -0.1245
     43  CA       -12.4080    4.6880   10.4100 C.3    90  GLN90       0.1566
     44  C        -12.6490    3.4120   11.1850 C.2    90  GLN90       0.2260
     45  O        -12.6780    3.4310   12.3950 O.2    90  GLN90      -0.2867
     46  CB       -10.9630    4.7090    9.8780 C.3    90  GLN90       0.0367
     47  CG        -9.8960    4.6950   10.9660 C.3    90  GLN90       0.0905
     48  CD        -9.1210    3.4140   10.9440 C.2    90  GLN90       0.2608
     49  OE1       -9.6940    2.3580   11.1770 O.2    90  GLN90      -0.2717
     50  NE2       -7.8400    3.4770   10.5850 N.am   90  GLN90      -0.0878
     51  N        -11.1670   -0.8270   10.9500 N.3    92  HIS92      -0.1241
     52  CA       -10.2700   -1.7720   10.3230 C.3    92  HIS92       0.1621
     53  C        -10.3080   -3.0500   11.1110 C.2    92  HIS92       0.2264
     54  O        -10.9770   -3.1640   12.1180 O.2    92  HIS92      -0.2867
     55  CB        -8.8280   -1.2510   10.2900 C.3    92  HIS92       0.0745
     56  CG        -8.2760   -1.0080   11.6760 C.ar   92  HIS92       0.0817
     57  ND1       -8.4440    0.1850   12.3410 N.ar   92  HIS92      -0.2268
     58  CD2       -7.6920   -1.8480   12.5720 C.ar   92  HIS92       0.1154
     59  CE1       -7.9580    0.0850   13.5640 C.ar   92  HIS92       0.1986
     60  NE2       -7.4990   -1.1470   13.7330 N.ar   92  HIS92      -0.2212
     61  N         -7.9760   -6.7990   12.3830 N.3    94  HIS94      -0.1241
     62  CA        -6.7810   -7.6280   12.5580 C.3    94  HIS94       0.1621
     63  C         -7.2200   -9.0610   12.4400 C.2    94  HIS94       0.2264
     64  O         -8.3070   -9.4150   12.9490 O.2    94  HIS94      -0.2867
     65  CB        -6.1320   -7.3920   13.9550 C.3    94  HIS94       0.0745
     66  CG        -5.8950   -5.9480   14.2720 C.ar   94  HIS94       0.0817
     67  ND1       -4.6650   -5.3480   14.1080 N.ar   94  HIS94      -0.2268
     68  CD2       -6.7510   -4.9760   14.6610 C.ar   94  HIS94       0.1154
     69  CE1       -4.7570   -4.0650   14.4480 C.ar   94  HIS94       0.1986
     70  NE2       -6.0270   -3.8060   14.7540 N.ar   94  HIS94      -0.2212
     71  N        -11.9830   -3.0720   14.8200 N.3   117  HIS117     -0.1241
     72  CA       -11.7750   -1.8370   15.5770 C.3   117  HIS117      0.1621
     73  C        -12.4380   -0.6760   14.8810 C.2   117  HIS117      0.2264
     74  O        -12.0560   -0.3130   13.7660 O.2   117  HIS117     -0.2867
     75  CB       -10.2870   -1.5550   15.7050 C.3   117  HIS117      0.0745
     76  CG        -9.6040   -2.5280   16.5970 C.ar  117  HIS117      0.0817
     77  ND1       -8.2340   -2.7350   16.5870 N.ar  117  HIS117     -0.2268
     78  CD2      -10.1160   -3.3290   17.5570 C.ar  117  HIS117      0.1154
     79  CE1       -7.9490   -3.6430   17.4980 C.ar  117  HIS117      0.1986
     80  NE2       -9.0650   -4.0070   18.1080 N.ar  117  HIS117     -0.2212
     81  N        -12.6960    3.1260   15.2220 N.3   119  VAL119     -0.1245
     82  CA       -11.8420    4.1260   15.8540 C.3   119  VAL119      0.1561
     83  C        -12.5480    5.4640   15.8880 C.2   119  VAL119      0.2260
     84  O        -12.9980    5.9450   14.8420 O.2   119  VAL119     -0.2867
     85  CB       -10.5130    4.2670   15.0870 C.3   119  VAL119      0.0252
     86  CG1       -9.6320    5.3670   15.7390 C.3   119  VAL119      0.0019
     87  CG2       -9.7710    2.8890   14.9570 C.3   119  VAL119      0.0019
     88  N         -8.0450   14.5240   14.7520 N.3   128  PHE128     -0.1227
     89  CA        -7.4780   13.2560   15.1780 C.3   128  PHE128      0.1736
     90  C         -6.0340   13.3790   15.6250 C.2   128  PHE128      0.2596
     91  O         -5.6360   12.7610   16.6270 O.2   128  PHE128     -0.2718
     92  CB        -7.5970   12.2680   14.0270 C.3   128  PHE128      0.0547
     93  CG        -7.1000   10.8740   14.3410 C.ar  128  PHE128     -0.0202
     94  CD1       -7.8970    9.9830   15.0180 C.ar  128  PHE128     -0.0042
     95  CD2       -5.8350   10.4490   13.9340 C.ar  128  PHE128     -0.0042
     96  CE1       -7.4730    8.7130   15.3030 C.ar  128  PHE128     -0.0003
     97  CE2       -5.4030    9.1720   14.2110 C.ar  128  PHE128     -0.0003
     98  CZ        -6.2150    8.2970   14.9090 C.ar  128  PHE128     -0.0000
     99  N         -5.2170   14.1450   14.8860 N.am  129  GLY129     -0.1957
    100  CA        -3.8210   14.2550   15.2600 C.3   129  GLY129      0.1869
    101  C         -3.5910   14.9050   16.6260 C.2   129  GLY129      0.2309
    102  O         -2.6320   14.5820   17.3400 O.2   129  GLY129     -0.2863
    103  N         -4.7820   12.1900   19.4850 N.3   132  VAL132     -0.1245
    104  CA        -3.8710   11.0910   19.8590 C.3   132  VAL132      0.1561
    105  C         -2.7950   11.5320   20.8420 C.2   132  VAL132      0.2260
    106  O         -2.1490   10.6700   21.4530 O.2   132  VAL132     -0.2867
    107  CB        -3.2040   10.3900   18.6540 C.3   132  VAL132      0.0252
    108  CG1       -4.2660    9.7470   17.7440 C.3   132  VAL132      0.0019
    109  CG2       -2.2940   11.3400   17.9000 C.3   132  VAL132      0.0019
    110  N         -8.9570    9.1280   22.2220 N.3   138  LEU138     -0.1245
    111  CA        -9.6190    8.1730   21.3480 C.3   138  LEU138      0.1561
    112  C        -10.4980    7.2360   22.1340 C.2   138  LEU138      0.2260
    113  O        -10.2420    6.9630   23.3050 O.2   138  LEU138     -0.2867
    114  CB        -8.5800    7.3580   20.5790 C.3   138  LEU138      0.0270
    115  CG        -8.0910    7.8890   19.2370 C.3   138  LEU138      0.0019
    116  CD1       -7.4290    9.2620   19.3680 C.3   138  LEU138      0.0001
    117  CD2       -7.1400    6.8410   18.6040 C.3   138  LEU138      0.0001
    118  N        -11.8570    3.3910   21.1050 N.3   140  VAL140     -0.1245
    119  CA       -11.9170    2.3300   20.0990 C.3   140  VAL140      0.1561
    120  C        -12.8530    1.2500   20.5890 C.2   140  VAL140      0.2260
    121  O        -12.7160    0.7290   21.7060 O.2   140  VAL140     -0.2867
    122  CB       -10.5410    1.7270   19.7300 C.3   140  VAL140      0.0252
    123  CG1      -10.7000    0.7380   18.5670 C.3   140  VAL140      0.0019
    124  CG2       -9.5850    2.8210   19.3230 C.3   140  VAL140      0.0019
    125  N         -2.9250    2.7840   21.2800 N.3   195  LEU195     -0.1231
    126  CA        -2.9530    2.2820   19.9120 C.3   195  LEU195      0.1693
    127  C         -2.2340    0.9290   19.9420 C.2   195  LEU195      0.2593
    128  O         -1.2570    0.7250   20.6650 O.2   195  LEU195     -0.2718
    129  CB        -2.1690    3.2410   18.9900 C.3   195  LEU195      0.0284
    130  CG        -2.5500    4.7070   19.0540 C.3   195  LEU195      0.0019
    131  CD1       -1.6930    5.4780   18.0260 C.3   195  LEU195      0.0001
    132  CD2       -4.0480    4.9710   18.8660 C.3   195  LEU195      0.0001
    133  N         -2.6610   -0.0050   19.1020 N.am  196  THR196     -0.1939
    134  CA        -2.0050   -1.3090   19.0710 C.3   196  THR196      0.2028
    135  C         -0.9800   -1.4560   17.9620 C.2   196  THR196      0.2643
    136  O         -0.3850   -2.5320   17.8050 O.2   196  THR196     -0.2714
    137  CB        -2.9990   -2.4560   18.9480 C.3   196  THR196      0.1808
    138  OG1       -3.5930   -2.3930   17.6590 O.3   196  THR196     -0.2208
    139  CG2       -4.0720   -2.4190   20.0440 C.3   196  THR196      0.0379
    140  N         -0.7610   -0.3890   17.1810 N.am  197  THR197     -0.1937
    141  CA         0.3580   -0.3080   16.2300 C.3   197  THR197      0.2013
    142  C          1.1710    0.9240   16.5580 C.2   197  THR197      0.2484
    143  O          0.6660    1.8470   17.2000 O.2   197  THR197     -0.2729
    144  CB        -0.0920   -0.1680   14.7770 C.3   197  THR197      0.1807
    145  OG1       -0.7360    1.0940   14.5640 O.3   197  THR197     -0.2208
    146  CG2       -1.0860   -1.2460   14.4230 C.3   197  THR197      0.0379
    147  N          2.4150    0.9700   16.0900 N.am  198  PRO198     -0.2715
    148  CA         3.1430    2.2390   16.1470 C.3   198  PRO198      0.1521
    149  C          2.2360    3.3520   15.6210 C.2   198  PRO198      0.2440
    150  O          1.5220    3.1410   14.6110 O.2   198  PRO198     -0.2731
    151  CB         4.3730    1.9540   15.2610 C.3   198  PRO198      0.0310
    152  CG         4.6360    0.4810   15.5010 C.3   198  PRO198      0.0237
    153  CD         3.2310   -0.1220   15.5030 C.3   198  PRO198      0.0939
    154  N          2.2510    4.5340   16.2470 N.am  199  PRO199     -0.2727
    155  CA         3.1500    4.9960   17.3150 C.3   199  PRO199      0.1402
    156  C          2.8180    4.5810   18.7630 C.2   199  PRO199      0.2269
    157  O          3.4880    5.0330   19.6860 O.2   199  PRO199     -0.2865
    158  CB         3.1150    6.5340   17.1340 C.3   199  PRO199      0.0296
    159  CG         1.7670    6.7890   16.5870 C.3   199  PRO199      0.0237
    160  CD         1.4210    5.6370   15.7020 C.3   199  PRO199      0.0939
    161  N          0.6340    5.1610   20.9190 N.3   201  LEU201     -0.1245
    162  CA         0.3380    6.2630   21.8440 C.3   201  LEU201      0.1561
    163  C         -0.7000    5.8510   22.8780 C.2   201  LEU201      0.2260
    164  O         -1.6710    5.1550   22.5610 O.2   201  LEU201     -0.2867
    165  CB        -0.1630    7.4990   21.0600 C.3   201  LEU201      0.0270
    166  CG         0.9350    8.0450   20.1330 C.3   201  LEU201      0.0019
    167  CD1        0.3300    9.1150   19.2260 C.3   201  LEU201      0.0001
    168  CD2        2.1190    8.6200   20.9100 C.3   201  LEU201      0.0001
    169  N        -10.4820    1.9190   25.6890 N.3   206  TRP206     -0.1241
    170  CA       -10.8970    0.7060   24.9840 C.3   206  TRP206      0.1605
    171  C        -12.2650    0.2670   25.4750 C.2   206  TRP206      0.2264
    172  O        -12.5100    0.2280   26.6890 O.2   206  TRP206     -0.2867
    173  CB        -9.8720   -0.4380   25.1950 C.3   206  TRP206      0.0550
    174  CG        -8.7580   -0.3090   24.1930 C.ar  206  TRP206      0.0003
    175  CD1       -7.5290    0.2780   24.3680 C.ar  206  TRP206      0.0946
    176  CD2       -8.8140   -0.7030   22.8140 C.ar  206  TRP206      0.0152
    177  NE1       -6.8480    0.2680   23.1850 N.ar  206  TRP206     -0.2442
    178  CE2       -7.5920   -0.3390   22.2200 C.ar  206  TRP206      0.0810
    179  CE3       -9.7870   -1.3380   22.0280 C.ar  206  TRP206      0.0012
    180  CZ2       -7.3090   -0.5700   20.8820 C.ar  206  TRP206      0.0191
    181  CZ3       -9.5080   -1.5910   20.7090 C.ar  206  TRP206      0.0001
    182  CH2       -8.2700   -1.2260   20.1340 C.ar  206  TRP206      0.0015
@<TRIPOS>BOND
     1    15    16    1
     2    16    17    1
     3    16    19    1
     4    17    18    2
     5    36    35    2
     6    19    20    1
     7    35    34    1
     8    33    34    1
     9    38    39    1
    10    38    37    1
    11    23    24    1
    12    20    21    2
    13    20    22   am
    14    34    37    1
    15    41    39   am
    16    39    40    2
    17    24    25    1
    18    24    27    1
    19    25    26    2
    20    30    28   ar
    21    30    32   ar
    22    27    28    1
    23    28    29   ar
    24    32    31   ar
    25     4     3    2
    26    29    31   ar
    27    46    43    1
    28    46    47    1
    29    55    52    1
    30    55    56    1
    31    52    51    1
    32    52    53    1
    33    43    44    1
    34    43    42    1
    35     1     2    1
    36    50    48   am
    37     3     2    1
    38    48    47    1
    39    48    49    2
    40    53    54    2
    41    44    45    2
    42     2     5    1
    43    12    10   ar
    44    12    14   ar
    45     9    10   ar
    46     9     7   ar
    47    56    57   ar
    48    56    58   ar
    49    10     8   ar
    50    14    13   ar
    51     7     6   ar
    52     8     6   ar
    53     8    11   ar
    54    13    11   ar
    55     6     5    1
    56    57    59   ar
    57    61    62    1
    58    63    62    1
    59    63    64    2
    60    62    65    1
    61    58    60   ar
    62    59    60   ar
    63    74    73    2
    64    95    97   ar
    65    95    93   ar
    66    65    66    1
    67    92    93    1
    68    92    89    1
    69    67    66   ar
    70    67    69   ar
    71    97    98   ar
    72    66    68   ar
    73    93    94   ar
    74   146   144    1
    75    69    70   ar
    76   145   144    1
    77   150   149    2
    78    68    70   ar
    79    88    89    1
    80   144   141    1
    81    71    72    1
    82    84    83    2
    83    73    72    1
    84    99   100    1
    85    99    90   am
    86    98    96   ar
    87    87    85    1
    88    94    96   ar
    89    85    86    1
    90    85    82    1
    91    89    90    1
    92    81    82    1
    93   100   101    1
    94   151   152    1
    95   151   148    1
    96   152   153    1
    97   153   147    1
    98    72    75    1
    99   149   148    1
   100   149   154   am
   101    90    91    2
   102   160   154    1
   103   160   159    1
   104    75    76    1
   105    82    83    1
   106   147   148    1
   107   147   142   am
   108   141   142    1
   109   141   140    1
   110   154   155    1
   111   142   143    2
   112    77    76   ar
   113    77    79   ar
   114   159   158    1
   115    76    78   ar
   116   101   102    2
   117   158   155    1
   118   140   135   am
   119   155   156    1
   120    79    80   ar
   121    78    80   ar
   122   138   137    1
   123   108   107    1
   124   136   135    2
   125   109   107    1
   126   135   134    1
   127   131   130    1
   128   123   122    1
   129   117   115    1
   130   107   104    1
   131   156   157    2
   132   132   130    1
   133   137   134    1
   134   137   139    1
   135   129   130    1
   136   129   126    1
   137   134   133    1
   138   133   127   am
   139   167   166    1
   140   115   116    1
   141   115   114    1
   142   124   122    1
   143   103   104    1
   144   122   119    1
   145   104   105    1
   146   126   127    1
   147   126   125    1
   148   127   128    2
   149   119   120    1
   150   119   118    1
   151   166   168    1
   152   166   165    1
   153   182   181   ar
   154   182   180   ar
   155   114   111    1
   156   120   121    2
   157   181   179   ar
   158   105   106    2
   159   180   178   ar
   160   161   162    1
   161   165   162    1
   162   111   112    1
   163   111   110    1
   164   162   163    1
   165   179   176   ar
   166   112   113    2
   167   178   176   ar
   168   178   177   ar
   169   164   163    2
   170   176   174   ar
   171   177   175   ar
   172   174   175   ar
   173   174   173    1
   174   170   173    1
   175   170   171    1
   176   170   169    1
   177   171   172    2
