@<TRIPOS>MOLECULE
tmp/3oimA00.pdb
 161 158 0 0 0
SMALL
GASTEIGER

@<TRIPOS>ATOM
      1  N          8.7740   -0.7590   10.4830 N.3     3  TRP3       -0.1241
      2  CA         8.0680   -1.7230   11.2740 C.3     3  TRP3        0.1605
      3  C          7.0560   -2.5100   10.4550 C.2     3  TRP3        0.2264
      4  O          6.5560   -2.0650    9.4240 O.2     3  TRP3       -0.2867
      5  CB         7.4000   -1.0080   12.4700 C.3     3  TRP3        0.0550
      6  CG         6.2000   -0.1840   12.1010 C.ar    3  TRP3        0.0003
      7  CD1        6.1620    1.1630   11.7980 C.ar    3  TRP3        0.0946
      8  CD2        4.8670   -0.6600   11.9970 C.ar    3  TRP3        0.0152
      9  NE1        4.8580    1.5280   11.5170 N.ar    3  TRP3       -0.2442
     10  CE2        4.0480    0.4310   11.6410 C.ar    3  TRP3        0.0810
     11  CE3        4.2690   -1.9110   12.2150 C.ar    3  TRP3        0.0012
     12  CZ2        2.6550    0.2880   11.4770 C.ar    3  TRP3        0.0191
     13  CZ3        2.8850   -2.0450   12.0520 C.ar    3  TRP3        0.0001
     14  CH2        2.1070   -0.9450   11.6610 C.ar    3  TRP3        0.0015
     15  N        -12.7330    6.0100   11.1520 N.3    90  GLN90      -0.1245
     16  CA       -12.4370    4.8840   10.2760 C.3    90  GLN90       0.1566
     17  C        -12.6750    3.6130   11.0400 C.2    90  GLN90       0.2260
     18  O        -12.7130    3.6200   12.2570 O.2    90  GLN90      -0.2867
     19  CB       -10.9810    4.9310    9.7710 C.3    90  GLN90       0.0367
     20  CG        -9.9450    4.9700   10.8960 C.3    90  GLN90       0.0905
     21  CD        -9.1360    3.7160   11.0590 C.2    90  GLN90       0.2608
     22  OE1       -9.6600    2.6110   11.1410 O.2    90  GLN90      -0.2717
     23  NE2       -7.8250    3.9010   11.2260 N.am   90  GLN90      -0.0878
     24  N        -11.1170   -0.6530   10.8030 N.3    92  HIS92      -0.1241
     25  CA       -10.2210   -1.6030   10.1820 C.3    92  HIS92       0.1621
     26  C        -10.2870   -2.8910   11.0020 C.2    92  HIS92       0.2264
     27  O        -10.9150   -2.9380   12.0450 O.2    92  HIS92      -0.2867
     28  CB        -8.7780   -1.1000   10.1150 C.3    92  HIS92       0.0745
     29  CG        -8.2160   -0.8490   11.4690 C.ar   92  HIS92       0.0817
     30  ND1       -8.3770    0.3540   12.1070 N.ar   92  HIS92      -0.2268
     31  CD2       -7.5770   -1.6600   12.3410 C.ar   92  HIS92       0.1154
     32  CE1       -7.8510    0.2710   13.3200 C.ar   92  HIS92       0.1986
     33  NE2       -7.3690   -0.9480   13.4850 N.ar   92  HIS92      -0.2212
     34  N         -7.9190   -6.6310   12.2420 N.3    94  HIS94      -0.1241
     35  CA        -6.7130   -7.4300   12.3980 C.3    94  HIS94       0.1621
     36  C         -7.1560   -8.8710   12.2820 C.2    94  HIS94       0.2264
     37  O         -8.2340   -9.2250   12.7770 O.2    94  HIS94      -0.2867
     38  CB        -6.0510   -7.1950   13.7770 C.3    94  HIS94       0.0745
     39  CG        -5.7670   -5.7520   14.0640 C.ar   94  HIS94       0.0817
     40  ND1       -4.5320   -5.1900   13.8740 N.ar   94  HIS94      -0.2268
     41  CD2       -6.5920   -4.7490   14.4200 C.ar   94  HIS94       0.1154
     42  CE1       -4.5870   -3.8910   14.1550 C.ar   94  HIS94       0.1986
     43  NE2       -5.8350   -3.5950   14.4860 N.ar   94  HIS94      -0.2212
     44  N        -11.8590   -2.8830   14.6900 N.3   117  HIS117     -0.1241
     45  CA       -11.6120   -1.6420   15.4390 C.3   117  HIS117      0.1621
     46  C        -12.3270   -0.4550   14.7920 C.2   117  HIS117      0.2264
     47  O        -11.9830   -0.0700   13.6660 O.2   117  HIS117     -0.2867
     48  CB       -10.1200   -1.3800   15.4650 C.3   117  HIS117      0.0745
     49  CG        -9.4040   -2.3270   16.3630 C.ar  117  HIS117      0.0817
     50  ND1       -8.0280   -2.4870   16.3450 N.ar  117  HIS117     -0.2268
     51  CD2       -9.8930   -3.1720   17.3040 C.ar  117  HIS117      0.1154
     52  CE1       -7.7070   -3.4020   17.2400 C.ar  117  HIS117      0.1986
     53  NE2       -8.8120   -3.8240   17.8410 N.ar  117  HIS117     -0.2212
     54  N        -12.7880    3.3260   15.1070 N.3   119  VAL119     -0.1245
     55  CA       -11.9540    4.3770   15.7000 C.3   119  VAL119      0.1561
     56  C        -12.6800    5.7020   15.7480 C.2   119  VAL119      0.2260
     57  O        -13.2060    6.1520   14.7440 O.2   119  VAL119     -0.2867
     58  CB       -10.6610    4.5140   14.8970 C.3   119  VAL119      0.0252
     59  CG1       -9.8060    5.5930   15.5130 C.3   119  VAL119      0.0019
     60  CG2       -9.9190    3.1750   14.7510 C.3   119  VAL119      0.0019
     61  N         -8.4010   14.7470   14.5680 N.3   128  PHE128     -0.1227
     62  CA        -7.8060   13.4850   14.9330 C.3   128  PHE128      0.1736
     63  C         -6.3310   13.6090   15.3090 C.2   128  PHE128      0.2596
     64  O         -5.8750   13.0090   16.2940 O.2   128  PHE128     -0.2718
     65  CB        -7.9750   12.5320   13.7630 C.3   128  PHE128      0.0547
     66  CG        -7.4190   11.1830   14.0040 C.ar  128  PHE128     -0.0202
     67  CD1       -8.1410   10.2220   14.7040 C.ar  128  PHE128     -0.0042
     68  CD2       -6.1620   10.8740   13.5690 C.ar  128  PHE128     -0.0042
     69  CE1       -7.6470    9.0130   14.9420 C.ar  128  PHE128     -0.0003
     70  CE2       -5.6420    9.6200   13.7940 C.ar  128  PHE128     -0.0003
     71  CZ        -6.3930    8.6940   14.4970 C.ar  128  PHE128     -0.0000
     72  N         -5.5440   14.3830   14.5370 N.am  129  GLY129     -0.1957
     73  CA        -4.1310   14.5040   14.8170 C.3   129  GLY129      0.1869
     74  C         -3.8250   15.1360   16.1820 C.2   129  GLY129      0.2309
     75  O         -2.8350   14.7920   16.8270 O.2   129  GLY129     -0.2863
     76  N         -4.8010   12.3710   19.0600 N.3   132  VAL132     -0.1245
     77  CA        -3.8920   11.2640   19.3770 C.3   132  VAL132      0.1561
     78  C         -2.7710   11.6720   20.3150 C.2   132  VAL132      0.2260
     79  O         -2.0580   10.7960   20.8240 O.2   132  VAL132     -0.2867
     80  CB        -3.2860   10.5620   18.1180 C.3   132  VAL132      0.0252
     81  CG1       -4.3720   10.0230   17.2750 C.3   132  VAL132      0.0019
     82  CG2       -2.3840   11.4870   17.3240 C.3   132  VAL132      0.0019
     83  N         -8.8010    9.2580   21.9770 N.3   138  LEU138     -0.1245
     84  CA        -9.5060    8.3220   21.1200 C.3   138  LEU138      0.1561
     85  C        -10.3480    7.3700   21.9140 C.2   138  LEU138      0.2260
     86  O        -10.0310    7.0830   23.0680 O.2   138  LEU138     -0.2867
     87  CB        -8.5570    7.4760   20.2900 C.3   138  LEU138      0.0270
     88  CG        -7.6400    8.1890   19.3140 C.3   138  LEU138      0.0019
     89  CD1       -6.9060    7.1560   18.4210 C.3   138  LEU138      0.0001
     90  CD2       -8.3020    9.2480   18.4580 C.3   138  LEU138      0.0001
     91  N        -11.7710    3.5360   20.9490 N.3   140  VAL140     -0.1245
     92  CA       -11.8060    2.4870   19.9410 C.3   140  VAL140      0.1561
     93  C        -12.7420    1.3960   20.4350 C.2   140  VAL140      0.2260
     94  O        -12.5730    0.8720   21.5490 O.2   140  VAL140     -0.2867
     95  CB       -10.4120    1.9210   19.5680 C.3   140  VAL140      0.0252
     96  CG1      -10.5730    0.8780   18.4210 C.3   140  VAL140      0.0019
     97  CG2       -9.5000    3.0100   19.1190 C.3   140  VAL140      0.0019
     98  N         -3.6820    1.9840   24.4200 N.3   194  SER194     -0.1202
     99  CA        -2.8510    2.5840   23.3820 C.3   194  SER194      0.2020
    100  C         -3.2550    2.1960   21.9630 C.2   194  SER194      0.2619
    101  O         -4.0350    1.2360   21.7750 O.2   194  SER194     -0.2717
    102  CB        -1.3680    2.2060   23.5570 C.3   194  SER194      0.2103
    103  OG        -1.1420    0.8170   23.2170 O.3   194  SER194     -0.2182
    104  N         -2.6870    2.8560   20.9680 N.am  195  LEU195     -0.1965
    105  CA        -2.6750    2.2970   19.6250 C.3   195  LEU195      0.1728
    106  C         -1.9720    0.9360   19.6940 C.2   195  LEU195      0.2617
    107  O         -1.0230    0.7540   20.4710 O.2   195  LEU195     -0.2715
    108  CB        -1.9100    3.1990   18.6610 C.3   195  LEU195      0.0311
    109  CG        -2.3010    4.6670   18.5720 C.3   195  LEU195      0.0022
    110  CD1       -1.4230    5.3380   17.5490 C.3   195  LEU195      0.0001
    111  CD2       -3.7440    4.8740   18.2640 C.3   195  LEU195      0.0001
    112  N         -2.3850   -0.0070   18.8680 N.am  196  THR196     -0.1937
    113  CA        -1.7590   -1.3210   18.8440 C.3   196  THR196      0.2028
    114  C         -0.7300   -1.4670   17.7570 C.2   196  THR196      0.2643
    115  O         -0.1350   -2.5260   17.6190 O.2   196  THR196     -0.2714
    116  CB        -2.7640   -2.4400   18.7020 C.3   196  THR196      0.1808
    117  OG1       -3.3440   -2.3590   17.3970 O.3   196  THR196     -0.2208
    118  CG2       -3.8330   -2.3910   19.7940 C.3   196  THR196      0.0379
    119  N         -0.4710   -0.4120   16.9890 N.am  197  THR197     -0.1937
    120  CA         0.6520   -0.4080   16.0710 C.3   197  THR197      0.2013
    121  C          1.4960    0.8220   16.3530 C.2   197  THR197      0.2484
    122  O          1.0190    1.7890   16.9440 O.2   197  THR197     -0.2729
    123  CB         0.2340   -0.3830   14.5670 C.3   197  THR197      0.1807
    124  OG1       -0.0690    0.9450   14.1730 O.3   197  THR197     -0.2208
    125  CG2       -0.9860   -1.1950   14.3020 C.3   197  THR197      0.0379
    126  N          2.7610    0.7910   15.9260 N.am  198  PRO198     -0.2715
    127  CA         3.5640    2.0200   16.0340 C.3   198  PRO198      0.1521
    128  C          2.7760    3.2010   15.4650 C.2   198  PRO198      0.2440
    129  O          2.1320    3.0180   14.4170 O.2   198  PRO198     -0.2731
    130  CB         4.7860    1.6740   15.2050 C.3   198  PRO198      0.0310
    131  CG         4.9550    0.1630   15.4390 C.3   198  PRO198      0.0237
    132  CD         3.5220   -0.3280   15.3290 C.3   198  PRO198      0.0939
    133  N          2.8490    4.3790   16.0770 N.am  199  PRO199     -0.2727
    134  CA         3.7370    4.7680   17.1890 C.3   199  PRO199      0.1402
    135  C          3.2340    4.4130   18.6100 C.2   199  PRO199      0.2269
    136  O          3.8260    4.8900   19.5810 O.2   199  PRO199     -0.2865
    137  CB         3.8360    6.2800   17.0210 C.3   199  PRO199      0.0296
    138  CG         2.5410    6.6890   16.4030 C.3   199  PRO199      0.0237
    139  CD         2.1550    5.5420   15.4900 C.3   199  PRO199      0.0939
    140  N          0.9230    5.1720   20.6000 N.3   201  LEU201     -0.1245
    141  CA         0.5690    6.2810   21.4880 C.3   201  LEU201      0.1561
    142  C         -0.4740    5.9000   22.5240 C.2   201  LEU201      0.2260
    143  O         -1.4710    5.2060   22.2360 O.2   201  LEU201     -0.2867
    144  CB         0.0650    7.4810   20.6760 C.3   201  LEU201      0.0270
    145  CG         1.0900    8.0140   19.6700 C.3   201  LEU201      0.0019
    146  CD1        0.4270    9.0970   18.7900 C.3   201  LEU201      0.0001
    147  CD2        2.3470    8.5270   20.3440 C.3   201  LEU201      0.0001
    148  N        -10.2150    2.0280   25.4120 N.3   206  TRP206     -0.1241
    149  CA       -10.6830    0.8110   24.7430 C.3   206  TRP206      0.1605
    150  C        -12.0200    0.3830   25.2920 C.2   206  TRP206      0.2264
    151  O        -12.2210    0.3380   26.5120 O.2   206  TRP206     -0.2867
    152  CB        -9.6540   -0.3280   24.9230 C.3   206  TRP206      0.0550
    153  CG        -8.5510   -0.1970   23.9500 C.ar  206  TRP206      0.0003
    154  CD1       -7.3190    0.4060   24.1360 C.ar  206  TRP206      0.0946
    155  CD2       -8.5940   -0.5820   22.5630 C.ar  206  TRP206      0.0152
    156  NE1       -6.6150    0.3850   22.9620 N.ar  206  TRP206     -0.2442
    157  CE2       -7.3540   -0.2290   21.9750 C.ar  206  TRP206      0.0810
    158  CE3       -9.5490   -1.2340   21.7630 C.ar  206  TRP206      0.0012
    159  CZ2       -7.0850   -0.4280   20.6200 C.ar  206  TRP206      0.0191
    160  CZ3       -9.2660   -1.4570   20.4180 C.ar  206  TRP206      0.0001
    161  CH2       -8.0380   -1.0850   19.8690 C.ar  206  TRP206      0.0015
@<TRIPOS>BOND
     1     4     3    2
     2    19    16    1
     3    19    20    1
     4    28    25    1
     5    28    29    1
     6    25    24    1
     7    25    26    1
     8    16    17    1
     9    16    15    1
    10     3     2    1
    11     1     2    1
    12    20    21    1
    13    26    27    2
    14    17    18    2
    15    21    22    2
    16    21    23   am
    17     2     5    1
    18    29    30   ar
    19    29    31   ar
    20    12    10   ar
    21    12    14   ar
    22     9    10   ar
    23     9     7   ar
    24    10     8   ar
    25    14    13   ar
    26     7     6   ar
    27     8     6   ar
    28     8    11   ar
    29    13    11   ar
    30     6     5    1
    31    30    32   ar
    32    34    35    1
    33    36    35    1
    34    36    37    2
    35    31    33   ar
    36    35    38    1
    37    32    33   ar
    38    68    70   ar
    39    68    66   ar
    40    47    46    2
    41    65    66    1
    42    65    62    1
    43    38    39    1
    44    70    71   ar
    45    40    39   ar
    46    40    42   ar
    47    66    67   ar
    48    39    41   ar
    49    42    43   ar
    50   124   123    1
    51   125   123    1
    52   129   128    2
    53    41    43   ar
    54    71    69   ar
    55    72    73    1
    56    72    63   am
    57   123   120    1
    58    61    62    1
    59    44    45    1
    60    67    69   ar
    61    57    56    2
    62    60    58    1
    63    46    45    1
    64    73    74    1
    65    58    59    1
    66    58    55    1
    67    62    63    1
    68    54    55    1
    69   130   131    1
    70   130   127    1
    71    63    64    2
    72   132   131    1
    73   132   126    1
    74    45    48    1
    75    48    49    1
    76   128   127    1
    77   128   133   am
    78   139   133    1
    79   139   138    1
    80    55    56    1
    81   126   127    1
    82   126   121   am
    83   120   121    1
    84   120   119    1
    85   133   134    1
    86    74    75    2
    87    50    49   ar
    88    50    52   ar
    89   121   122    2
    90    49    51   ar
    91   138   137    1
    92   119   114   am
    93   137   134    1
    94   134   135    1
    95    52    53   ar
    96    81    80    1
    97    51    53   ar
    98    82    80    1
    99   117   116    1
   100   110   109    1
   101   115   114    2
   102   114   113    1
   103    80    77    1
   104   111   109    1
   105    89    88    1
   106    96    95    1
   107    90    88    1
   108   109   108    1
   109   135   136    2
   110   108   105    1
   111   116   113    1
   112   116   118    1
   113   146   145    1
   114   113   112    1
   115   112   106   am
   116    76    77    1
   117    97    95    1
   118    88    87    1
   119    77    78    1
   120    95    92    1
   121   105   106    1
   122   105   104    1
   123   145   147    1
   124   145   144    1
   125   106   107    2
   126   161   160   ar
   127   161   159   ar
   128    92    93    1
   129    92    91    1
   130    87    84    1
   131    78    79    2
   132   160   158   ar
   133    93    94    2
   134   140   141    1
   135   159   157   ar
   136   144   141    1
   137   104   100   am
   138    84    85    1
   139    84    83    1
   140   141   142    1
   141   158   155   ar
   142   101   100    2
   143    85    86    2
   144   100    99    1
   145   157   155   ar
   146   157   156   ar
   147   143   142    2
   148   155   153   ar
   149   156   154   ar
   150   103   102    1
   151    99   102    1
   152    99    98    1
   153   153   154   ar
   154   153   152    1
   155   149   152    1
   156   149   150    1
   157   149   148    1
   158   150   151    2
