@<TRIPOS>MOLECULE
tmp/3oisA00.pdb
 119 117 0 0 0
SMALL
GASTEIGER

@<TRIPOS>ATOM
      1  N         56.7920   14.5290   -2.7600 N.3    19  ASP19      -0.1239
      2  CA        57.2960   14.8390   -1.4580 C.3    19  ASP19       0.1674
      3  C         56.0320   15.1670   -0.6150 C.2    19  ASP19       0.2266
      4  O         55.3390   16.1080   -0.9160 O.2    19  ASP19      -0.2867
      5  CB        58.3050   16.0260   -1.5400 C.3    19  ASP19       0.1410
      6  CG        59.0200   16.3790   -0.2080 C.2    19  ASP19       0.3668
      7  OD1       58.5530   16.0790    0.8950 O.co2  19  ASP19      -0.2456
      8  OD2       60.0860   16.9780   -0.2980 O.co2  19  ASP19      -0.2456
      9  N         55.8580   16.6950    2.0480 N.3    21  ARG21      -0.1231
     10  CA        55.9440   18.0630    2.6300 C.3    21  ARG21       0.1694
     11  C         55.3950   19.1360    1.6970 C.2    21  ARG21       0.2592
     12  O         55.3090   20.3220    2.0990 O.2    21  ARG21      -0.2718
     13  CB        57.3640   18.4140    3.0150 C.3    21  ARG21       0.0321
     14  CG        57.9250   17.4840    4.1040 C.3    21  ARG21       0.0489
     15  CD        59.3760   17.7560    4.2160 C.3    21  ARG21       0.2205
     16  NE        60.0700   17.2500    3.0270 N.pl3  21  ARG21      -0.0865
     17  CZ        61.3570   17.3810    2.8350 C.cat  21  ARG21       0.5346
     18  NH1       61.9110   16.9020    1.6960 N.pl3  21  ARG21       0.1354
     19  NH2       62.1430   17.8940    3.7860 N.pl3  21  ARG21       0.1354
     20  N         55.0220   18.7640    0.4590 N.am   22  ASP22      -0.1960
     21  CA        54.6050   19.7840   -0.5330 C.3    22  ASP22       0.1840
     22  C         53.3610   20.5740   -0.0480 C.2    22  ASP22       0.2622
     23  O         52.3450   20.0070    0.3640 O.2    22  ASP22      -0.2715
     24  CB        54.2610   19.1550   -1.8670 C.3    22  ASP22       0.1450
     25  CG        55.4980   18.6950   -2.6780 C.2    22  ASP22       0.3671
     26  OD1       56.5970   18.9860   -2.2980 O.co2  22  ASP22      -0.2456
     27  OD2       55.2980   17.9910   -3.6690 O.co2  22  ASP22      -0.2456
     28  N         53.4690   21.8950   -0.0790 N.am   23  PHE23      -0.1974
     29  CA        52.4280   22.7840    0.4020 C.3    23  PHE23       0.1639
     30  C         51.2800   22.6060   -0.5570 C.2    23  PHE23       0.2290
     31  O         51.4840   22.4030   -1.7810 O.2    23  PHE23      -0.2864
     32  CB        52.8770   24.2760    0.3370 C.3    23  PHE23       0.0560
     33  CG        53.9450   24.6670    1.3390 C.ar   23  PHE23      -0.0200
     34  CD1       54.6010   23.7210    2.1560 C.ar   23  PHE23      -0.0042
     35  CD2       54.2370   26.0290    1.5450 C.ar   23  PHE23      -0.0042
     36  CE1       55.5920   24.1120    3.0440 C.ar   23  PHE23      -0.0003
     37  CE2       55.2310   26.4680    2.4220 C.ar   23  PHE23      -0.0003
     38  CZ        55.8950   25.5130    3.2300 C.ar   23  PHE23      -0.0000
     39  N         59.6020   20.7470   -9.8650 N.3   105  ARG105     -0.1245
     40  CA        59.8790   20.9940   -8.4680 C.3   105  ARG105      0.1563
     41  C         61.3380   21.4200   -8.2610 C.2   105  ARG105      0.2260
     42  O         61.6720   22.1620   -7.3020 O.2   105  ARG105     -0.2867
     43  CB        59.5260   19.7970   -7.5930 C.3   105  ARG105      0.0307
     44  CG        60.5500   18.5730   -7.7250 C.3   105  ARG105      0.0489
     45  CD        60.2010   17.3560   -6.7820 C.3   105  ARG105      0.2205
     46  NE        60.1310   17.9650   -5.5100 N.pl3 105  ARG105     -0.0865
     47  CZ        59.0410   18.0520   -4.7320 C.cat 105  ARG105      0.5346
     48  NH1       57.9290   17.2840   -4.9160 N.pl3 105  ARG105      0.1354
     49  NH2       59.1250   18.8690   -3.6740 N.pl3 105  ARG105      0.1354
     50  N         62.8010   24.7840   -6.6850 N.3   109  LYS109     -0.1245
     51  CA        63.8660   24.8130   -5.7010 C.3   109  LYS109      0.1561
     52  C         64.9840   25.8310   -6.0420 C.2   109  LYS109      0.2260
     53  O         65.4480   26.5470   -5.1400 O.2   109  LYS109     -0.2867
     54  CB        64.4720   23.4440   -5.5520 C.3   109  LYS109      0.0271
     55  CG        65.2910   23.3280   -4.2220 C.3   109  LYS109      0.0035
     56  CD        64.4730   22.8300   -3.0550 C.3   109  LYS109      0.0206
     57  CE        65.3040   22.7230   -1.8400 C.3   109  LYS109      0.1093
     58  NZ        64.3620   22.4830   -0.7490 N.3   109  LYS109     -0.1314
     59  N         63.7390   29.2400   -5.2800 N.3   112  HIS112     -0.1226
     60  CA        63.5710   29.4690   -3.8380 C.3   112  HIS112      0.1752
     61  C         64.9190   29.7250   -3.1570 C.2   112  HIS112      0.2595
     62  O         65.0410   30.6580   -2.3590 O.2   112  HIS112     -0.2718
     63  CB        62.9130   28.2730   -3.1900 C.3   112  HIS112      0.0759
     64  CG        62.5010   28.5060   -1.7640 C.ar  112  HIS112      0.0818
     65  ND1       62.3610   27.4810   -0.8390 N.ar  112  HIS112     -0.2268
     66  CD2       62.1820   29.6570   -1.1130 C.ar  112  HIS112      0.1154
     67  CE1       61.9630   27.9900    0.3200 C.ar  112  HIS112      0.1986
     68  NE2       61.8580   29.3080    0.1920 N.ar  112  HIS112     -0.2212
     69  N         65.9050   28.8850   -3.4650 N.am  113  LYS113     -0.1980
     70  CA        67.2070   28.9280   -2.8060 C.3   113  LYS113      0.1596
     71  C         68.2620   29.7950   -3.4860 C.2   113  LYS113      0.2287
     72  O         69.1120   30.3790   -2.7820 O.2   113  LYS113     -0.2864
     73  CB        67.7740   27.5060   -2.7170 C.3   113  LYS113      0.0298
     74  CG        66.8850   26.5570   -1.9720 C.3   113  LYS113      0.0038
     75  CD        66.6840   26.9020   -0.5000 C.3   113  LYS113      0.0206
     76  CE        65.7820   25.8670    0.1600 C.3   113  LYS113      0.1093
     77  NZ        65.5320   26.1770    1.5800 N.3   113  LYS113     -0.1314
     78  N         59.5520   33.2810   -2.3910 N.3   160  THR160     -0.1203
     79  CA        59.4100   32.9450   -0.9440 C.3   160  THR160      0.1994
     80  C         58.5840   31.6830   -0.5960 C.2   160  THR160      0.2618
     81  O         58.7350   31.0960    0.4870 O.2   160  THR160     -0.2717
     82  CB        58.9620   34.1630   -0.0930 C.3   160  THR160      0.1784
     83  OG1       57.6540   34.5170   -0.5070 O.3   160  THR160     -0.2211
     84  CG2       59.9280   35.3480   -0.3390 C.3   160  THR160      0.0376
     85  N         57.6800   31.3210   -1.4900 N.am  161  GLU161     -0.1965
     86  CA        56.8540   30.1760   -1.2610 C.3   161  GLU161      0.1733
     87  C         56.3690   29.5780   -2.5820 C.2   161  GLU161      0.2616
     88  O         56.3580   30.2480   -3.6430 O.2   161  GLU161     -0.2715
     89  CB        55.6850   30.6790   -0.3820 C.3   161  GLU161      0.0429
     90  CG        54.5320   29.7820   -0.1250 C.3   161  GLU161      0.1163
     91  CD        53.3170   30.6340    0.3080 C.2   161  GLU161      0.3649
     92  OE1       52.1900   30.1420    0.1890 O.co2 161  GLU161     -0.2457
     93  OE2       53.4910   31.8200    0.6980 O.co2 161  GLU161     -0.2457
     94  N         56.0150   28.2900   -2.5100 N.am  162  TYR162     -0.1974
     95  CA        55.4230   27.5630   -3.6400 C.3   162  TYR162      0.1639
     96  C         54.4970   26.4910   -3.1380 C.2   162  TYR162      0.2290
     97  O         54.7250   25.9030   -2.0460 O.2   162  TYR162     -0.2864
     98  CB        56.4720   26.9390   -4.5820 C.3   162  TYR162      0.0560
     99  CG        57.5050   26.0650   -3.8510 C.ar  162  TYR162     -0.0198
    100  CD1       58.5760   26.6230   -3.1910 C.ar  162  TYR162     -0.0009
    101  CD2       57.4370   24.6630   -3.9110 C.ar  162  TYR162     -0.0009
    102  CE1       59.5930   25.8160   -2.5540 C.ar  162  TYR162      0.0417
    103  CE2       58.4020   23.8780   -3.3060 C.ar  162  TYR162      0.0417
    104  CZ        59.4630   24.4410   -2.6520 C.ar  162  TYR162      0.1957
    105  OH        60.3780   23.6350   -2.0550 O.3   162  TYR162     -0.2866
    106  N         51.8090   23.7910  -10.1370 N.3   262  TRP262     -0.1241
    107  CA        52.5000   24.5730   -9.0540 C.3   262  TRP262      0.1605
    108  C         52.2770   26.0540   -9.2640 C.2   262  TRP262      0.2264
    109  O         52.2600   26.5500  -10.4430 O.2   262  TRP262     -0.2867
    110  CB        53.9880   24.4480   -9.1550 C.3   262  TRP262      0.0550
    111  CG        54.5140   23.0940   -8.6730 C.ar  262  TRP262      0.0003
    112  CD1       54.9290   22.0810   -9.4650 C.ar  262  TRP262      0.0946
    113  CD2       54.8120   22.7250   -7.3050 C.ar  262  TRP262      0.0152
    114  NE1       55.4690   21.0390   -8.6530 N.ar  262  TRP262     -0.2442
    115  CE2       55.4120   21.4410   -7.3420 C.ar  262  TRP262      0.0810
    116  CE3       54.6870   23.3830   -6.0600 C.ar  262  TRP262      0.0012
    117  CZ2       55.8290   20.7830   -6.1720 C.ar  262  TRP262      0.0191
    118  CZ3       55.0520   22.7030   -4.8650 C.ar  262  TRP262      0.0001
    119  CH2       55.6160   21.4280   -4.9510 C.ar  262  TRP262      0.0015
@<TRIPOS>BOND
     1   109   108    2
     2   106   107    1
     3    39    40    1
     4   112   111   ar
     5   112   114   ar
     6   108   107    1
     7   110   107    1
     8   110   111    1
     9   111   113   ar
    10   114   115   ar
    11    40    41    1
    12    40    43    1
    13    41    42    2
    14    44    43    1
    15    44    45    1
    16   115   113   ar
    17   115   117   ar
    18   113   116   ar
    19    45    46    1
    20    50    51    1
    21   117   119   ar
    22   116   118   ar
    23    52    51    1
    24    52    53    2
    25    51    54    1
    26    54    55    1
    27    46    47    2
    28    59    60    1
    29   119   118   ar
    30    48    47    1
    31    47    49    1
    32    98    99    1
    33    98    95    1
    34    55    56    1
    35   101    99   ar
    36   101   103   ar
    37    99   100   ar
    38    60    63    1
    39    60    61    1
    40    27    25   ar
    41    88    87    2
    42    95    96    1
    43    95    94    1
    44    71    70    1
    45    71    72    2
    46    69    61   am
    47    69    70    1
    48   103   104   ar
    49   100   102   ar
    50    63    64    1
    51    61    62    2
    52    96    97    2
    53    56    57    1
    54    70    73    1
    55     1     2    1
    56    73    74    1
    57    25    26   ar
    58    25    24    1
    59   104   102   ar
    60   104   105    1
    61    87    94   am
    62    87    86    1
    63    78    79    1
    64    74    75    1
    65    24    21    1
    66    57    58    1
    67    31    30    2
    68    64    66   ar
    69    64    65   ar
    70     5     2    1
    71     5     6    1
    72    85    86    1
    73    85    80   am
    74     2     3    1
    75    86    89    1
    76    66    68   ar
    77    79    80    1
    78    79    82    1
    79     4     3    2
    80    65    67   ar
    81    80    81    2
    82    30    29    1
    83    21    22    1
    84    21    20    1
    85    83    82    1
    86    75    76    1
    87    89    90    1
    88    84    82    1
    89     8     6   ar
    90     6     7   ar
    91    90    91    1
    92    28    22   am
    93    28    29    1
    94    22    23    2
    95    76    77    1
    96    92    91   ar
    97    68    67   ar
    98    91    93   ar
    99    32    29    1
   100    32    33    1
   101    20    11   am
   102    33    35   ar
   103    33    34   ar
   104    35    37   ar
   105    18    17    1
   106    11    12    2
   107    11    10    1
   108     9    10    1
   109    34    36   ar
   110    37    38   ar
   111    10    13    1
   112    17    16    2
   113    17    19    1
   114    13    14    1
   115    16    15    1
   116    36    38   ar
   117    14    15    1
