@<TRIPOS>MOLECULE
tmp/3oiyA00.pdb
 71 69 0 0 0
SMALL
GASTEIGER

@<TRIPOS>ATOM
      1  N         -7.8660    1.8320   55.5430 N.3    44  PRO44      -0.2102
      2  CA        -9.1590    1.4450   56.1500 C.3    44  PRO44       0.1504
      3  C         -9.8340    2.5550   56.9990 C.2    44  PRO44       0.2576
      4  O         -9.5450    3.7340   56.7810 O.2    44  PRO44      -0.2718
      5  CB        -8.8120    0.1930   56.9840 C.3    44  PRO44       0.0282
      6  CG        -7.3870    0.3390   57.3100 C.3    44  PRO44       0.0208
      7  CD        -6.7330    1.1630   56.2160 C.3    44  PRO44       0.0893
      8  N        -10.7420    2.1800   57.9020 N.am   45  THR45      -0.1939
      9  CA       -11.4570    3.1400   58.7440 C.3    45  THR45       0.2028
     10  C        -10.8810    3.1500   60.1740 C.2    45  THR45       0.2643
     11  O        -10.7040    2.0930   60.7860 O.2    45  THR45      -0.2714
     12  CB       -12.9910    2.8530   58.7830 C.3    45  THR45       0.1808
     13  OG1      -13.2230    1.5230   59.2630 O.3    45  THR45      -0.2208
     14  CG2      -13.6340    3.0180   57.3950 C.3    45  THR45       0.0379
     15  N        -10.5750    4.3490   60.6760 N.am   46  GLY46      -0.1939
     16  CA       -10.0160    4.5430   62.0060 C.3    46  GLY46       0.2014
     17  C         -8.5460    4.9530   62.0520 C.2    46  GLY46       0.2639
     18  O         -7.9690    5.0260   63.1400 O.2    46  GLY46      -0.2714
     19  N         -7.9530    5.2190   60.8810 N.am   47  VAL47      -0.1963
     20  CA        -6.5370    5.6270   60.7640 C.3    47  VAL47       0.1727
     21  C         -6.3010    7.1560   60.5670 C.2    47  VAL47       0.2617
     22  O         -5.1800    7.5850   60.2570 O.2    47  VAL47      -0.2715
     23  CB        -5.7470    4.7660   59.6940 C.3    47  VAL47       0.0290
     24  CG1       -5.6700    3.2950   60.1250 C.3    47  VAL47       0.0023
     25  CG2       -6.3440    4.9000   58.2900 C.3    47  VAL47       0.0023
     26  N         -7.3600    7.9510   60.7720 N.am   48  GLY48      -0.1940
     27  CA        -7.3260    9.4130   60.7280 C.3    48  GLY48       0.2014
     28  C         -7.6450   10.1340   59.4170 C.2    48  GLY48       0.2639
     29  O         -7.0030   11.1410   59.1270 O.2    48  GLY48      -0.2714
     30  N         -8.6380    9.6550   58.6570 N.am   49  LYS49      -0.1963
     31  CA        -8.9950   10.2460   57.3560 C.3    49  LYS49       0.1728
     32  C         -9.6740   11.6000   57.5050 C.2    49  LYS49       0.2617
     33  O         -9.2410   12.5690   56.8870 O.2    49  LYS49      -0.2715
     34  CB        -9.8480    9.2960   56.4980 C.3    49  LYS49       0.0311
     35  CG        -9.0600    8.1640   55.8530 C.3    49  LYS49       0.0038
     36  CD        -9.9820    7.3020   55.0260 C.3    49  LYS49       0.0206
     37  CE        -9.2090    6.3620   54.1460 C.3    49  LYS49       0.1093
     38  NZ       -10.1280    5.5600   53.2930 N.3    49  LYS49      -0.1314
     39  N        -10.7090   11.6500   58.3440 N.am   50  THR50      -0.1937
     40  CA       -11.4510   12.8750   58.6460 C.3    50  THR50       0.2028
     41  C        -10.5970   13.9030   59.4040 C.2    50  THR50       0.2642
     42  O        -10.6140   15.0920   59.0660 O.2    50  THR50      -0.2714
     43  CB       -12.8010   12.5130   59.3160 C.3    50  THR50       0.1808
     44  OG1      -13.5540   11.7600   58.3590 O.3    50  THR50      -0.2208
     45  CG2      -13.6130   13.7430   59.7120 C.3    50  THR50       0.0379
     46  N         -9.8170   13.4180   60.3730 N.am   51  THR51      -0.1950
     47  CA        -8.8800   14.2240   61.1510 C.3    51  THR51       0.1897
     48  C         -7.9000   14.9180   60.2120 C.2    51  THR51       0.2313
     49  O         -7.7160   16.1330   60.3010 O.2    51  THR51      -0.2863
     50  CB        -8.1480   13.3430   62.2010 C.3    51  THR51       0.1794
     51  OG1       -9.1150   12.7770   63.0950 O.3    51  THR51      -0.2208
     52  CG2       -7.1340   14.1370   63.0110 C.3    51  THR51       0.0378
     53  N        -15.3930   20.1870   66.4890 N.3    83  ARG83      -0.1245
     54  CA       -13.9570   19.9640   66.6250 C.3    83  ARG83       0.1563
     55  C        -13.1800   21.1380   66.0350 C.2    83  ARG83       0.2260
     56  O        -12.2270   21.6060   66.6430 O.2    83  ARG83      -0.2867
     57  CB       -13.5400   18.6490   65.9520 C.3    83  ARG83       0.0307
     58  CG       -14.0980   17.3830   66.6000 C.3    83  ARG83       0.0489
     59  CD       -13.8430   16.1820   65.6880 C.3    83  ARG83       0.2205
     60  NE       -12.4230   15.8280   65.6340 N.pl3  83  ARG83      -0.0865
     61  CZ       -11.8850   14.9150   64.8230 C.cat  83  ARG83       0.5346
     62  NH1      -10.5820   14.6630   64.8910 N.pl3  83  ARG83       0.1354
     63  NH2      -12.6310   14.2600   63.9440 N.pl3  83  ARG83       0.1354
     64  N        -15.8380   13.0300   51.8580 N.3   146  ASP146     -0.1239
     65  CA       -15.9770   11.7900   52.6320 C.3   146  ASP146      0.1674
     66  C        -16.7250   10.7050   51.8100 C.2   146  ASP146      0.2266
     67  O        -16.2110    9.5950   51.6810 O.2   146  ASP146     -0.2867
     68  CB       -16.6220   12.0670   54.0100 C.3   146  ASP146      0.1410
     69  CG       -16.3440   10.9740   55.0310 C.2   146  ASP146      0.3668
     70  OD1      -15.1660   10.6060   55.2010 O.co2 146  ASP146     -0.2456
     71  OD2      -17.3040   10.5050   55.6800 O.co2 146  ASP146     -0.2456
@<TRIPOS>BOND
     1    67    66    2
     2    66    65    1
     3    64    65    1
     4    65    68    1
     5    38    37    1
     6    68    69    1
     7    37    36    1
     8    36    35    1
     9    69    70   ar
    10    69    71   ar
    11     1     2    1
    12     1     7    1
    13    35    34    1
    14     2     5    1
    15     2     3    1
    16     7     6    1
    17    34    31    1
    18     4     3    2
    19    33    32    2
    20     5     6    1
    21     3     8   am
    22    31    32    1
    23    31    30    1
    24    14    12    1
    25    32    39   am
    26     8     9    1
    27    25    23    1
    28    39    40    1
    29    44    43    1
    30    40    43    1
    31    40    41    1
    32    30    28   am
    33     9    12    1
    34     9    10    1
    35    12    13    1
    36    42    41    2
    37    29    28    2
    38    43    45    1
    39    41    46   am
    40    28    27    1
    41    23    24    1
    42    23    20    1
    43    10    15   am
    44    10    11    2
    45    48    49    2
    46    48    47    1
    47    22    21    2
    48    46    47    1
    49    21    20    1
    50    21    26   am
    51    15    16    1
    52    27    26    1
    53    20    19    1
    54    19    17   am
    55    47    50    1
    56    16    17    1
    57    17    18    2
    58    50    52    1
    59    50    51    1
    60    63    61    1
    61    61    62    1
    62    61    60    2
    63    60    59    1
    64    59    58    1
    65    57    58    1
    66    57    54    1
    67    55    54    1
    68    55    56    2
    69    53    54    1
