@<TRIPOS>MOLECULE
tmp/3oj8B00.pdb
 212 199 0 0 0
SMALL
GASTEIGER

@<TRIPOS>ATOM
      1  N         33.8430  -36.6660   48.5230 N.3   110  LYS110     -0.1245
      2  CA        33.7210  -38.1340   48.4230 C.3   110  LYS110      0.1561
      3  C         35.1680  -38.6640   48.2920 C.2   110  LYS110      0.2260
      4  O         35.9870  -37.9920   47.6610 O.2   110  LYS110     -0.2867
      5  CB        32.9280  -38.4840   47.1740 C.3   110  LYS110      0.0271
      6  CG        32.6800  -39.9610   46.9640 C.3   110  LYS110      0.0035
      7  CD        31.7680  -40.0880   45.7640 C.3   110  LYS110      0.0206
      8  CE        31.4280  -41.5260   45.4660 C.3   110  LYS110      0.1093
      9  NZ        30.5440  -41.6070   44.2960 N.3   110  LYS110     -0.1314
     10  N         34.5940  -50.2930   46.0630 N.3   158  SER158     -0.1202
     11  CA        34.6350  -50.2000   44.5790 C.3   158  SER158      0.2020
     12  C         33.6860  -49.1340   44.0000 C.2   158  SER158      0.2619
     13  O         33.8310  -48.7870   42.8210 O.2   158  SER158     -0.2717
     14  CB        34.2900  -51.5390   43.9180 C.3   158  SER158      0.2103
     15  OG        32.8760  -51.6940   43.8150 O.3   158  SER158     -0.2182
     16  N         32.7020  -48.6440   44.8140 N.am  159  MET159     -0.1965
     17  CA        31.6710  -47.6570   44.4130 C.3   159  MET159      0.1736
     18  C         30.5860  -48.2020   43.4900 C.2   159  MET159      0.2616
     19  O         29.6970  -47.4400   43.1230 O.2   159  MET159     -0.2715
     20  CB        32.2740  -46.3270   43.8360 C.3   159  MET159      0.0427
     21  CG        33.2670  -45.6530   44.7700 C.3   159  MET159      0.0599
     22  SD        33.8210  -44.0350   44.1590 S.3   159  MET159     -0.1393
     23  CE        34.6370  -44.4550   42.6230 C.3   159  MET159      0.0692
     24  N         30.6160  -49.4940   43.1080 N.am  160  PHE160     -0.1960
     25  CA        29.5770  -50.0670   42.2340 C.3   160  PHE160      0.1771
     26  C         28.4460  -50.5770   43.1670 C.2   160  PHE160      0.2620
     27  O         28.1580  -51.7670   43.2340 O.2   160  PHE160     -0.2715
     28  CB        30.1580  -51.2380   41.3980 C.3   160  PHE160      0.0574
     29  CG        30.8760  -50.8360   40.1220 C.ar  160  PHE160     -0.0200
     30  CD1       32.0890  -50.1490   40.1670 C.ar  160  PHE160     -0.0042
     31  CD2       30.3590  -51.1770   38.8780 C.ar  160  PHE160     -0.0042
     32  CE1       32.7610  -49.7920   38.9840 C.ar  160  PHE160     -0.0003
     33  CE2       31.0300  -50.8200   37.6960 C.ar  160  PHE160     -0.0003
     34  CZ        32.2410  -50.1550   37.7610 C.ar  160  PHE160     -0.0000
     35  N         27.8330  -49.6590   43.9020 N.am  161  SER161     -0.1936
     36  CA        26.8590  -50.0060   44.9490 C.3   161  SER161      0.2055
     37  C         26.1370  -48.7520   45.3760 C.2   161  SER161      0.2643
     38  O         26.7220  -47.6620   45.3540 O.2   161  SER161     -0.2714
     39  CB        27.6170  -50.5510   46.1650 C.3   161  SER161      0.2130
     40  OG        26.8860  -50.6050   47.3870 O.3   161  SER161     -0.2179
     41  N         24.8880  -48.9120   45.8160 N.am  162  TYR162     -0.1973
     42  CA        24.1500  -47.8040   46.3920 C.3   162  TYR162      0.1639
     43  C         23.9910  -47.9780   47.9040 C.2   162  TYR162      0.2290
     44  O         23.1400  -47.3550   48.5220 O.2   162  TYR162     -0.2864
     45  CB        22.8990  -47.3810   45.6190 C.3   162  TYR162      0.0560
     46  CG        21.7310  -48.3460   45.6160 C.ar  162  TYR162     -0.0198
     47  CD1       20.6240  -48.1320   46.4340 C.ar  162  TYR162     -0.0009
     48  CD2       21.6800  -49.4070   44.7140 C.ar  162  TYR162     -0.0009
     49  CE1       19.5130  -48.9780   46.3880 C.ar  162  TYR162      0.0417
     50  CE2       20.6000  -50.2890   44.6940 C.ar  162  TYR162      0.0417
     51  CZ        19.5140  -50.0680   45.5310 C.ar  162  TYR162      0.1957
     52  OH        18.4560  -50.9490   45.5530 O.3   162  TYR162     -0.2866
     53  N         26.8050  -44.5000   45.7810 N.3   185  SER185     -0.1217
     54  CA        28.0880  -44.6350   46.4860 C.3   185  SER185      0.1889
     55  C         28.5860  -43.3770   47.2500 C.2   185  SER185      0.2288
     56  O         29.5130  -43.5060   48.0420 O.2   185  SER185     -0.2866
     57  CB        29.1580  -45.1300   45.5180 C.3   185  SER185      0.2089
     58  OG        29.6130  -44.0680   44.7040 O.3   185  SER185     -0.2183
     59  N         30.0010  -38.3830   43.0050 N.3   204  THR204     -0.1218
     60  CA        30.0960  -38.8390   41.6070 C.3   204  THR204      0.1862
     61  C         28.9650  -39.8180   41.4000 C.2   204  THR204      0.2287
     62  O         28.3760  -40.2840   42.3680 O.2   204  THR204     -0.2866
     63  CB        31.4460  -39.4690   41.2470 C.3   204  THR204      0.1770
     64  OG1       31.5400  -40.7430   41.8600 O.3   204  THR204     -0.2211
     65  CG2       32.6350  -38.5860   41.5820 C.3   204  THR204      0.0375
     66  N         27.4390  -42.8030   38.3680 N.3   206  ILE206     -0.1231
     67  CA        27.3730  -43.5590   37.1050 C.3   206  ILE206      0.1692
     68  C         26.0550  -44.3530   37.0340 C.2   206  ILE206      0.2592
     69  O         25.6230  -44.7140   35.9480 O.2   206  ILE206     -0.2718
     70  CB        28.6230  -44.4510   36.8190 C.3   206  ILE206      0.0266
     71  CG1       28.9810  -44.3650   35.2980 C.3   206  ILE206      0.0019
     72  CG2       28.3680  -45.9570   37.2420 C.3   206  ILE206      0.0020
     73  CD1       30.2790  -45.0660   34.9150 C.3   206  ILE206      0.0001
     74  N         25.4150  -44.5870   38.1680 N.am  207  GLY207     -0.1957
     75  CA        24.1290  -45.3080   38.1890 C.3   207  GLY207      0.1869
     76  C         23.1170  -44.7300   39.1600 C.2   207  GLY207      0.2309
     77  O         22.0680  -45.3300   39.3870 O.2   207  GLY207     -0.2863
     78  N         24.7790  -42.6690   42.0310 N.3   209  SER209     -0.1217
     79  CA        25.6070  -42.4120   43.2120 C.3   209  SER209      0.1889
     80  C         25.5930  -41.0400   43.8990 C.2   209  SER209      0.2288
     81  O         26.0690  -40.9340   45.0230 O.2   209  SER209     -0.2866
     82  CB        27.0240  -42.9300   43.0260 C.3   209  SER209      0.2089
     83  OG        26.9630  -44.3480   42.9540 O.3   209  SER209     -0.2183
     84  N         21.0570  -41.3610   44.9940 N.3   212  PHE212     -0.1241
     85  CA        20.6440  -42.2690   46.0870 C.3   212  PHE212      0.1605
     86  C         21.0100  -41.7080   47.4650 C.2   212  PHE212      0.2264
     87  O         20.1260  -41.6270   48.3250 O.2   212  PHE212     -0.2867
     88  CB        21.2290  -43.6880   45.9510 C.3   212  PHE212      0.0534
     89  CG        20.7520  -44.5280   44.7920 C.ar  212  PHE212     -0.0203
     90  CD1       19.4490  -45.0190   44.7550 C.ar  212  PHE212     -0.0042
     91  CD2       21.6330  -44.9160   43.7840 C.ar  212  PHE212     -0.0042
     92  CE1       19.0320  -45.8750   43.7130 C.ar  212  PHE212     -0.0003
     93  CE2       21.2260  -45.7870   42.7620 C.ar  212  PHE212     -0.0003
     94  CZ        19.9280  -46.2790   42.7500 C.ar  212  PHE212     -0.0000
     95  N         39.5370  -40.8620   41.0280 N.3   235  LYS235     -0.1231
     96  CA        39.9560  -42.2410   41.1710 C.3   235  LYS235      0.1693
     97  C         38.7350  -43.1380   40.9600 C.2   235  LYS235      0.2593
     98  O         37.6780  -42.8620   41.5100 O.2   235  LYS235     -0.2718
     99  CB        40.5490  -42.4270   42.5840 C.3   235  LYS235      0.0285
    100  CG        40.8360  -43.8790   42.9690 C.3   235  LYS235      0.0035
    101  CD        42.1530  -44.3420   42.4620 C.3   235  LYS235      0.0206
    102  CE        42.3090  -45.8140   42.7200 C.3   235  LYS235      0.1093
    103  NZ        43.5400  -46.3410   42.0770 N.3   235  LYS235     -0.1314
    104  N         38.8780  -44.1780   40.1400 N.am  236  GLY236     -0.1942
    105  CA        37.7770  -45.1000   39.8750 C.3   236  GLY236      0.2014
    106  C         38.3260  -46.4970   39.8010 C.2   236  GLY236      0.2639
    107  O         39.5260  -46.6550   39.6300 O.2   236  GLY236     -0.2714
    108  N         37.4970  -47.5180   39.9330 N.am  237  CYS237     -0.1953
    109  CA        38.1060  -48.8310   39.8680 C.3   237  CYS237      0.1843
    110  C         38.1220  -49.4450   38.4460 C.2   237  CYS237      0.2625
    111  O         38.8070  -50.4310   38.2080 O.2   237  CYS237     -0.2714
    112  CB        37.5620  -49.7670   40.9480 C.3   237  CYS237      0.0997
    113  SG        36.0320  -50.5930   40.4990 S.3   237  CYS237     -0.0797
    114  N         37.4560  -48.7780   37.4860 N.am  238  VAL238     -0.1977
    115  CA        37.4010  -49.1670   36.0640 C.3   238  VAL238      0.1596
    116  C         37.5790  -47.8730   35.2670 C.2   238  VAL238      0.2287
    117  O         36.9290  -46.8670   35.5710 O.2   238  VAL238     -0.2864
    118  CB        36.0810  -49.9160   35.6920 C.3   238  VAL238      0.0276
    119  CG1       35.9750  -50.1810   34.1850 C.3   238  VAL238      0.0022
    120  CG2       35.9540  -51.2350   36.4590 C.3   238  VAL238      0.0022
    121  N         35.6370  -46.9550   30.2090 N.3   241  GLN241     -0.1245
    122  CA        34.2620  -47.3170   29.8930 C.3   241  GLN241      0.1566
    123  C         33.5490  -45.9800   29.6130 C.2   241  GLN241      0.2260
    124  O         33.4730  -45.1380   30.4990 O.2   241  GLN241     -0.2867
    125  CB        33.6410  -48.0990   31.0810 C.3   241  GLN241      0.0367
    126  CG        32.2400  -48.6530   30.8130 C.3   241  GLN241      0.0905
    127  CD        31.1350  -47.6230   30.8470 C.2   241  GLN241      0.2608
    128  OE1       30.4120  -47.4230   29.8610 O.2   241  GLN241     -0.2717
    129  NE2       30.9710  -46.9380   31.9810 N.am  241  GLN241     -0.0878
    130  N         30.0510  -41.2290   33.3930 N.3   246  LEU246     -0.1245
    131  CA        30.2170  -40.9020   34.8070 C.3   246  LEU246      0.1561
    132  C         30.1210  -39.3750   34.9050 C.2   246  LEU246      0.2260
    133  O         30.5270  -38.6460   33.9920 O.2   246  LEU246     -0.2867
    134  CB        31.5890  -41.3790   35.2990 C.3   246  LEU246      0.0270
    135  CG        32.0280  -41.0100   36.7370 C.3   246  LEU246      0.0019
    136  CD1       31.2780  -41.8250   37.8010 C.3   246  LEU246      0.0001
    137  CD2       33.5010  -41.2280   36.9070 C.3   246  LEU246      0.0001
    138  N         23.4150  -52.0090   31.7120 N.3   345  THR345     -0.1218
    139  CA        24.1070  -53.1660   32.2340 C.3   345  THR345      0.1862
    140  C         25.2450  -53.5620   31.3190 C.2   345  THR345      0.2287
    141  O         26.3610  -53.7920   31.7940 O.2   345  THR345     -0.2866
    142  CB        23.1170  -54.3110   32.5120 C.3   345  THR345      0.1770
    143  OG1       22.2250  -53.8630   33.5250 O.3   345  THR345     -0.2211
    144  CG2       23.8060  -55.5630   33.0180 C.3   345  THR345      0.0375
    145  N         28.1140  -50.9830   31.4140 N.3   348  LEU348     -0.1231
    146  CA        28.9230  -51.0400   32.6350 C.3   348  LEU348      0.1693
    147  C         29.7400  -52.2950   32.7160 C.2   348  LEU348      0.2592
    148  O         30.8440  -52.2650   33.2500 O.2   348  LEU348     -0.2718
    149  CB        28.0200  -50.9530   33.8820 C.3   348  LEU348      0.0284
    150  CG        27.3540  -49.5990   34.1080 C.3   348  LEU348      0.0019
    151  CD1       26.4160  -49.6860   35.2930 C.3   348  LEU348      0.0001
    152  CD2       28.4180  -48.4740   34.3170 C.3   348  LEU348      0.0001
    153  N         29.2240  -53.3990   32.1630 N.am  349  PHE349     -0.1976
    154  CA        29.9240  -54.6950   32.2600 C.3   349  PHE349      0.1639
    155  C         30.2180  -55.3300   30.9000 C.2   349  PHE349      0.2290
    156  O         30.1820  -56.5620   30.7800 O.2   349  PHE349     -0.2864
    157  CB        29.1020  -55.6450   33.1590 C.3   349  PHE349      0.0560
    158  CG        28.9640  -55.1400   34.5800 C.ar  349  PHE349     -0.0200
    159  CD1       30.0290  -55.2230   35.4740 C.ar  349  PHE349     -0.0042
    160  CD2       27.7910  -54.5150   35.0040 C.ar  349  PHE349     -0.0042
    161  CE1       29.9070  -54.7300   36.7820 C.ar  349  PHE349     -0.0003
    162  CE2       27.6660  -54.0540   36.3210 C.ar  349  PHE349     -0.0003
    163  CZ        28.7210  -54.1650   37.1960 C.ar  349  PHE349     -0.0000
    164  N         27.3630  -59.7310   43.8480 N.3   372  LEU372     -0.1245
    165  CA        27.9190  -59.1180   42.6270 C.3   372  LEU372      0.1561
    166  C         29.2450  -59.7240   42.1640 C.2   372  LEU372      0.2260
    167  O         29.3880  -60.0380   40.9860 O.2   372  LEU372     -0.2867
    168  CB        28.0460  -57.5840   42.7640 C.3   372  LEU372      0.0270
    169  CG        28.5570  -56.8120   41.5120 C.3   372  LEU372      0.0019
    170  CD1       27.6220  -56.9840   40.3090 C.3   372  LEU372      0.0001
    171  CD2       28.7600  -55.3340   41.8190 C.3   372  LEU372      0.0001
    172  N         19.6970  -59.4030   33.0520 N.3   400  PHE400     -0.1241
    173  CA        20.8810  -58.7330   33.6100 C.3   400  PHE400      0.1605
    174  C         22.0920  -59.6340   33.4700 C.2   400  PHE400      0.2264
    175  O         23.1410  -59.1880   33.0060 O.2   400  PHE400     -0.2867
    176  CB        20.6720  -58.3660   35.0940 C.3   400  PHE400      0.0534
    177  CG        20.1360  -56.9670   35.2870 C.ar  400  PHE400     -0.0203
    178  CD1       20.9430  -55.9620   35.8130 C.ar  400  PHE400     -0.0042
    179  CD2       18.8220  -56.6540   34.9490 C.ar  400  PHE400     -0.0042
    180  CE1       20.4420  -54.6720   36.0110 C.ar  400  PHE400     -0.0003
    181  CE2       18.3190  -55.3640   35.1570 C.ar  400  PHE400     -0.0003
    182  CZ        19.1380  -54.3760   35.6670 C.ar  400  PHE400     -0.0000
    183  N         25.8010  -59.1920   31.2820 N.3   404  MET404     -0.1245
    184  CA        26.9910  -59.0400   32.1230 C.3   404  MET404      0.1570
    185  C         28.0950  -59.9690   31.6250 C.2   404  MET404      0.2261
    186  O         29.0400  -60.2660   32.3470 O.2   404  MET404     -0.2867
    187  CB        26.6200  -59.3090   33.6010 C.3   404  MET404      0.0387
    188  CG        25.8340  -58.1540   34.2240 C.3   404  MET404      0.0595
    189  SD        24.9880  -58.6010   35.7660 S.3   404  MET404     -0.1393
    190  CE        26.3620  -58.5480   36.8880 C.3   404  MET404      0.0692
    191  N         19.2450  -54.9170   42.9350 N.3   456  THR456     -0.1218
    192  CA        19.8420  -54.2470   41.7580 C.3   456  THR456      0.1862
    193  C         18.8330  -53.5310   40.8820 C.2   456  THR456      0.2287
    194  O         19.0980  -52.4150   40.4610 O.2   456  THR456     -0.2866
    195  CB        20.7520  -55.1880   40.9470 C.3   456  THR456      0.1770
    196  OG1       21.7870  -55.6500   41.8120 O.3   456  THR456     -0.2211
    197  CG2       21.3950  -54.4970   39.7400 C.3   456  THR456      0.0375
    198  N         17.8830  -49.5740   40.7180 N.3   459  VAL459     -0.1245
    199  CA        18.6750  -48.5240   40.0810 C.3   459  VAL459      0.1561
    200  C         17.9240  -47.9700   38.8670 C.2   459  VAL459      0.2260
    201  O         18.3800  -47.0050   38.2620 O.2   459  VAL459     -0.2867
    202  CB        20.1180  -48.9770   39.6970 C.3   459  VAL459      0.0252
    203  CG1       20.8610  -49.5470   40.9110 C.3   459  VAL459      0.0019
    204  CG2       20.1260  -49.9530   38.5010 C.3   459  VAL459      0.0019
    205  N         19.6360  -44.8360   37.0100 N.3   463  MET463     -0.1245
    206  CA        20.5580  -45.2860   35.9580 C.3   463  MET463      0.1570
    207  C         20.1220  -44.9350   34.5650 C.2   463  MET463      0.2261
    208  O         20.9700  -44.6740   33.7010 O.2   463  MET463     -0.2867
    209  CB        20.8670  -46.7850   36.0550 C.3   463  MET463      0.0387
    210  CG        22.1610  -47.1740   35.2640 C.3   463  MET463      0.0595
    211  SD        22.5730  -48.8640   35.5980 S.3   463  MET463     -0.1393
    212  CE        23.4760  -48.6790   37.1140 C.3   463  MET463      0.0692
@<TRIPOS>BOND
     1   123   122    1
     2   123   124    2
     3   128   127    2
     4   122   121    1
     5   122   125    1
     6   156   155    2
     7   126   127    1
     8   126   125    1
     9   127   129   am
    10   155   154    1
    11   183   184    1
    12   140   141    2
    13   140   139    1
    14   145   146    1
    15   185   184    1
    16   185   186    2
    17   138   139    1
    18   184   187    1
    19   153   154    1
    20   153   147   am
    21   139   142    1
    22   154   157    1
    23   142   144    1
    24   142   143    1
    25   146   147    1
    26   146   149    1
    27   147   148    2
    28   175   174    2
    29   172   173    1
    30   157   158    1
    31   130   131    1
    32   174   173    1
    33   187   188    1
    34   173   176    1
    35   208   207    2
    36   149   150    1
    37   133   132    2
    38   150   152    1
    39   150   151    1
    40   119   118    1
    41   188   189    1
    42   207   206    1
    43   158   160   ar
    44   158   159   ar
    45   131   132    1
    46   131   134    1
    47    73    71    1
    48   179   181   ar
    49   179   177   ar
    50   160   162   ar
    51   176   177    1
    52   181   182   ar
    53   210   211    1
    54   210   209    1
    55   116   117    2
    56   116   115    1
    57   177   178   ar
    58    71    70    1
    59   134   135    1
    60   159   161   ar
    61   211   212    1
    62   182   180   ar
    63   118   115    1
    64   118   120    1
    65   189   190    1
    66   178   180   ar
    67    69    68    2
    68   206   209    1
    69   206   205    1
    70   115   114    1
    71   162   163   ar
    72   135   137    1
    73   135   136    1
    74   161   163   ar
    75    70    67    1
    76    70    72    1
    77    68    67    1
    78    68    74   am
    79    67    66    1
    80   114   110   am
    81    33    34   ar
    82    33    31   ar
    83    34    32   ar
    84    74    75    1
    85    75    76    1
    86   111   110    2
    87   201   200    2
    88   110   109    1
    89   204   202    1
    90   200   199    1
    91    31    29   ar
    92    32    30   ar
    93    76    77    2
    94   107   106    2
    95   202   199    1
    96   202   203    1
    97   197   195    1
    98   106   105    1
    99   106   108   am
   100   109   108    1
   101   109   112    1
   102   105   104    1
   103   199   198    1
   104    29    30   ar
   105    29    28    1
   106   104    97   am
   107   170   169    1
   108   194   193    2
   109   113   112    1
   110   193   192    1
   111   195   192    1
   112   195   196    1
   113    97    96    1
   114    97    98    2
   115   167   166    2
   116    95    96    1
   117    96    99    1
   118    63    65    1
   119    63    60    1
   120    63    64    1
   121    28    25    1
   122    61    60    1
   123    61    62    2
   124   169   171    1
   125   169   168    1
   126    60    59    1
   127   192   191    1
   128    78    79    1
   129   103   102    1
   130   166   165    1
   131    25    24    1
   132    25    26    1
   133   101   102    1
   134   101   100    1
   135    99   100    1
   136    23    22    1
   137   165   168    1
   138   165   164    1
   139    94    93   ar
   140    94    92   ar
   141    93    91   ar
   142    13    12    2
   143    83    82    1
   144    82    79    1
   145    24    18   am
   146    19    18    2
   147    26    27    2
   148    26    35   am
   149    79    80    1
   150    18    17    1
   151    92    90   ar
   152    91    89   ar
   153    15    14    1
   154    20    17    1
   155    20    21    1
   156    80    81    2
   157    35    36    1
   158    14    11    1
   159    12    11    1
   160    12    16   am
   161    22    21    1
   162     9     8    1
   163    17    16    1
   164    11    10    1
   165    50    48   ar
   166    50    51   ar
   167    58    57    1
   168    48    46   ar
   169    90    89   ar
   170    89    88    1
   171    36    37    1
   172    36    39    1
   173    84    85    1
   174    38    37    2
   175    37    41   am
   176     8     7    1
   177    57    54    1
   178    51    52    1
   179    51    49   ar
   180    46    45    1
   181    46    47   ar
   182    45    42    1
   183     7     6    1
   184    53    54    1
   185    41    42    1
   186    88    85    1
   187    85    86    1
   188    39    40    1
   189    49    47   ar
   190    42    43    1
   191    54    55    1
   192     6     5    1
   193     5     2    1
   194    55    56    2
   195    86    87    2
   196     4     3    2
   197    43    44    2
   198     3     2    1
   199     2     1    1
