@<TRIPOS>MOLECULE
tmp/3ojaA00.pdb
 104 94 0 0 0
SMALL
GASTEIGER

@<TRIPOS>ATOM
      1  N        -38.0570   11.3980   75.8960 N.3    13  LYS13      -0.1245
      2  CA       -38.1240   11.4780   77.3440 C.3    13  LYS13       0.1561
      3  C        -38.6130   10.1400   77.9150 C.2    13  LYS13       0.2260
      4  O        -39.5660    9.5870   77.3790 O.2    13  LYS13      -0.2867
      5  CB       -39.0030   12.6290   77.7720 C.3    13  LYS13       0.0271
      6  CG       -39.2200   12.7100   79.2550 C.3    13  LYS13       0.0035
      7  CD       -40.1090   13.9230   79.6460 C.3    13  LYS13       0.0206
      8  CE       -39.7520   14.5490   81.0120 C.3    13  LYS13       0.1093
      9  NZ       -39.9290   13.6510   82.2150 N.3    13  LYS13      -0.1314
     10  N        -33.9010   12.3980   77.8430 N.3    40  ASP40      -0.1239
     11  CA       -34.1550   13.0310   79.1020 C.3    40  ASP40       0.1674
     12  C        -34.6940   11.9630   80.0620 C.2    40  ASP40       0.2266
     13  O        -35.7550   11.4040   79.8080 O.2    40  ASP40      -0.2867
     14  CB       -35.1600   14.1400   78.8890 C.3    40  ASP40       0.1410
     15  CG       -35.7200   14.6760   80.1750 C.2    40  ASP40       0.3668
     16  OD1      -35.0800   14.5130   81.2690 O.co2  40  ASP40      -0.2456
     17  OD2      -36.8130   15.2610   80.0630 O.co2  40  ASP40      -0.2456
     18  N        -34.8810   12.5300   83.4850 N.3    42  SER42      -0.1217
     19  CA       -34.9160   13.1970   84.7510 C.3    42  SER42       0.1889
     20  C        -36.0500   12.7420   85.6090 C.2    42  SER42       0.2288
     21  O        -36.9870   12.1520   85.1390 O.2    42  SER42      -0.2866
     22  CB       -35.0210   14.6810   84.4990 C.3    42  SER42       0.2089
     23  OG       -36.0950   14.9490   83.6620 O.3    42  SER42      -0.2183
     24  N        -27.7030   15.6490   74.0060 N.3    62  LEU62      -0.1245
     25  CA       -28.0680   16.1390   75.3120 C.3    62  LEU62       0.1561
     26  C        -28.6320   15.0050   76.1710 C.2    62  LEU62       0.2260
     27  O        -29.4870   14.2570   75.7230 O.2    62  LEU62      -0.2867
     28  CB       -29.0870   17.2820   75.2170 C.3    62  LEU62       0.0270
     29  CG       -29.5330   17.8740   76.5820 C.3    62  LEU62       0.0019
     30  CD1      -29.9270   19.3210   76.4120 C.3    62  LEU62       0.0001
     31  CD2      -30.6480   17.1270   77.3100 C.3    62  LEU62       0.0001
     32  N        -30.0890   14.2800   80.0920 N.3    64  ASN64      -0.1240
     33  CA       -30.5220   14.9570   81.2640 C.3    64  ASN64       0.1653
     34  C        -30.7990   13.8610   82.3030 C.2    64  ASN64       0.2266
     35  O        -31.7210   13.0560   82.1080 O.2    64  ASN64      -0.2867
     36  CB       -31.7490   15.7730   80.9080 C.3    64  ASN64       0.1155
     37  CG       -32.2940   16.5970   82.0740 C.2    64  ASN64       0.2627
     38  OD1      -32.0030   16.3030   83.2110 O.2    64  ASN64      -0.2716
     39  ND2      -33.1330   17.5980   81.7720 N.am   64  ASN64      -0.0877
     40  N        -31.0100   14.6710   85.5550 N.3    66  SER66      -0.1217
     41  CA       -31.3400   15.5250   86.7000 C.3    66  SER66       0.1889
     42  C        -32.2950   14.9020   87.6830 C.2    66  SER66       0.2288
     43  O        -33.1670   14.1610   87.3270 O.2    66  SER66      -0.2866
     44  CB       -31.9370   16.8130   86.1540 C.3    66  SER66       0.2089
     45  OG       -32.3830   17.6860   87.1510 O.3    66  SER66      -0.2183
     46  N        -24.2390   18.4170   76.1290 N.3    84  THR84      -0.1218
     47  CA       -24.8660   18.9600   77.3160 C.3    84  THR84       0.1862
     48  C        -25.2460   17.8080   78.2340 C.2    84  THR84       0.2287
     49  O        -25.9570   16.9220   77.8100 O.2    84  THR84      -0.2866
     50  CB       -26.1170   19.6970   76.9210 C.3    84  THR84       0.1770
     51  OG1      -25.7710   20.7840   76.0770 O.3    84  THR84      -0.2211
     52  CG2      -26.8260   20.2090   78.1190 C.3    84  THR84       0.0375
     53  N        -26.8480   17.1380   82.0750 N.3    86  ASP86      -0.1239
     54  CA       -27.4020   17.7130   83.2510 C.3    86  ASP86       0.1674
     55  C        -27.6000   16.5730   84.2660 C.2    86  ASP86       0.2266
     56  O        -28.3800   15.6410   84.0250 O.2    86  ASP86      -0.2867
     57  CB       -28.7230   18.4200   82.9220 C.3    86  ASP86       0.1410
     58  CG       -29.4140   19.0200   84.1510 C.2    86  ASP86       0.3668
     59  OD1      -29.0510   18.6730   85.2780 O.co2  86  ASP86      -0.2456
     60  OD2      -30.3670   19.8350   84.0220 O.co2  86  ASP86      -0.2456
     61  N        -23.9500   20.6260   83.6680 N.3   105  HIS105     -0.1241
     62  CA       -24.7390   21.0190   84.8290 C.3   105  HIS105      0.1621
     63  C        -24.6470   19.9490   85.8610 C.2   105  HIS105      0.2264
     64  O        -25.2540   18.8960   85.6780 O.2   105  HIS105     -0.2867
     65  CB       -26.2160   21.1160   84.5190 C.3   105  HIS105      0.0745
     66  CG       -26.5570   22.2140   83.5880 C.ar  105  HIS105      0.0817
     67  ND1      -26.7180   23.5140   84.0090 N.ar  105  HIS105     -0.2268
     68  CD2      -26.7840   22.2100   82.2550 C.ar  105  HIS105      0.1154
     69  CE1      -26.9980   24.2690   82.9610 C.ar  105  HIS105      0.1986
     70  NE2      -27.0540   23.5020   81.8860 N.ar  105  HIS105     -0.2212
     71  N        -33.1830   26.4590   94.2810 N.3   342  GLN342     -0.1245
     72  CA       -33.0410   27.1340   92.9950 C.3   342  GLN342      0.1566
     73  C        -32.8340   26.1210   91.8510 C.2   342  GLN342      0.2260
     74  O        -32.8510   26.4950   90.6540 O.2   342  GLN342     -0.2867
     75  CB       -31.8860   28.1510   93.0730 C.3   342  GLN342      0.0367
     76  CG       -31.6530   28.9750   91.8240 C.3   342  GLN342      0.0905
     77  CD       -30.1810   29.0120   91.4580 C.2   342  GLN342      0.2608
     78  OE1      -29.3180   29.0050   92.3350 O.2   342  GLN342     -0.2717
     79  NE2      -29.8860   28.9860   90.1540 N.am  342  GLN342     -0.0878
     80  N        -34.3440   22.8220   92.2350 N.3   344  ARG344     -0.1231
     81  CA       -35.3790   21.8000   92.4030 C.3   344  ARG344      0.1694
     82  C        -36.2930   21.6200   91.1760 C.2   344  ARG344      0.2593
     83  O        -36.7110   22.5880   90.5330 O.2   344  ARG344     -0.2718
     84  CB       -36.2300   22.0480   93.6490 C.3   344  ARG344      0.0321
     85  CG       -36.9220   20.7540   94.1730 C.3   344  ARG344      0.0489
     86  CD       -37.9900   21.0500   95.2240 C.3   344  ARG344      0.2205
     87  NE       -38.8440   22.1510   94.7710 N.pl3 344  ARG344     -0.0865
     88  CZ       -39.6190   22.8920   95.5630 C.cat 344  ARG344      0.5346
     89  NH1      -39.6700   22.6460   96.8750 N.pl3 344  ARG344      0.1354
     90  NH2      -40.3470   23.8880   95.0440 N.pl3 344  ARG344      0.1354
     91  N        -36.5960   20.3480   90.9100 N.am  345  THR345     -0.1939
     92  CA       -37.3300   19.8410   89.7600 C.3   345  THR345      0.2028
     93  C        -38.6300   19.3110   90.3230 C.2   345  THR345      0.2642
     94  O        -38.7390   19.1020   91.5270 O.2   345  THR345     -0.2714
     95  CB       -36.5500   18.6230   89.2110 C.3   345  THR345      0.1808
     96  OG1      -35.3120   19.0480   88.6290 O.3   345  THR345     -0.2208
     97  CG2      -37.3480   17.7590   88.2020 C.3   345  THR345      0.0379
     98  N        -39.5890   19.0240   89.4550 N.am  346  VAL346     -0.1977
     99  CA       -40.8790   18.4300   89.8560 C.3   346  VAL346      0.1596
    100  C        -40.9030   16.8800   89.8050 C.2   346  VAL346      0.2287
    101  O        -40.4820   16.2620   88.8100 O.2   346  VAL346     -0.2864
    102  CB       -42.0180   18.9440   88.9540 C.3   346  VAL346      0.0276
    103  CG1      -43.3240   18.4480   89.4930 C.3   346  VAL346      0.0022
    104  CG2      -41.9910   20.4810   88.8610 C.3   346  VAL346      0.0022
@<TRIPOS>BOND
     1    24    25    1
     2    28    25    1
     3    28    29    1
     4    25    26    1
     5    27    26    2
     6     1     2    1
     7    51    50    1
     8    46    47    1
     9    30    29    1
    10    29    31    1
    11    50    47    1
    12    50    52    1
    13    47    48    1
    14     2     5    1
    15     2     3    1
    16     4     3    2
    17     5     6    1
    18    49    48    2
    19    10    11    1
    20    14    11    1
    21    14    15    1
    22    11    12    1
    23     6     7    1
    24     7     8    1
    25    13    12    2
    26    17    15   ar
    27    32    33    1
    28    15    16   ar
    29    36    33    1
    30    36    37    1
    31     8     9    1
    32    33    34    1
    33    39    37   am
    34    70    68   ar
    35    70    69   ar
    36    37    38    2
    37    53    54    1
    38    35    34    2
    39    68    66   ar
    40    57    54    1
    41    57    58    1
    42    69    67   ar
    43    54    55    1
    44    18    19    1
    45    66    67   ar
    46    66    65    1
    47    23    22    1
    48    61    62    1
    49    60    58   ar
    50    56    55    2
    51    58    59   ar
    52    22    19    1
    53    65    62    1
    54    19    20    1
    55    62    63    1
    56    21    20    2
    57    40    41    1
    58    64    63    2
    59    44    41    1
    60    44    45    1
    61    41    42    1
    62    43    42    2
    63    97    95    1
    64    96    95    1
    65   101   100    2
    66   104   102    1
    67   102   103    1
    68   102    99    1
    69    95    92    1
    70    98    99    1
    71    98    93   am
    72    92    93    1
    73    92    91    1
    74   100    99    1
    75    79    77   am
    76    93    94    2
    77    83    82    2
    78    74    73    2
    79    91    82   am
    80    82    81    1
    81    77    76    1
    82    77    78    2
    83    76    75    1
    84    73    72    1
    85    80    81    1
    86    81    84    1
    87    72    75    1
    88    72    71    1
    89    84    85    1
    90    85    86    1
    91    87    86    1
    92    87    88    2
    93    90    88    1
    94    88    89    1
