@<TRIPOS>MOLECULE
tmp/3ojaB01.pdb
 113 105 0 0 0
SMALL
GASTEIGER

@<TRIPOS>ATOM
      1  N         13.5560   16.6610  154.7580 N.3   144  ASN144     -0.1240
      2  CA        13.5680   15.2190  154.6380 C.3   144  ASN144      0.1653
      3  C         12.8850   14.4050  155.7920 C.2   144  ASN144      0.2266
      4  O         13.4480   13.4780  156.3390 O.2   144  ASN144     -0.2867
      5  CB        14.9860   14.8070  154.3230 C.3   144  ASN144      0.1155
      6  CG        15.5560   15.5850  153.1180 C.2   144  ASN144      0.2627
      7  OD1       16.0120   16.7220  153.2420 O.2   144  ASN144     -0.2716
      8  ND2       15.5090   14.9620  151.9280 N.am  144  ASN144     -0.0877
      9  N         11.9870   21.4980  153.7860 N.3   167  SER167     -0.1202
     10  CA        12.1450   20.9880  152.4730 C.3   167  SER167      0.2020
     11  C         11.9420   19.4830  152.4160 C.2   167  SER167      0.2619
     12  O         12.3280   18.7750  153.3170 O.2   167  SER167     -0.2717
     13  CB        13.5440   21.3440  152.0430 C.3   167  SER167      0.2103
     14  OG        13.6760   21.1120  150.6770 O.3   167  SER167     -0.2182
     15  N         11.2700   19.0070  151.3650 N.am  168  SER168     -0.1951
     16  CA        11.2110   17.6090  151.0320 C.3   168  SER168      0.1924
     17  C         10.4860   16.7210  152.0630 C.2   168  SER168      0.2314
     18  O         10.9450   15.6430  152.4330 O.2   168  SER168     -0.2863
     19  CB        12.6180   17.1230  150.7500 C.3   168  SER168      0.2116
     20  OG        12.5760   15.9650  149.9190 O.3   168  SER168     -0.2180
     21  N         13.3750   30.8320  154.6380 N.3   185  ALA185     -0.1231
     22  CA        12.6210   29.6120  154.7440 C.3   185  ALA185      0.1694
     23  C         12.6230   28.7990  153.4580 C.2   185  ALA185      0.2592
     24  O         12.7000   29.3470  152.3810 O.2   185  ALA185     -0.2718
     25  CB        11.2070   29.9090  155.1880 C.3   185  ALA185      0.0304
     26  N         12.5330   27.4910  153.5770 N.am  186  ASN186     -0.1974
     27  CA        12.5610   26.6100  152.4350 C.3   186  ASN186      0.1688
     28  C         11.5140   25.5380  152.6850 C.2   186  ASN186      0.2292
     29  O         11.6740   24.7240  153.5900 O.2   186  ASN186     -0.2864
     30  CB        13.9460   25.9940  152.3160 C.3   186  ASN186      0.1181
     31  CG        14.1900   25.2520  151.0110 C.2   186  ASN186      0.2629
     32  OD1       13.2750   24.7790  150.3260 O.2   186  ASN186     -0.2716
     33  ND2       15.4920   25.0770  150.7070 N.am  186  ASN186     -0.0877
     34  N         10.3750   23.9720  149.8340 N.3   188  SER188     -0.1202
     35  CA        10.4500   23.2510  148.5740 C.3   188  SER188      0.2020
     36  C         10.1910   21.7290  148.6350 C.2   188  SER188      0.2618
     37  O         10.4760   21.0630  149.6310 O.2   188  SER188     -0.2717
     38  CB        11.8130   23.5000  147.9630 C.3   188  SER188      0.2103
     39  OG        12.7820   22.6280  148.4900 O.3   188  SER188     -0.2182
     40  N          9.7030   21.1770  147.5300 N.am  189  TYR189     -0.1975
     41  CA         9.5090   19.7190  147.4010 C.3   189  TYR189      0.1639
     42  C          8.4970   19.2270  148.4440 C.2   189  TYR189      0.2290
     43  O          8.7310   18.2530  149.1330 O.2   189  TYR189     -0.2864
     44  CB        10.8050   18.9410  147.5240 C.3   189  TYR189      0.0560
     45  CG        11.7090   19.0800  146.3520 C.ar  189  TYR189     -0.0198
     46  CD1       11.5670   18.2830  145.2440 C.ar  189  TYR189     -0.0009
     47  CD2       12.7210   19.9980  146.3470 C.ar  189  TYR189     -0.0009
     48  CE1       12.4050   18.3810  144.1510 C.ar  189  TYR189      0.0417
     49  CE2       13.5590   20.1140  145.2880 C.ar  189  TYR189      0.0417
     50  CZ        13.3930   19.3030  144.1880 C.ar  189  TYR189      0.1957
     51  OH        14.2200   19.4580  143.1290 O.3   189  TYR189     -0.2866
     52  N         14.2620   35.6760  152.0780 N.3   203  GLU203     -0.1231
     53  CA        14.5320   34.6660  151.0810 C.3   203  GLU203      0.1699
     54  C         13.5950   33.4840  151.2910 C.2   203  GLU203      0.2592
     55  O         13.6340   32.8900  152.3560 O.2   203  GLU203     -0.2718
     56  CB        15.9530   34.1860  151.2170 C.3   203  GLU203      0.0402
     57  CG        16.9510   35.2480  151.1460 C.3   203  GLU203      0.1161
     58  CD        18.3260   34.7390  150.6900 C.2   203  GLU203      0.3649
     59  OE1       18.5440   33.5000  150.6360 O.co2 203  GLU203     -0.2457
     60  OE2       19.1960   35.5960  150.4010 O.co2 203  GLU203     -0.2457
     61  N         12.7600   33.1340  150.2870 N.am  204  LEU204     -0.1966
     62  CA        11.7980   32.0390  150.4250 C.3   204  LEU204      0.1728
     63  C         11.8380   31.1940  149.1900 C.2   204  LEU204      0.2616
     64  O         11.7840   31.7380  148.1070 O.2   204  LEU204     -0.2715
     65  CB        10.3870   32.5510  150.6170 C.3   204  LEU204      0.0311
     66  CG         9.2560   31.5280  150.6560 C.3   204  LEU204      0.0022
     67  CD1        9.3480   30.5820  151.8440 C.3   204  LEU204      0.0001
     68  CD2        8.0100   32.2910  150.7220 C.3   204  LEU204      0.0001
     69  N         11.9640   29.8700  149.3710 N.am  205  ASP205     -0.1971
     70  CA        12.0480   28.8970  148.3170 C.3   205  ASP205      0.1709
     71  C         10.8800   27.9650  148.5260 C.2   205  ASP205      0.2293
     72  O         10.8230   27.2370  149.5170 O.2   205  ASP205     -0.2864
     73  CB        13.3540   28.1170  148.4090 C.3   205  ASP205      0.1436
     74  CG        13.5330   27.1220  147.2720 C.2   205  ASP205      0.3671
     75  OD1       12.5360   26.7220  146.6240 O.co2 205  ASP205     -0.2456
     76  OD2       14.6770   26.7090  147.0220 O.co2 205  ASP205     -0.2456
     77  N         14.7890   37.2660  147.4030 N.3   224  ILE224     -0.1245
     78  CA        14.8070   36.0870  146.5450 C.3   224  ILE224      0.1561
     79  C         13.5890   35.1580  146.7650 C.2   224  ILE224      0.2260
     80  O         13.3110   34.6860  147.8760 O.2   224  ILE224     -0.2867
     81  CB        16.1360   35.3710  146.7020 C.3   224  ILE224      0.0252
     82  CG1       17.2200   36.3680  146.2770 C.3   224  ILE224      0.0019
     83  CG2       16.1680   34.1280  145.8750 C.3   224  ILE224      0.0019
     84  CD1       18.5130   36.0400  146.7680 C.3   224  ILE224      0.0001
     85  N         11.8450   31.7920  145.1260 N.3   226  LYS226     -0.1245
     86  CA        11.9670   30.6980  144.1870 C.3   226  LYS226      0.1561
     87  C         10.6140   29.9680  144.1100 C.2   226  LYS226      0.2260
     88  O         10.1660   29.3670  145.1280 O.2   226  LYS226     -0.2867
     89  CB        13.0600   29.7110  144.6410 C.3   226  LYS226      0.0271
     90  CG        14.3740   30.3960  145.0720 C.3   226  LYS226      0.0035
     91  CD        15.0990   31.0980  143.9570 C.3   226  LYS226      0.0206
     92  CE        16.2590   30.2550  143.5160 C.3   226  LYS226      0.1093
     93  NZ        16.1660   30.1470  142.0500 N.3   226  LYS226     -0.1314
     94  N         22.0360    9.0200  141.7820 N.3   480  ARG480     -0.1245
     95  CA        22.3070    9.7870  142.9590 C.3   480  ARG480      0.1563
     96  C         22.6640    8.8740  144.1050 C.2   480  ARG480      0.2260
     97  O         23.4350    9.2380  144.9520 O.2   480  ARG480     -0.2867
     98  CB        21.0680   10.5890  143.3620 C.3   480  ARG480      0.0307
     99  CG        20.8330   11.8680  142.6180 C.3   480  ARG480      0.0489
    100  CD        22.1010   12.5870  142.3750 C.3   480  ARG480      0.2205
    101  NE        21.8480   13.9860  142.0840 N.pl3 480  ARG480     -0.0865
    102  CZ        22.4620   15.0180  142.6530 C.cat 480  ARG480      0.5346
    103  NH1       22.1370   16.2350  142.2610 N.pl3 480  ARG480      0.1354
    104  NH2       23.4110   14.8300  143.5770 N.pl3 480  ARG480      0.1354
    105  N         26.0650    7.6070  143.7260 N.3   483  GLU483     -0.1245
    106  CA        26.9560    8.6690  144.2220 C.3   483  GLU483      0.1567
    107  C         27.0800    8.8200  145.8030 C.2   483  GLU483      0.2260
    108  O         28.1630    8.9870  146.3370 O.2   483  GLU483     -0.2867
    109  CB        26.6240    9.9700  143.5290 C.3   483  GLU483      0.0388
    110  CG        26.9420    9.9740  142.0520 C.3   483  GLU483      0.1160
    111  CD        26.1070   11.0320  141.2600 C.2   483  GLU483      0.3649
    112  OE1       25.6920   10.7370  140.0800 O.co2 483  GLU483     -0.2457
    113  OE2       25.8410   12.1560  141.8200 O.co2 483  GLU483     -0.2457
@<TRIPOS>BOND
     1   112   111   ar
     2   111   113   ar
     3   111   110    1
     4    94    95    1
     5    93    92    1
     6   110   109    1
     7   101   100    1
     8   101   102    2
     9   103   102    1
    10   100    99    1
    11    99    98    1
    12   102   104    1
    13    95    98    1
    14    95    96    1
    15    51    50    1
    16    92    91    1
    17   109   106    1
    18   105   106    1
    19    91    90    1
    20    96    97    2
    21    87    86    1
    22    87    88    2
    23    48    50   ar
    24    48    46   ar
    25    86    89    1
    26    86    85    1
    27    50    49   ar
    28   106   107    1
    29    89    90    1
    30    46    45   ar
    31    49    47   ar
    32   107   108    2
    33    83    81    1
    34    82    81    1
    35    82    84    1
    36    47    45   ar
    37    45    44    1
    38    78    81    1
    39    78    79    1
    40    78    77    1
    41    75    74   ar
    42    79    80    2
    43    76    74   ar
    44    74    73    1
    45    41    44    1
    46    41    40    1
    47    41    42    1
    48    40    36   am
    49    38    39    1
    50    38    35    1
    51    64    63    2
    52    70    73    1
    53    70    71    1
    54    70    69    1
    55    42    43    2
    56    71    72    2
    57    35    36    1
    58    35    34    1
    59    36    37    2
    60    63    69   am
    61    63    62    1
    62    20    19    1
    63    61    62    1
    64    61    54   am
    65    32    31    2
    66    60    58   ar
    67    62    65    1
    68    65    66    1
    69    59    58   ar
    70    66    68    1
    71    66    67    1
    72    14    13    1
    73    58    57    1
    74    33    31   am
    75    19    16    1
    76    31    30    1
    77    16    15    1
    78    16    17    1
    79    53    56    1
    80    53    54    1
    81    53    52    1
    82    57    56    1
    83    54    55    2
    84    15    11   am
    85     8     6   am
    86    13    10    1
    87    17    18    2
    88    30    27    1
    89    24    23    2
    90    11    10    1
    91    11    12    2
    92    27    28    1
    93    27    26    1
    94    10     9    1
    95    28    29    2
    96     6     7    2
    97     6     5    1
    98    23    26   am
    99    23    22    1
   100     5     2    1
   101     2     1    1
   102     2     3    1
   103    21    22    1
   104    22    25    1
   105     3     4    2
