@<TRIPOS>MOLECULE
tmp/3ojaA01.pdb
 96 89 0 0 0
SMALL
GASTEIGER

@<TRIPOS>ATOM
      1  N        -25.4900    7.4910   92.4500 N.3    71  TYR71      -0.1241
      2  CA       -24.3880    7.4920   93.4320 C.3    71  TYR71       0.1605
      3  C        -23.0570    7.1010   92.7840 C.2    71  TYR71       0.2264
      4  O        -23.0070    6.7190   91.6160 O.2    71  TYR71      -0.2867
      5  CB       -24.7060    6.5190   94.5600 C.3    71  TYR71       0.0534
      6  CG       -25.7420    7.0150   95.5610 C.ar   71  TYR71      -0.0201
      7  CD1      -25.3410    7.5810   96.7780 C.ar   71  TYR71      -0.0009
      8  CD2      -27.1280    6.9070   95.2960 C.ar   71  TYR71      -0.0009
      9  CE1      -26.2610    8.0530   97.6960 C.ar   71  TYR71       0.0417
     10  CE2      -28.0740    7.3710   96.2200 C.ar   71  TYR71       0.0417
     11  CZ       -27.6280    7.9550   97.4190 C.ar   71  TYR71       0.1957
     12  OH       -28.5170    8.4260   98.3610 O.3    71  TYR71      -0.2866
     13  N        -26.1170   12.3100   93.6790 N.3    91  TYR91      -0.1241
     14  CA       -25.1910   12.0670   94.7720 C.3    91  TYR91       0.1605
     15  C        -23.9860   11.5040   94.1260 C.2    91  TYR91       0.2264
     16  O        -23.3880   10.6110   94.7010 O.2    91  TYR91      -0.2867
     17  CB       -25.7220   11.0170   95.7820 C.3    91  TYR91       0.0534
     18  CG       -27.0370   11.3570   96.4060 C.ar   91  TYR91      -0.0201
     19  CD1      -27.1030   12.0900   97.5480 C.ar   91  TYR91      -0.0009
     20  CD2      -28.2050   10.9710   95.8480 C.ar   91  TYR91      -0.0009
     21  CE1      -28.3090   12.4240   98.1240 C.ar   91  TYR91       0.0417
     22  CE2      -29.4230   11.3020   96.4160 C.ar   91  TYR91       0.0417
     23  CZ       -29.4600   12.0210   97.5560 C.ar   91  TYR91       0.1957
     24  OH       -30.6280   12.3540   98.1490 O.3    91  TYR91      -0.2866
     25  N        -20.1980   11.0380   92.9350 N.3    93  GLN93      -0.1245
     26  CA       -18.9490   11.3620   93.6590 C.3    93  GLN93       0.1566
     27  C        -17.7880   11.6370   92.7560 C.2    93  GLN93       0.2260
     28  O        -16.9690   12.4860   93.0890 O.2    93  GLN93      -0.2867
     29  CB       -18.5020   10.2490   94.5580 C.3    93  GLN93       0.0367
     30  CG       -19.3260   10.0390   95.7510 C.3    93  GLN93       0.0905
     31  CD       -18.7460    8.9460   96.6420 C.2    93  GLN93       0.2608
     32  OE1      -17.7650    9.1820   97.3260 O.2    93  GLN93      -0.2717
     33  NE2      -19.3300    7.7470   96.6080 N.am   93  GLN93      -0.0878
     34  N        -22.4240   15.1420   95.2860 N.3   110  ASN110     -0.1240
     35  CA       -21.4010   14.8520   96.2690 C.3   110  ASN110      0.1653
     36  C        -20.0540   14.7780   95.5300 C.2   110  ASN110      0.2266
     37  O        -19.1780   13.9780   95.8430 O.2   110  ASN110     -0.2867
     38  CB       -21.7430   13.5290   96.9400 C.3   110  ASN110      0.1155
     39  CG       -20.8700   13.2200   98.1710 C.2   110  ASN110      0.2627
     40  OD1      -20.3880   14.1480   98.9010 O.2   110  ASN110     -0.2716
     41  ND2      -20.6450   11.8730   98.3990 N.am  110  ASN110     -0.0877
     42  N        -16.4760   15.0930   94.0320 N.3   112  SER112     -0.1217
     43  CA       -15.1270   15.4850   94.4230 C.3   112  SER112      0.1889
     44  C        -14.0250   15.1110   93.4290 C.2   112  SER112      0.2288
     45  O        -12.9060   15.1070   93.8060 O.2   112  SER112     -0.2866
     46  CB       -14.8050   14.8760   95.7880 C.3   112  SER112      0.2089
     47  OG       -14.6900   13.4630   95.7500 O.3   112  SER112     -0.2183
     48  N        -28.8220    3.9680  101.3790 N.3   362  GLN362     -0.1231
     49  CA       -27.4730    4.4560  101.5210 C.3   362  GLN362      0.1698
     50  C        -27.2410    5.0550  102.9150 C.2   362  GLN362      0.2592
     51  O        -26.2040    4.8240  103.4660 O.2   362  GLN362     -0.2718
     52  CB       -27.0920    5.4110  100.4040 C.3   362  GLN362      0.0381
     53  CG       -27.2640    4.7950   99.0200 C.3   362  GLN362      0.0905
     54  CD       -26.3380    3.5770   98.7500 C.2   362  GLN362      0.2608
     55  OE1      -25.1840    3.7460   98.2790 O.2   362  GLN362     -0.2717
     56  NE2      -26.8520    2.3470   99.0090 N.am  362  GLN362     -0.0878
     57  N        -28.1940    5.7620  103.5150 N.am  363  LYS363     -0.1980
     58  CA       -27.9640    6.3250  104.8410 C.3   363  LYS363      0.1596
     59  C        -27.7220    5.2460  105.8800 C.2   363  LYS363      0.2287
     60  O        -26.9250    5.4240  106.8310 O.2   363  LYS363     -0.2864
     61  CB       -29.1130    7.1880  105.3230 C.3   363  LYS363      0.0298
     62  CG       -29.0010    8.6430  104.8810 C.3   363  LYS363      0.0038
     63  CD       -29.5290    9.6560  105.9400 C.3   363  LYS363      0.0206
     64  CE       -29.3890   11.1320  105.4490 C.3   363  LYS363      0.1093
     65  NZ       -27.9670   11.6960  105.2260 N.3   363  LYS363     -0.1314
     66  N        -26.5730    2.3440  105.3880 N.3   365  LYS365     -0.1231
     67  CA       -25.3300    1.6390  105.1700 C.3   365  LYS365      0.1693
     68  C        -24.1490    2.4380  105.7430 C.2   365  LYS365      0.2591
     69  O        -23.3160    1.9030  106.4250 O.2   365  LYS365     -0.2718
     70  CB       -25.1620    1.2750  103.6950 C.3   365  LYS365      0.0285
     71  CG       -23.7800    0.6530  103.3900 C.3   365  LYS365      0.0035
     72  CD       -23.5890    0.1930  101.9160 C.3   365  LYS365      0.0206
     73  CE       -22.1270   -0.3170  101.6560 C.3   365  LYS365      0.1093
     74  NZ       -21.0350    0.7620  101.6030 N.3   365  LYS365     -0.1314
     75  N        -24.1190    3.7230  105.4730 N.am  366  ALA366     -0.1980
     76  CA       -23.1600    4.6590  106.0380 C.3   366  ALA366      0.1597
     77  C        -23.2150    4.7250  107.5680 C.2   366  ALA366      0.2287
     78  O        -22.1790    4.8430  108.2220 O.2   366  ALA366     -0.2864
     79  CB       -23.4340    6.0340  105.4870 C.3   366  ALA366      0.0319
     80  N        -21.5460    1.5330  108.9060 N.3   369  GLU369     -0.1245
     81  CA       -20.1100    1.8010  108.8930 C.3   369  GLU369      0.1567
     82  C        -19.6900    2.6950  110.0840 C.2   369  GLU369      0.2260
     83  O        -18.6960    2.4250  110.7210 O.2   369  GLU369     -0.2867
     84  CB       -19.6880    2.4370  107.5690 C.3   369  GLU369      0.0388
     85  CG       -19.1240    1.4340  106.6210 C.3   369  GLU369      0.1160
     86  CD       -19.5350    1.6410  105.1530 C.2   369  GLU369      0.3649
     87  OE1      -18.6390    1.9710  104.3300 O.co2 369  GLU369     -0.2457
     88  OE2      -20.7430    1.4430  104.8120 O.co2 369  GLU369     -0.2457
     89  N        -17.3480    1.7650  113.1800 N.3   373  ASN373     -0.1240
     90  CA       -16.0800    2.4120  113.4720 C.3   373  ASN373      0.1653
     91  C        -16.0440    2.7610  114.9430 C.2   373  ASN373      0.2266
     92  O        -14.9940    2.6720  115.5750 O.2   373  ASN373     -0.2867
     93  CB       -15.8760    3.6570  112.6160 C.3   373  ASN373      0.1155
     94  CG       -15.5700    3.3140  111.1540 C.2   373  ASN373      0.2627
     95  OD1      -15.1380    2.1840  110.8640 O.2   373  ASN373     -0.2716
     96  ND2      -15.8350    4.2680  110.2070 N.am  373  ASN373     -0.0877
@<TRIPOS>BOND
     1     4     3    2
     2     1     2    1
     3    27    28    2
     4    27    26    1
     5     3     2    1
     6    25    26    1
     7    44    45    2
     8    44    43    1
     9     2     5    1
    10    26    29    1
    11    13    14    1
    12    42    43    1
    13    15    16    2
    14    15    14    1
    15    43    46    1
    16    29    30    1
    17     5     6    1
    18    14    17    1
    19    34    35    1
    20     8     6   ar
    21     8    10   ar
    22    36    37    2
    23    36    35    1
    24     6     7   ar
    25    47    46    1
    26    30    31    1
    27    17    18    1
    28    20    18   ar
    29    20    22   ar
    30    10    11   ar
    31    35    38    1
    32    18    19   ar
    33    22    23   ar
    34    33    31   am
    35    31    32    2
    36     7     9   ar
    37    38    39    1
    38    11     9   ar
    39    11    12    1
    40    19    21   ar
    41    23    21   ar
    42    23    24    1
    43    39    41   am
    44    39    40    2
    45    55    54    2
    46    54    56   am
    47    54    53    1
    48    53    52    1
    49    52    49    1
    50    48    49    1
    51    49    50    1
    52    74    73    1
    53    73    72    1
    54    72    71    1
    55    50    51    2
    56    50    57   am
    57    71    70    1
    58    57    58    1
    59    70    67    1
    60    87    86   ar
    61    88    86   ar
    62    58    61    1
    63    58    59    1
    64    62    61    1
    65    62    63    1
    66    86    85    1
    67    67    66    1
    68    67    68    1
    69    65    64    1
    70    64    63    1
    71    75    68   am
    72    75    76    1
    73    79    76    1
    74    68    69    2
    75    59    60    2
    76    76    77    1
    77    85    84    1
    78    77    78    2
    79    84    81    1
    80    81    80    1
    81    81    82    1
    82    82    83    2
    83    96    94   am
    84    95    94    2
    85    94    93    1
    86    93    90    1
    87    89    90    1
    88    90    91    1
    89    91    92    2
