@<TRIPOS>MOLECULE
tmp/3ojcB06.pdb
 97 89 0 0 0
SMALL
GASTEIGER

@<TRIPOS>ATOM
      1  N         43.0090   58.5230  133.2230 N.3     9  SER9       -0.1217
      2  CA        43.2650   57.4630  132.2570 C.3     9  SER9        0.1889
      3  C         44.0300   58.0230  131.0540 C.2     9  SER9        0.2288
      4  O         43.6260   59.0180  130.4660 O.2     9  SER9       -0.2866
      5  CB        41.9650   56.8420  131.7750 C.3     9  SER9        0.2089
      6  OG        42.2150   56.0310  130.6500 O.3     9  SER9       -0.2183
      7  N         42.2160   58.9170  128.1040 N.3    12  SER12      -0.1217
      8  CA        41.4990   60.1930  128.1050 C.3    12  SER12       0.1889
      9  C         42.4260   61.3290  127.6990 C.2    12  SER12       0.2288
     10  O         41.9710   62.4020  127.3030 O.2    12  SER12      -0.2866
     11  CB        40.9110   60.4980  129.4910 C.3    12  SER12       0.2089
     12  OG        39.9200   59.5620  129.8610 O.3    12  SER12      -0.2183
     13  N         47.8920   57.0100  138.1560 N.3    42  PHE42      -0.1241
     14  CA        46.6230   57.1120  138.8620 C.3    42  PHE42       0.1605
     15  C         46.6310   56.3430  140.1840 C.2    42  PHE42       0.2264
     16  O         46.0330   56.7770  141.1690 O.2    42  PHE42      -0.2867
     17  CB        45.4820   56.6320  137.9590 C.3    42  PHE42       0.0534
     18  CG        44.1330   56.6690  138.6160 C.ar   42  PHE42      -0.0203
     19  CD1       43.6620   57.8350  139.1990 C.ar   42  PHE42      -0.0042
     20  CD2       43.3290   55.5410  138.6400 C.ar   42  PHE42      -0.0042
     21  CE1       42.4190   57.8730  139.8040 C.ar   42  PHE42      -0.0003
     22  CE2       42.0840   55.5730  139.2410 C.ar   42  PHE42      -0.0003
     23  CZ        41.6280   56.7400  139.8240 C.ar   42  PHE42      -0.0000
     24  N         40.1340   66.5390  130.6770 N.3    80  THR80      -0.1218
     25  CA        38.8250   66.0140  131.0850 C.3    80  THR80       0.1862
     26  C         38.0510   66.9620  131.9850 C.2    80  THR80       0.2287
     27  O         38.6290   67.6900  132.7770 O.2    80  THR80      -0.2866
     28  CB        38.8810   64.6120  131.7230 C.3    80  THR80       0.1770
     29  OG1       39.3940   64.6990  133.0530 O.3    80  THR80      -0.2211
     30  CG2       39.7320   63.6690  130.8890 C.3    80  THR80       0.0375
     31  N         35.7600   66.2420  134.4870 N.3    82  THR82      -0.1218
     32  CA        35.6970   65.8450  135.8920 C.3    82  THR82       0.1862
     33  C         36.9520   66.2570  136.6650 C.2    82  THR82       0.2287
     34  O         36.8850   66.6050  137.8440 O.2    82  THR82      -0.2866
     35  CB        35.4640   64.3230  136.0330 C.3    82  THR82       0.1770
     36  OG1       34.1420   63.9970  135.5790 O.3    82  THR82      -0.2211
     37  CG2       35.6190   63.8870  137.4830 C.3    82  THR82       0.0375
     38  N         29.1400   63.3140  133.9360 N.3   121  THR121     -0.1218
     39  CA        29.1650   62.5610  135.1830 C.3   121  THR121      0.1862
     40  C         28.3410   63.3040  136.2220 C.2   121  THR121      0.2287
     41  O         28.0400   64.4910  136.0700 O.2   121  THR121     -0.2866
     42  CB        30.5880   62.3670  135.7210 C.3   121  THR121      0.1770
     43  OG1       31.1380   63.6340  136.1050 O.3   121  THR121     -0.2211
     44  CG2       31.4780   61.7500  134.6460 C.3   121  THR121      0.0375
     45  N         29.3040   64.2230  139.0580 N.3   123  TYR123     -0.1241
     46  CA        30.1750   65.2860  139.5580 C.3   123  TYR123      0.1605
     47  C         30.0070   66.5470  138.7390 C.2   123  TYR123      0.2264
     48  O         29.7790   67.6330  139.2760 O.2   123  TYR123     -0.2867
     49  CB        31.6510   64.8940  139.4400 C.3   123  TYR123      0.0534
     50  CG        32.0740   63.7210  140.2800 C.ar  123  TYR123     -0.0201
     51  CD1       32.0490   63.7900  141.6650 C.ar  123  TYR123     -0.0009
     52  CD2       32.5270   62.5480  139.6860 C.ar  123  TYR123     -0.0009
     53  CE1       32.4450   62.7160  142.4390 C.ar  123  TYR123      0.0417
     54  CE2       32.9250   61.4690  140.4510 C.ar  123  TYR123      0.0417
     55  CZ        32.8820   61.5590  141.8280 C.ar  123  TYR123      0.1957
     56  OH        33.2770   60.4880  142.5960 O.3   123  TYR123     -0.2866
     57  N         27.9330   56.1420  131.8190 N.3   156  ILE156     -0.1231
     58  CA        29.2750   56.6210  131.4850 C.3   156  ILE156      0.1692
     59  C         30.3420   55.7150  132.1120 C.2   156  ILE156      0.2592
     60  O         31.2550   55.2530  131.4360 O.2   156  ILE156     -0.2718
     61  CB        29.4850   58.0670  131.9600 C.3   156  ILE156      0.0266
     62  CG1       28.7090   59.0260  131.0440 C.3   156  ILE156      0.0019
     63  CG2       30.9880   58.4080  132.0140 C.3   156  ILE156      0.0020
     64  CD1       28.5330   60.4400  131.6280 C.3   156  ILE156      0.0001
     65  N         30.2560   55.5270  133.4220 N.am  157  TYR157     -0.1976
     66  CA        31.2100   54.6900  134.1460 C.3   157  TYR157      0.1639
     67  C         31.1820   53.1910  133.8420 C.2   157  TYR157      0.2290
     68  O         32.2290   52.5670  133.7370 O.2   157  TYR157     -0.2864
     69  CB        31.1430   54.9590  135.6500 C.3   157  TYR157      0.0560
     70  CG        31.7720   56.2750  136.0210 C.ar  157  TYR157     -0.0198
     71  CD1       33.1480   56.4130  136.0650 C.ar  157  TYR157     -0.0009
     72  CD2       30.9960   57.3850  136.3100 C.ar  157  TYR157     -0.0009
     73  CE1       33.7300   57.6100  136.3920 C.ar  157  TYR157      0.0417
     74  CE2       31.5720   58.5850  136.6390 C.ar  157  TYR157      0.0417
     75  CZ        32.9350   58.6940  136.6790 C.ar  157  TYR157      0.1957
     76  OH        33.5230   59.8890  137.0060 O.3   157  TYR157     -0.2866
     77  N         32.7970   54.3120  129.0620 N.3   161  CYS161     -0.1235
     78  CA        34.2410   54.2990  129.2850 C.3   161  CYS161      0.1677
     79  C         34.8840   53.0160  128.7720 C.2   161  CYS161      0.2270
     80  O         36.1020   52.9490  128.5970 O.2   161  CYS161     -0.2867
     81  CB        34.5610   54.4800  130.7680 C.3   161  CYS161      0.0956
     82  SG        34.3470   56.1760  131.3330 S.3   161  CYS161     -0.0801
     83  N         31.3630   65.0720  128.5530 N.3   192  CYS192     -0.1235
     84  CA        32.5170   64.2690  128.1850 C.3   192  CYS192      0.1677
     85  C         32.2360   63.6420  126.8330 C.2   192  CYS192      0.2270
     86  O         31.0860   63.4550  126.4430 O.2   192  CYS192     -0.2867
     87  CB        32.8380   63.2060  129.2510 C.3   192  CYS192      0.0956
     88  SG        31.4490   62.1310  129.7320 S.3   192  CYS192     -0.0801
     89  N         32.6630   60.7490  125.6580 N.3   194  GLU194     -0.1245
     90  CA        32.0220   59.4360  125.7690 C.3   194  GLU194      0.1567
     91  C         30.5110   59.4770  125.4670 C.2   194  GLU194      0.2260
     92  O         29.9600   58.5600  124.8620 O.2   194  GLU194     -0.2867
     93  CB        32.2530   58.8550  127.1660 C.3   194  GLU194      0.0388
     94  CG        33.6730   58.3370  127.4300 C.3   194  GLU194      0.1160
     95  CD        34.6880   59.4400  127.6910 C.2   194  GLU194      0.3649
     96  OE1       34.2890   60.6170  127.8060 O.co2 194  GLU194     -0.2457
     97  OE2       35.8960   59.1260  127.7840 O.co2 194  GLU194     -0.2457
@<TRIPOS>BOND
     1    92    91    2
     2    91    90    1
     3    89    90    1
     4    90    93    1
     5    86    85    2
     6    85    84    1
     7    93    94    1
     8    10     9    2
     9    94    95    1
    10    95    97   ar
    11    95    96   ar
    12     9     8    1
    13     7     8    1
    14     8    11    1
    15    84    83    1
    16    84    87    1
    17    80    79    2
    18    79    78    1
    19    77    78    1
    20    87    88    1
    21    78    81    1
    22    11    12    1
    23     4     3    2
    24     6     5    1
    25    24    25    1
    26    81    82    1
    27    30    28    1
    28    62    64    1
    29    62    61    1
    30     3     2    1
    31    25    28    1
    32    25    26    1
    33    60    59    2
    34    58    57    1
    35    58    61    1
    36    58    59    1
    37    28    29    1
    38     5     2    1
    39    61    63    1
    40    26    27    2
    41    59    65   am
    42     2     1    1
    43    65    66    1
    44    68    67    2
    45    67    66    1
    46    38    39    1
    47    66    69    1
    48    31    32    1
    49    44    42    1
    50    39    42    1
    51    39    40    1
    52    36    35    1
    53    69    70    1
    54    42    43    1
    55    32    35    1
    56    32    33    1
    57    70    71   ar
    58    70    72   ar
    59    35    37    1
    60    71    73   ar
    61    41    40    2
    62    72    74   ar
    63    73    75   ar
    64    74    75   ar
    65    33    34    2
    66    75    76    1
    67    17    18    1
    68    17    14    1
    69    13    14    1
    70    18    20   ar
    71    18    19   ar
    72    20    22   ar
    73    47    48    2
    74    47    46    1
    75    14    15    1
    76    45    46    1
    77    19    21   ar
    78    22    23   ar
    79    49    46    1
    80    49    50    1
    81    52    50   ar
    82    52    54   ar
    83    21    23   ar
    84    15    16    2
    85    50    51   ar
    86    54    55   ar
    87    51    53   ar
    88    55    53   ar
    89    55    56    1
