@<TRIPOS>MOLECULE
tmp/3ojfA00.pdb
 174 167 0 0 0
SMALL
GASTEIGER

@<TRIPOS>ATOM
      1  N         62.2510   19.3510  130.1510 N.3    95  ALA95      -0.1231
      2  CA        62.0670   19.7360  128.7620 C.3    95  ALA95       0.1694
      3  C         61.9610   21.2730  128.6820 C.2    95  ALA95       0.2592
      4  O         61.5330   21.9240  129.6480 O.2    95  ALA95      -0.2718
      5  CB        60.8170   19.0900  128.1780 C.3    95  ALA95       0.0304
      6  N         62.4280   21.8260  127.5620 N.am   96  PHE96      -0.1962
      7  CA        62.2230   23.2170  127.2230 C.3    96  PHE96       0.1771
      8  C         62.3010   23.4390  125.7010 C.2    96  PHE96       0.2619
      9  O         63.1010   22.7970  125.0180 O.2    96  PHE96      -0.2715
     10  CB        63.1990   24.1330  127.9360 C.3    96  PHE96       0.0574
     11  CG        62.8610   25.5810  127.7640 C.ar   96  PHE96      -0.0200
     12  CD1       61.8760   26.1580  128.5540 C.ar   96  PHE96      -0.0042
     13  CD2       63.4740   26.3490  126.7630 C.ar   96  PHE96      -0.0042
     14  CE1       61.5140   27.5600  128.3820 C.ar   96  PHE96      -0.0003
     15  CE2       63.1350   27.6970  126.5640 C.ar   96  PHE96      -0.0003
     16  CZ        62.1490   28.3070  127.3680 C.ar   96  PHE96      -0.0000
     17  N         61.4390   24.2980  125.1840 N.am   97  ALA97      -0.1977
     18  CA        61.5550   24.8250  123.8470 C.3    97  ALA97       0.1597
     19  C         61.0290   26.2520  123.9080 C.2    97  ALA97       0.2287
     20  O         60.2390   26.5970  124.8080 O.2    97  ALA97      -0.2864
     21  CB        60.7150   24.0310  122.8920 C.3    97  ALA97       0.0319
     22  N         58.6070   29.0440  123.4390 N.3    99  ARG99      -0.1245
     23  CA        57.1410   28.9980  123.3630 C.3    99  ARG99       0.1563
     24  C         56.5380   29.3120  121.9820 C.2    99  ARG99       0.2260
     25  O         55.5170   28.7290  121.6100 O.2    99  ARG99      -0.2867
     26  CB        56.6170   29.9900  124.4140 C.3    99  ARG99       0.0307
     27  CG        55.1450   30.2140  124.4850 C.3    99  ARG99       0.0489
     28  CD        54.7130   30.2530  125.9600 C.3    99  ARG99       0.2205
     29  NE        53.5960   31.1710  126.2160 N.pl3  99  ARG99      -0.0865
     30  CZ        52.3520   31.0380  125.7460 C.cat  99  ARG99       0.5346
     31  NH1       52.0170   30.0210  124.9490 N.pl3  99  ARG99       0.1354
     32  NH2       51.4270   31.9380  126.0770 N.pl3  99  ARG99       0.1354
     33  N         55.9910   26.5550  119.5920 N.3   102  LEU102     -0.1245
     34  CA        54.9530   25.5290  119.8710 C.3   102  LEU102      0.1561
     35  C         53.5780   25.9490  119.3870 C.2   102  LEU102      0.2260
     36  O         52.5740   25.7720  120.0770 O.2   102  LEU102     -0.2867
     37  CB        54.8940   25.1290  121.3630 C.3   102  LEU102      0.0270
     38  CG        56.2560   24.6740  121.9060 C.3   102  LEU102      0.0019
     39  CD1       56.2160   24.5620  123.4870 C.3   102  LEU102      0.0001
     40  CD2       56.7050   23.3650  121.1470 C.3   102  LEU102      0.0001
     41  N         56.7760   11.8710  125.5350 N.3   147  TYR147     -0.1241
     42  CA        55.4500   12.0790  125.1080 C.3   147  TYR147      0.1605
     43  C         55.1970   11.4870  123.7130 C.2   147  TYR147      0.2264
     44  O         56.0830   11.5010  122.8190 O.2   147  TYR147     -0.2867
     45  CB        55.0740   13.5970  125.2270 C.3   147  TYR147      0.0534
     46  CG        53.6430   13.8550  124.7880 C.ar  147  TYR147     -0.0201
     47  CD1       52.5680   13.2970  125.4870 C.ar  147  TYR147     -0.0009
     48  CD2       53.3800   14.6240  123.6650 C.ar  147  TYR147     -0.0009
     49  CE1       51.2910   13.4640  125.0660 C.ar  147  TYR147      0.0417
     50  CE2       52.0930   14.8430  123.2330 C.ar  147  TYR147      0.0417
     51  CZ        51.0420   14.2600  123.9210 C.ar  147  TYR147      0.1957
     52  OH        49.7710   14.4470  123.4780 O.3   147  TYR147     -0.2866
     53  N         51.6290   15.5830  116.9860 N.3   154  VAL154     -0.1231
     54  CA        50.5690   16.1280  117.8550 C.3   154  VAL154      0.1692
     55  C         50.5720   17.5610  117.4620 C.2   154  VAL154      0.2592
     56  O         51.6270   18.1750  117.3520 O.2   154  VAL154     -0.2718
     57  CB        50.9340   15.9320  119.3640 C.3   154  VAL154      0.0266
     58  CG1       50.0760   16.8320  120.3560 C.3   154  VAL154      0.0020
     59  CG2       50.8970   14.4320  119.7280 C.3   154  VAL154      0.0020
     60  N         49.4020   18.1010  117.1920 N.am  155  LYS155     -0.1966
     61  CA        49.2600   19.5020  116.7930 C.3   155  LYS155      0.1728
     62  C         49.9930   20.4480  117.7410 C.2   155  LYS155      0.2616
     63  O         49.8500   20.3440  118.9480 O.2   155  LYS155     -0.2715
     64  CB        47.7820   19.8530  116.7610 C.3   155  LYS155      0.0311
     65  CG        47.3810   20.7020  115.5980 C.3   155  LYS155      0.0038
     66  CD        47.0120   22.1120  116.0230 C.3   155  LYS155      0.0206
     67  CE        46.3890   22.8890  114.8730 C.3   155  LYS155      0.1093
     68  NZ        47.3490   23.1030  113.7440 N.3   155  LYS155     -0.1314
     69  N         50.7260   21.3870  117.1400 N.am  156  ASN156     -0.1958
     70  CA        51.5720   22.4030  117.8220 C.3   156  ASN156      0.1819
     71  C         52.8120   21.9020  118.6150 C.2   156  ASN156      0.2621
     72  O         53.5980   22.7270  119.1020 O.2   156  ASN156     -0.2715
     73  CB        50.7250   23.2660  118.7950 C.3   156  ASN156      0.1195
     74  CG        49.6480   24.0400  118.0760 C.2   156  ASN156      0.2630
     75  OD1       49.8670   24.5290  116.9890 O.2   156  ASN156     -0.2716
     76  ND2       48.4520   24.0880  118.6600 N.am  156  ASN156     -0.0877
     77  N         52.9720   20.5860  118.7770 N.am  157  TYR157     -0.1974
     78  CA        54.1090   20.0810  119.5730 C.3   157  TYR157      0.1639
     79  C         55.4120   20.3200  118.7960 C.2   157  TYR157      0.2290
     80  O         56.4300   20.6380  119.3750 O.2   157  TYR157     -0.2864
     81  CB        53.8910   18.6080  119.8830 C.3   157  TYR157      0.0560
     82  CG        54.6380   18.1340  121.0900 C.ar  157  TYR157     -0.0198
     83  CD1       54.4870   18.7550  122.3400 C.ar  157  TYR157     -0.0009
     84  CD2       55.4720   17.0160  120.9960 C.ar  157  TYR157     -0.0009
     85  CE1       55.1780   18.2840  123.4570 C.ar  157  TYR157      0.0417
     86  CE2       56.1570   16.5410  122.1050 C.ar  157  TYR157      0.0417
     87  CZ        56.0070   17.1780  123.3220 C.ar  157  TYR157      0.1957
     88  OH        56.6970   16.6860  124.3910 O.3   157  TYR157     -0.2866
     89  N         59.1230   20.3090  119.8670 N.3   160  MET160     -0.1245
     90  CA        59.3560   19.4010  121.0000 C.3   160  MET160      0.1570
     91  C         59.1410   17.9580  120.5500 C.2   160  MET160      0.2261
     92  O         59.6180   17.0400  121.1920 O.2   160  MET160     -0.2867
     93  CB        58.4070   19.7090  122.1460 C.3   160  MET160      0.0387
     94  CG        58.8790   20.8570  123.0250 C.3   160  MET160      0.0595
     95  SD        60.3930   20.4820  123.9240 S.3   160  MET160     -0.1393
     96  CE        60.0800   18.8390  124.5470 C.3   160  MET160      0.0692
     97  N         61.6610   14.9970  121.2910 N.3   164  LYS164     -0.1245
     98  CA        61.2970   13.7250  121.9420 C.3   164  LYS164      0.1561
     99  C         61.6880   12.5210  121.0890 C.2   164  LYS164      0.2260
    100  O         62.0500   11.4970  121.6370 O.2   164  LYS164     -0.2867
    101  CB        59.8130   13.6420  122.4120 C.3   164  LYS164      0.0271
    102  CG        59.4050   14.6750  123.4600 C.3   164  LYS164      0.0035
    103  CD        60.1570   14.6050  124.7770 C.3   164  LYS164      0.0206
    104  CE        59.3830   15.2850  125.8970 C.3   164  LYS164      0.1093
    105  NZ        60.1370   15.2640  127.2080 N.3   164  LYS164     -0.1314
    106  N         48.9240   13.4890  128.7160 N.3   192  PRO192     -0.2102
    107  CA        48.8320   14.9220  128.9880 C.3   192  PRO192      0.1504
    108  C         48.3930   15.0910  130.4490 C.2   192  PRO192      0.2575
    109  O         47.3920   14.4490  130.8760 O.2   192  PRO192     -0.2718
    110  CB        47.6790   15.3750  128.0510 C.3   192  PRO192      0.0282
    111  CG        47.8500   14.3710  126.8590 C.3   192  PRO192      0.0208
    112  CD        47.9950   13.0640  127.6410 C.3   192  PRO192      0.0893
    113  N         49.0870   15.9590  131.1650 N.am  193  ILE193     -0.1980
    114  CA        48.8390   16.2200  132.5440 C.3   193  ILE193      0.1595
    115  C         48.9890   17.7220  132.7080 C.2   193  ILE193      0.2287
    116  O         49.8800   18.3500  132.1090 O.2   193  ILE193     -0.2864
    117  CB        49.9090   15.5210  133.4570 C.3   193  ILE193      0.0276
    118  CG1       49.7820   14.0010  133.3410 C.3   193  ILE193      0.0022
    119  CG2       49.7130   15.9140  134.9090 C.3   193  ILE193      0.0022
    120  CD1       50.8650   13.2320  134.0840 C.3   193  ILE193      0.0001
    121  N         53.0120   23.1460  134.8120 N.3   196  LEU196     -0.1231
    122  CA        53.5130   24.3330  134.1840 C.3   196  LEU196      0.1693
    123  C         53.8270   24.1360  132.7030 C.2   196  LEU196      0.2593
    124  O         53.7880   25.0930  131.9340 O.2   196  LEU196     -0.2718
    125  CB        54.8030   24.7620  134.8580 C.3   196  LEU196      0.0284
    126  CG        54.5870   25.3920  136.2220 C.3   196  LEU196      0.0019
    127  CD1       55.8510   25.2360  137.0060 C.3   196  LEU196      0.0001
    128  CD2       54.1880   26.8730  136.1450 C.3   196  LEU196      0.0001
    129  N         54.2250   22.9250  132.3130 N.am  197  SER197     -0.1938
    130  CA        54.6650   22.7440  130.9100 C.3   197  SER197      0.2055
    131  C         53.4810   22.5600  129.9870 C.2   197  SER197      0.2643
    132  O         53.6490   22.3880  128.8020 O.2   197  SER197     -0.2714
    133  CB        55.7230   21.6580  130.7740 C.3   197  SER197      0.2130
    134  OG        56.9280   22.1990  131.2920 O.3   197  SER197     -0.2179
    135  N         52.2820   22.6440  130.5620 N.am  198  ALA198     -0.1963
    136  CA        51.0390   22.6010  129.8060 C.3   198  ALA198      0.1728
    137  C         50.3780   23.9680  129.7210 C.2   198  ALA198      0.2616
    138  O         49.3600   24.1120  129.0600 O.2   198  ALA198     -0.2715
    139  CB        50.0560   21.5810  130.3940 C.3   198  ALA198      0.0334
    140  N         50.9530   24.9640  130.3880 N.am  199  LYS199     -0.1977
    141  CA        50.4310   26.3430  130.3340 C.3   199  LYS199      0.1596
    142  C         50.8270   27.0130  129.0260 C.2   199  LYS199      0.2287
    143  O         52.0170   27.1050  128.6650 O.2   199  LYS199     -0.2864
    144  CB        50.8330   27.1640  131.5730 C.3   199  LYS199      0.0298
    145  CG        50.1060   26.6910  132.8330 C.3   199  LYS199      0.0038
    146  CD        50.0990   27.7280  133.9550 C.3   199  LYS199      0.0206
    147  CE        49.2910   27.2060  135.1480 C.3   199  LYS199      0.1093
    148  NZ        48.3180   28.1990  135.7380 N.3   199  LYS199     -0.1314
    149  N         49.2040   25.9770  126.1020 N.3   201  VAL201     -0.1245
    150  CA        48.7560   25.1550  124.9770 C.3   201  VAL201      0.1561
    151  C         47.2750   25.3800  124.7050 C.2   201  VAL201      0.2260
    152  O         46.4080   25.3520  125.6190 O.2   201  VAL201     -0.2867
    153  CB        49.1210   23.6150  125.0390 C.3   201  VAL201      0.0252
    154  CG1       50.2150   23.3310  126.0520 C.3   201  VAL201      0.0019
    155  CG2       47.8740   22.7340  125.2400 C.3   201  VAL201      0.0019
    156  N         43.9700   22.9720  126.2570 N.3   204  PHE204     -0.1241
    157  CA        44.4610   21.8850  127.0640 C.3   204  PHE204      0.1605
    158  C         43.2390   21.1960  127.6420 C.2   204  PHE204      0.2264
    159  O         43.1470   19.9680  127.5760 O.2   204  PHE204     -0.2867
    160  CB        45.5270   22.2870  128.0830 C.3   204  PHE204      0.0534
    161  CG        46.3970   21.1290  128.5240 C.ar  204  PHE204     -0.0203
    162  CD1       47.4230   20.6590  127.7080 C.ar  204  PHE204     -0.0042
    163  CD2       46.1360   20.4670  129.7170 C.ar  204  PHE204     -0.0042
    164  CE1       48.1790   19.5680  128.1020 C.ar  204  PHE204     -0.0003
    165  CE2       46.8890   19.3810  130.1080 C.ar  204  PHE204     -0.0003
    166  CZ        47.9120   18.9370  129.3290 C.ar  204  PHE204     -0.0000
    167  N         41.7840   18.8280  125.1140 N.3   207  ILE207     -0.1245
    168  CA        42.6920   17.6690  125.0790 C.3   207  ILE207      0.1561
    169  C         42.3300   16.6770  126.1890 C.2   207  ILE207      0.2260
    170  O         42.0140   15.5170  125.9130 O.2   207  ILE207     -0.2867
    171  CB        44.1690   18.0720  125.2580 C.3   207  ILE207      0.0252
    172  CG1       44.5090   19.1940  124.2600 C.3   207  ILE207      0.0019
    173  CG2       45.0740   16.8480  125.2480 C.3   207  ILE207      0.0019
    174  CD1       45.8820   19.1450  123.5050 C.3   207  ILE207      0.0001
@<TRIPOS>BOND
     1    68    67    1
     2    67    66    1
     3    65    66    1
     4    65    64    1
     5    64    61    1
     6    61    60    1
     7    61    62    1
     8    53    54    1
     9    75    74    2
    10    69    62   am
    11    69    70    1
    12    60    55   am
    13    56    55    2
    14    55    54    1
    15    62    63    2
    16    70    71    1
    17    70    73    1
    18    54    57    1
    19    74    76   am
    20    74    73    1
    21    71    77   am
    22    71    72    2
    23    77    78    1
    24    79    80    2
    25    79    78    1
    26    57    59    1
    27    57    58    1
    28    35    34    1
    29    35    36    2
    30    78    81    1
    31    33    34    1
    32    89    90    1
    33    34    37    1
    34    81    82    1
    35    91    90    1
    36    91    92    2
    37    84    82   ar
    38    84    86   ar
    39    90    93    1
    40    99   100    2
    41    99    98    1
    42    82    83   ar
    43    40    38    1
    44    97    98    1
    45    37    38    1
    46    25    24    2
    47    38    39    1
    48    98   101    1
    49    24    23    1
    50    86    87   ar
    51    93    94    1
    52    83    85   ar
    53   101   102    1
    54    44    43    2
    55    21    18    1
    56    94    95    1
    57    50    48   ar
    58    50    51   ar
    59    87    85   ar
    60    87    88    1
    61    23    22    1
    62    23    26    1
    63   102   103    1
    64    52    51    1
    65   174   172    1
    66    48    46   ar
    67    43    42    1
    68    18    19    1
    69    18    17    1
    70    19    20    2
    71    51    49   ar
    72    95    96    1
    73   172   171    1
    74    26    27    1
    75    27    28    1
    76   151   150    1
    77   151   152    2
    78   103   104    1
    79    46    45    1
    80    46    47   ar
    81    31    30    1
    82   150   153    1
    83   150   149    1
    84     9     8    2
    85   153   155    1
    86   153   154    1
    87    49    47   ar
    88   168   167    1
    89   168   171    1
    90   168   169    1
    91    42    45    1
    92    42    41    1
    93    17     8   am
    94   173   171    1
    95     8     7    1
    96    30    32    1
    97    30    29    2
    98   104   105    1
    99   170   169    2
   100    28    29    1
   101   156   157    1
   102    15    13   ar
   103    15    16   ar
   104    13    11   ar
   105   111   112    1
   106   111   110    1
   107   157   158    1
   108   157   160    1
   109     7     6    1
   110     7    10    1
   111    16    14   ar
   112     6     3   am
   113   159   158    2
   114   112   106    1
   115   162   164   ar
   116   162   161   ar
   117    11    10    1
   118    11    12   ar
   119   110   107    1
   120   160   161    1
   121   164   166   ar
   122     5     2    1
   123    14    12   ar
   124   161   163   ar
   125   143   142    2
   126     3     2    1
   127     3     4    2
   128   106   107    1
   129     2     1    1
   130   132   131    2
   131   107   108    1
   132   142   141    1
   133   138   137    2
   134   166   165   ar
   135   163   165   ar
   136   137   136    1
   137   137   140   am
   138   136   139    1
   139   136   135    1
   140   131   135   am
   141   131   130    1
   142   141   140    1
   143   141   144    1
   144   108   109    2
   145   108   113   am
   146   133   130    1
   147   133   134    1
   148   130   129    1
   149   113   114    1
   150   144   145    1
   151   124   123    2
   152   116   115    2
   153   129   123   am
   154   114   115    1
   155   114   117    1
   156   123   122    1
   157   145   146    1
   158   118   117    1
   159   118   120    1
   160   117   119    1
   161   146   147    1
   162   122   121    1
   163   122   125    1
   164   125   126    1
   165   147   148    1
   166   128   126    1
   167   126   127    1
