@<TRIPOS>MOLECULE
tmp/3ojgA00.pdb
 149 144 0 0 0
SMALL
GASTEIGER

@<TRIPOS>ATOM
      1  N         11.6030   -1.0930  -19.0180 N.3    23  HIS23      -0.1241
      2  CA        10.7260   -0.4390  -19.9860 C.3    23  HIS23       0.1621
      3  C         10.0240    0.7530  -19.3670 C.2    23  HIS23       0.2264
      4  O          9.2750    0.5990  -18.3980 O.2    23  HIS23      -0.2867
      5  CB         9.6410   -1.4070  -20.4650 C.3    23  HIS23       0.0745
      6  CG        10.1750   -2.6560  -21.0860 C.ar   23  HIS23       0.0817
      7  ND1       10.4170   -2.7680  -22.4380 N.ar   23  HIS23      -0.2268
      8  CD2       10.5090   -3.8470  -20.5420 C.ar   23  HIS23       0.1154
      9  CE1       10.8790   -3.9770  -22.7000 C.ar   23  HIS23       0.1986
     10  NE2       10.9520   -4.6480  -21.5650 N.ar   23  HIS23      -0.2212
     11  N          5.4260    0.1660  -22.3980 N.3    26  PHE26      -0.1241
     12  CA         5.2740   -1.1280  -23.0660 C.3    26  PHE26       0.1605
     13  C          3.8050   -1.4610  -23.2770 C.2    26  PHE26       0.2264
     14  O          2.9980   -1.2940  -22.3710 O.2    26  PHE26      -0.2867
     15  CB         5.9270   -2.2530  -22.2620 C.3    26  PHE26       0.0534
     16  CG         5.8410   -3.6010  -22.9360 C.ar   26  PHE26      -0.0203
     17  CD1        4.7250   -4.4080  -22.7770 C.ar   26  PHE26      -0.0042
     18  CD2        6.8760   -4.0520  -23.7340 C.ar   26  PHE26      -0.0042
     19  CE1        4.6440   -5.6380  -23.4080 C.ar   26  PHE26      -0.0003
     20  CE2        6.8130   -5.2740  -24.3610 C.ar   26  PHE26      -0.0003
     21  CZ         5.6930   -6.0770  -24.2020 C.ar   26  PHE26      -0.0000
     22  N          1.3120   -4.7030  -25.1530 N.3    28  TYR28      -0.1241
     23  CA         1.1380   -5.8960  -25.9700 C.3    28  TYR28       0.1605
     24  C          0.4660   -5.5250  -27.2840 C.2    28  TYR28       0.2264
     25  O         -0.5260   -4.7920  -27.2930 O.2    28  TYR28      -0.2867
     26  CB         0.3200   -6.9730  -25.2360 C.3    28  TYR28       0.0534
     27  CG         1.1080   -7.7120  -24.1760 C.ar   28  TYR28      -0.0201
     28  CD1        2.1940   -8.5080  -24.5250 C.ar   28  TYR28      -0.0009
     29  CD2        0.7800   -7.5990  -22.8310 C.ar   28  TYR28      -0.0009
     30  CE1        2.9300   -9.1850  -23.5660 C.ar   28  TYR28       0.0417
     31  CE2        1.5100   -8.2710  -21.8630 C.ar   28  TYR28       0.0417
     32  CZ         2.5860   -9.0600  -22.2400 C.ar   28  TYR28       0.1957
     33  OH         3.3230   -9.7300  -21.2940 O.3    28  TYR28      -0.2866
     34  N          9.4220   -8.1480  -31.3010 N.3    97  TYR97      -0.1241
     35  CA         9.2080   -9.1830  -30.2690 C.3    97  TYR97       0.1605
     36  C          9.1340  -10.6150  -30.8210 C.2    97  TYR97       0.2264
     37  O          9.1650  -10.8470  -32.0390 O.2    97  TYR97      -0.2867
     38  CB         7.9420   -8.8390  -29.4780 C.3    97  TYR97       0.0534
     39  CG         7.9210   -9.2410  -28.0110 C.ar   97  TYR97      -0.0201
     40  CD1        9.0890   -9.3570  -27.2720 C.ar   97  TYR97      -0.0009
     41  CD2        6.7100   -9.4750  -27.3740 C.ar   97  TYR97      -0.0009
     42  CE1        9.0420   -9.7090  -25.9190 C.ar   97  TYR97       0.0417
     43  CE2        6.6530   -9.8300  -26.0400 C.ar   97  TYR97       0.0417
     44  CZ         7.8150   -9.9420  -25.3180 C.ar   97  TYR97       0.1957
     45  OH         7.7400  -10.3000  -23.9860 O.3    97  TYR97      -0.2866
     46  N         14.7660  -10.1950  -14.7040 N.3   227  ARG227     -0.1245
     47  CA        13.3580  -10.1840  -14.3380 C.3   227  ARG227      0.1563
     48  C         13.1310  -10.3020  -12.8310 C.2   227  ARG227      0.2260
     49  O         12.1500  -10.8930  -12.3900 O.2   227  ARG227     -0.2867
     50  CB        12.5970  -11.2970  -15.0670 C.3   227  ARG227      0.0307
     51  CG        12.5380  -11.0960  -16.5790 C.3   227  ARG227      0.0489
     52  CD        11.7340  -12.1810  -17.2700 C.3   227  ARG227      0.2205
     53  NE        10.9650  -11.6370  -18.3890 N.pl3 227  ARG227     -0.0865
     54  CZ        10.2600  -12.3700  -19.2470 C.cat 227  ARG227      0.5346
     55  NH1       10.2170  -13.6900  -19.1190 N.pl3 227  ARG227      0.1354
     56  NH2        9.5970  -11.7830  -20.2330 N.pl3 227  ARG227      0.1354
     57  N          9.4990  -10.3050  -10.9220 N.3   230  ILE230     -0.1245
     58  CA         8.4580  -11.0510  -11.6130 C.3   230  ILE230      0.1561
     59  C          8.3630  -12.4680  -11.0660 C.2   230  ILE230      0.2260
     60  O          9.2750  -13.2790  -11.2480 O.2   230  ILE230     -0.2867
     61  CB         8.7130  -11.1170  -13.1270 C.3   230  ILE230      0.0252
     62  CG1        8.8260   -9.7080  -13.7000 C.3   230  ILE230      0.0019
     63  CG2        7.5890  -11.8720  -13.8150 C.3   230  ILE230      0.0019
     64  CD1        9.0830   -9.6930  -15.1930 C.3   230  ILE230      0.0001
     65  N          4.1560  -15.3210  -12.8690 N.3   233  MET233     -0.1230
     66  CA         3.5920  -15.0070  -14.1780 C.3   233  MET233      0.1702
     67  C          4.6160  -15.3200  -15.2620 C.2   233  MET233      0.2592
     68  O          5.7940  -15.5120  -14.9640 O.2   233  MET233     -0.2718
     69  CB         3.1590  -13.5430  -14.2510 C.3   233  MET233      0.0401
     70  CG         2.1170  -13.1680  -13.2140 C.3   233  MET233      0.0596
     71  SD         1.2580  -11.6380  -13.6180 S.3   233  MET233     -0.1393
     72  CE         0.4950  -12.0740  -15.1820 C.3   233  MET233      0.0692
     73  N          4.1640  -15.3640  -16.5130 N.am  234  VAL234     -0.1980
     74  CA         5.0170  -15.7300  -17.6480 C.3   234  VAL234      0.1595
     75  C          5.9690  -16.8940  -17.3420 C.2   234  VAL234      0.2287
     76  O          7.0860  -16.9540  -17.8640 O.2   234  VAL234     -0.2864
     77  CB         5.7990  -14.5130  -18.2220 C.3   234  VAL234      0.0276
     78  CG1        4.8490  -13.5480  -18.9170 C.3   234  VAL234      0.0022
     79  CG2        6.5920  -13.7990  -17.1350 C.3   234  VAL234      0.0022
     80  N         13.2330   -5.7080  -15.7020 N.3   263  ASN263     -0.1240
     81  CA        12.2620   -5.7620  -16.7970 C.3   263  ASN263      0.1653
     82  C         10.9440   -5.0630  -16.4430 C.2   263  ASN263      0.2266
     83  O          9.8680   -5.5170  -16.8500 O.2   263  ASN263     -0.2867
     84  CB        11.9700   -7.2120  -17.1800 C.3   263  ASN263      0.1155
     85  CG        11.3390   -7.3410  -18.5430 C.2   263  ASN263      0.2627
     86  OD1       11.6260   -6.5580  -19.4420 O.2   263  ASN263     -0.2716
     87  ND2       10.4760   -8.3450  -18.7110 N.am  263  ASN263     -0.0877
     88  N          7.7400   -2.5480  -16.3370 N.3   265  VAL265     -0.1245
     89  CA         6.9210   -1.7980  -17.2720 C.3   265  VAL265      0.1561
     90  C          6.3160   -0.6680  -16.4520 C.2   265  VAL265      0.2260
     91  O          5.4030   -0.8790  -15.6550 O.2   265  VAL265     -0.2867
     92  CB         5.8120   -2.6630  -17.8980 C.3   265  VAL265      0.0252
     93  CG1        4.8950   -1.8050  -18.7640 C.3   265  VAL265      0.0019
     94  CG2        6.4270   -3.7900  -18.7280 C.3   265  VAL265      0.0019
     95  N          1.9670    1.1090  -18.6940 N.3   268  TRP268     -0.1241
     96  CA         1.3640    0.1660  -19.6210 C.3   268  TRP268      0.1605
     97  C          0.5560    0.9120  -20.6750 C.2   268  TRP268      0.2264
     98  O         -0.2620    1.7590  -20.3550 O.2   268  TRP268     -0.2867
     99  CB         0.4630   -0.8300  -18.8880 C.3   268  TRP268      0.0550
    100  CG         1.2040   -1.9220  -18.1930 C.ar  268  TRP268      0.0003
    101  CD1        1.6510   -1.9200  -16.8990 C.ar  268  TRP268      0.0946
    102  CD2        1.5860   -3.1830  -18.7470 C.ar  268  TRP268      0.0152
    103  NE1        2.2820   -3.1060  -16.6160 N.ar  268  TRP268     -0.2442
    104  CE2        2.2630   -3.8970  -17.7350 C.ar  268  TRP268      0.0810
    105  CE3        1.4280   -3.7810  -20.0050 C.ar  268  TRP268      0.0012
    106  CZ2        2.7740   -5.1780  -17.9370 C.ar  268  TRP268      0.0191
    107  CZ3        1.9350   -5.0590  -20.2010 C.ar  268  TRP268      0.0001
    108  CH2        2.6000   -5.7400  -19.1750 C.ar  268  TRP268      0.0015
    109  N         -5.2810   -1.8340  -15.8960 N.3   273  PHE273     -0.1241
    110  CA        -5.7600   -3.0940  -15.3520 C.3   273  PHE273      0.1605
    111  C         -5.2270   -3.2900  -13.9400 C.2   273  PHE273      0.2264
    112  O         -4.2750   -2.6270  -13.5300 O.2   273  PHE273     -0.2867
    113  CB        -5.3450   -4.2630  -16.2460 C.3   273  PHE273      0.0534
    114  CG        -3.8500   -4.4210  -16.3910 C.ar  273  PHE273     -0.0203
    115  CD1       -3.1440   -5.2540  -15.5430 C.ar  273  PHE273     -0.0042
    116  CD2       -3.1580   -3.7310  -17.3760 C.ar  273  PHE273     -0.0042
    117  CE1       -1.7740   -5.3990  -15.6730 C.ar  273  PHE273     -0.0003
    118  CE2       -1.7880   -3.8650  -17.5080 C.ar  273  PHE273     -0.0003
    119  CZ        -1.0960   -4.7070  -16.6600 C.ar  273  PHE273     -0.0000
    120  N         -3.9810   -6.5370  -11.4580 N.3   275  LEU275     -0.1245
    121  CA        -3.7090   -7.9560  -11.3220 C.3   275  LEU275      0.1561
    122  C         -4.6190   -8.5550  -10.2590 C.2   275  LEU275      0.2260
    123  O         -4.8290   -7.9500   -9.2040 O.2   275  LEU275     -0.2867
    124  CB        -2.2470   -8.1930  -10.9340 C.3   275  LEU275      0.0270
    125  CG        -1.1700   -7.8050  -11.9470 C.3   275  LEU275      0.0019
    126  CD1        0.2210   -8.0440  -11.3720 C.3   275  LEU275      0.0001
    127  CD2       -1.3620   -8.5700  -13.2570 C.3   275  LEU275      0.0001
    128  N          3.6770  -10.4600   -7.3610 N.3   283  MET283     -0.1245
    129  CA         4.3360   -9.4630   -8.2040 C.3   283  MET283      0.1570
    130  C          4.5900   -8.1370   -7.4910 C.2   283  MET283      0.2261
    131  O          5.0080   -7.1680   -8.1160 O.2   283  MET283     -0.2867
    132  CB         3.4880   -9.1870   -9.4500 C.3   283  MET283      0.0387
    133  CG         3.2620  -10.3880  -10.3400 C.3   283  MET283      0.0595
    134  SD         4.6900  -10.7930  -11.3580 S.3   283  MET283     -0.1393
    135  CE         5.0060   -9.2130  -12.1370 C.3   283  MET283      0.0692
    136  N          7.8330   -6.0710   -8.0190 N.3   286  TRP286     -0.1241
    137  CA         8.2520   -5.7610   -9.3830 C.3   286  TRP286      0.1605
    138  C          8.2660   -4.2460   -9.6260 C.2   286  TRP286      0.2264
    139  O          7.3070   -3.6740  -10.1550 O.2   286  TRP286     -0.2867
    140  CB         7.3340   -6.4670  -10.3750 C.3   286  TRP286      0.0550
    141  CG         7.7810   -6.3940  -11.8040 C.ar  286  TRP286      0.0003
    142  CD1        9.0550   -6.4850  -12.2720 C.ar  286  TRP286      0.0946
    143  CD2        6.9370   -6.2540  -12.9510 C.ar  286  TRP286      0.0152
    144  NE1        9.0620   -6.3960  -13.6470 N.ar  286  TRP286     -0.2442
    145  CE2        7.7710   -6.2530  -14.0840 C.ar  286  TRP286      0.0810
    146  CE3        5.5550   -6.1220  -13.1290 C.ar  286  TRP286      0.0012
    147  CZ2        7.2700   -6.1280  -15.3820 C.ar  286  TRP286      0.0191
    148  CZ3        5.0580   -6.0000  -14.4160 C.ar  286  TRP286      0.0001
    149  CH2        5.9110   -6.0040  -15.5230 C.ar  286  TRP286      0.0015
@<TRIPOS>BOND
     1    37    36    2
     2    34    35    1
     3    36    35    1
     4    35    38    1
     5    38    39    1
     6    39    41   ar
     7    39    40   ar
     8    41    43   ar
     9    25    24    2
    10    24    23    1
    11    40    42   ar
    12    43    44   ar
    13    23    26    1
    14    23    22    1
    15    42    44   ar
    16    44    45    1
    17    26    27    1
    18    28    27   ar
    19    28    30   ar
    20    20    21   ar
    21    20    18   ar
    22    21    19   ar
    23    27    29   ar
    24    18    16   ar
    25    30    32   ar
    26    19    17   ar
    27    13    12    1
    28    13    14    2
    29    12    11    1
    30    12    15    1
    31    16    17   ar
    32    16    15    1
    33    29    31   ar
    34     9     7   ar
    35     9    10   ar
    36     7     6   ar
    37    32    31   ar
    38    32    33    1
    39    10     8   ar
    40     6     8   ar
    41     6     5    1
    42    97    98    2
    43    97    96    1
    44     5     2    1
    45    56    54    1
    46   107   105   ar
    47   107   108   ar
    48   105   102   ar
    49     2     3    1
    50     2     1    1
    51    96    99    1
    52    96    95    1
    53    86    85    2
    54     3     4    2
    55    54    55    1
    56    54    53    2
    57   108   106   ar
    58    78    77    1
    59    99   100    1
    60    93    92    1
    61   102   100   ar
    62   102   104   ar
    63    94    92    1
    64    87    85   am
    65    85    84    1
    66    53    52    1
    67    77    74    1
    68    77    79    1
    69   100   101   ar
    70   106   104   ar
    71    92    89    1
    72    76    75    2
    73   104   103   ar
    74    74    75    1
    75    74    73    1
    76   118   116   ar
    77   118   119   ar
    78   116   114   ar
    79    89    90    1
    80    89    88    1
    81    52    51    1
    82    84    81    1
    83   101   103   ar
    84    83    82    2
    85    81    82    1
    86    81    80    1
    87   119   117   ar
    88    51    50    1
    89    73    67   am
    90    90    91    2
    91   114   113    1
    92   114   115   ar
    93   113   110    1
    94   109   110    1
    95   117   115   ar
    96   149   147   ar
    97   149   148   ar
    98   147   145   ar
    99   110   111    1
   100    67    68    2
   101    67    66    1
   102    64    62    1
   103    72    71    1
   104    50    47    1
   105    46    47    1
   106   148   146   ar
   107    47    48    1
   108    69    66    1
   109    69    70    1
   110    66    65    1
   111   145   144   ar
   112   145   143   ar
   113   111   112    2
   114    63    61    1
   115    62    61    1
   116   144   142   ar
   117    71    70    1
   118   127   125    1
   119   146   143   ar
   120    61    58    1
   121   143   141   ar
   122    48    49    2
   123   142   141   ar
   124   135   134    1
   125   125   126    1
   126   125   124    1
   127   141   140    1
   128    58    59    1
   129    58    57    1
   130   120   121    1
   131   134   133    1
   132   121   124    1
   133   121   122    1
   134    60    59    2
   135   140   137    1
   136   133   132    1
   137   122   123    2
   138   139   138    2
   139   138   137    1
   140   132   129    1
   141   137   136    1
   142   129   130    1
   143   129   128    1
   144   131   130    2
