@<TRIPOS>MOLECULE
tmp/3ojuA00.pdb
 187 181 0 0 0
SMALL
GASTEIGER

@<TRIPOS>ATOM
      1  N         24.3100  -30.3300  -11.1630 N.3   280  ARG280     -0.1245
      2  CA        25.0460  -29.1260  -11.5150 C.3   280  ARG280      0.1563
      3  C         26.5160  -29.4720  -11.6970 C.2   280  ARG280      0.2260
      4  O         27.0100  -30.4420  -11.1210 O.2   280  ARG280     -0.2867
      5  CB        24.9130  -28.0680  -10.4150 C.3   280  ARG280      0.0307
      6  CG        23.6630  -27.1980  -10.4900 C.3   280  ARG280      0.0489
      7  CD        23.7280  -26.1140   -9.4200 C.3   280  ARG280      0.2205
      8  NE        22.7050  -25.0850   -9.5750 N.pl3 280  ARG280     -0.0865
      9  CZ        22.7450  -23.9100   -8.9550 C.cat 280  ARG280      0.5346
     10  NH1       23.7650  -23.6260   -8.1590 N.pl3 280  ARG280      0.1354
     11  NH2       21.7800  -23.0180   -9.1370 N.pl3 280  ARG280      0.1354
     12  N         29.9550   -9.8510   -7.8890 N.3   293  VAL293     -0.1231
     13  CA        29.1550   -9.0300   -8.7860 C.3   293  VAL293      0.1692
     14  C         28.1560   -8.1370   -8.0370 C.2   293  VAL293      0.2591
     15  O         27.6230   -7.1840   -8.6060 O.2   293  VAL293     -0.2718
     16  CB        28.3860   -9.9160   -9.7900 C.3   293  VAL293      0.0266
     17  CG1       27.2540  -10.6590   -9.0900 C.3   293  VAL293      0.0020
     18  CG2       27.8550   -9.0820  -10.9440 C.3   293  VAL293      0.0020
     19  N         27.9160   -8.4310   -6.7600 N.am  294  ARG294     -0.1980
     20  CA        26.8460   -7.7770   -6.0070 C.3   294  ARG294      0.1597
     21  C         27.1920   -6.3640   -5.5310 C.2   294  ARG294      0.2287
     22  O         26.4440   -5.4240   -5.7940 O.2   294  ARG294     -0.2864
     23  CB        26.4460   -8.6320   -4.8070 C.3   294  ARG294      0.0334
     24  CG        25.1690   -8.1800   -4.1100 C.3   294  ARG294      0.0492
     25  CD        24.8610   -9.0910   -2.9370 C.3   294  ARG294      0.2205
     26  NE        26.0660   -9.8000   -2.5160 N.pl3 294  ARG294     -0.0865
     27  CZ        26.7310   -9.5700   -1.3890 C.cat 294  ARG294      0.5346
     28  NH1       26.3050   -8.6570   -0.5240 N.pl3 294  ARG294      0.1354
     29  NH2       27.8230  -10.2690   -1.1150 N.pl3 294  ARG294      0.1354
     30  N         21.9310  -15.7010  -20.1810 N.3   317  ASP317     -0.1225
     31  CA        21.3890  -15.9940  -18.8550 C.3   317  ASP317      0.1805
     32  C         19.9270  -16.4350  -18.9680 C.2   317  ASP317      0.2598
     33  O         19.0870  -15.6510  -19.4010 O.2   317  ASP317     -0.2718
     34  CB        21.4660  -14.7210  -18.0050 C.3   317  ASP317      0.1424
     35  CG        21.5060  -15.0050  -16.5210 C.2   317  ASP317      0.3668
     36  OD1       20.6660  -15.7870  -16.0430 O.co2 317  ASP317     -0.2456
     37  OD2       22.3830  -14.4430  -15.8320 O.co2 317  ASP317     -0.2456
     38  N         19.6090  -17.6740  -18.5940 N.am  318  TYR318     -0.1962
     39  CA        18.2070  -18.1060  -18.5940 C.3   318  TYR318      0.1771
     40  C         17.4350  -17.2880  -17.5730 C.2   318  TYR318      0.2620
     41  O         17.8300  -17.2110  -16.4230 O.2   318  TYR318     -0.2715
     42  CB        18.0530  -19.5880  -18.2390 C.3   318  TYR318      0.0574
     43  CG        18.3120  -20.5610  -19.3670 C.ar  318  TYR318     -0.0198
     44  CD1       17.3400  -20.8240  -20.3290 C.ar  318  TYR318     -0.0009
     45  CD2       19.5150  -21.2430  -19.4490 C.ar  318  TYR318     -0.0009
     46  CE1       17.5750  -21.7300  -21.3530 C.ar  318  TYR318      0.0417
     47  CE2       19.7590  -22.1460  -20.4630 C.ar  318  TYR318      0.0417
     48  CZ        18.7890  -22.3860  -21.4120 C.ar  318  TYR318      0.1957
     49  OH        19.0460  -23.2900  -22.4140 O.3   318  TYR318     -0.2866
     50  N         16.3260  -16.6940  -17.9860 N.am  319  SER319     -0.1936
     51  CA        15.5170  -15.8830  -17.0870 C.3   319  SER319      0.2055
     52  C         14.6710  -16.7440  -16.1440 C.2   319  SER319      0.2643
     53  O         14.0390  -17.7060  -16.5760 O.2   319  SER319     -0.2714
     54  CB        14.6220  -14.9460  -17.8980 C.3   319  SER319      0.2130
     55  OG        13.3660  -14.7630  -17.2710 O.3   319  SER319     -0.2179
     56  N         14.6790  -16.3930  -14.8590 N.am  320  GLN320     -0.1963
     57  CA        13.8630  -17.0680  -13.8460 C.3   320  GLN320      0.1733
     58  C         13.8010  -18.5640  -14.0920 C.2   320  GLN320      0.2616
     59  O         12.7170  -19.1460  -14.0820 O.2   320  GLN320     -0.2715
     60  CB        12.4280  -16.5440  -13.8760 C.3   320  GLN320      0.0408
     61  CG        12.2880  -15.0460  -13.9890 C.3   320  GLN320      0.0908
     62  CD        10.8350  -14.6170  -14.0220 C.2   320  GLN320      0.2608
     63  OE1       10.0870  -14.8450  -13.0710 O.2   320  GLN320     -0.2717
     64  NE2       10.4230  -14.0110  -15.1270 N.am  320  GLN320     -0.0878
     65  N         14.9470  -19.1930  -14.3170 N.am  321  ILE321     -0.1963
     66  CA        14.9320  -20.5350  -14.8850 C.3   321  ILE321      0.1727
     67  C         14.2620  -21.5610  -13.9770 C.2   321  ILE321      0.2616
     68  O         13.4510  -22.3580  -14.4400 O.2   321  ILE321     -0.2715
     69  CB        16.3370  -21.0280  -15.2950 C.3   321  ILE321      0.0290
     70  CG1       16.2180  -22.4100  -15.9430 C.3   321  ILE321      0.0022
     71  CG2       17.2880  -21.0580  -14.1080 C.3   321  ILE321      0.0023
     72  CD1       15.4420  -22.3920  -17.2480 C.3   321  ILE321      0.0001
     73  N         14.5850  -21.5440  -12.6920 N.am  322  GLU322     -0.1977
     74  CA        14.0490  -22.5580  -11.7880 C.3   322  GLU322      0.1602
     75  C         12.5480  -22.4060  -11.5550 C.2   322  GLU322      0.2287
     76  O         11.8560  -23.3920  -11.2950 O.2   322  GLU322     -0.2864
     77  CB        14.8300  -22.5690  -10.4740 C.3   322  GLU322      0.0415
     78  CG        16.2360  -23.1130  -10.6700 C.3   322  GLU322      0.1163
     79  CD        16.8990  -23.5430   -9.3790 C.2   322  GLU322      0.3649
     80  OE1       16.3020  -23.3440   -8.3020 O.co2 322  GLU322     -0.2457
     81  OE2       18.0200  -24.0880   -9.4450 O.co2 322  GLU322     -0.2457
     82  N          9.7670  -12.2470   -9.8880 N.3   346  HIS346     -0.1241
     83  CA        10.7050  -11.5570   -9.0100 C.3   346  HIS346      0.1621
     84  C         10.3530  -10.0830   -8.9390 C.2   346  HIS346      0.2264
     85  O         10.2760   -9.5080   -7.8590 O.2   346  HIS346     -0.2867
     86  CB        12.1370  -11.6910   -9.5260 C.3   346  HIS346      0.0745
     87  CG        12.6510  -13.0960   -9.5480 C.ar  346  HIS346      0.0817
     88  ND1       13.4830  -13.5610  -10.5410 N.ar  346  HIS346     -0.2268
     89  CD2       12.4660  -14.1310   -8.6950 C.ar  346  HIS346      0.1154
     90  CE1       13.7860  -14.8240  -10.3030 C.ar  346  HIS346      0.1986
     91  NE2       13.1800  -15.1950   -9.1910 N.ar  346  HIS346     -0.2212
     92  N         14.6170   -6.0500   -7.0820 N.3   366  ARG366     -0.1231
     93  CA        14.4680   -7.3580   -7.7030 C.3   366  ARG366      0.1694
     94  C         15.3730   -8.4110   -7.0720 C.2   366  ARG366      0.2591
     95  O         14.9090   -9.4850   -6.7010 O.2   366  ARG366     -0.2718
     96  CB        14.7740   -7.2580   -9.1950 C.3   366  ARG366      0.0321
     97  CG        14.9190   -8.6000   -9.8780 C.3   366  ARG366      0.0489
     98  CD        15.3870   -8.4420  -11.3110 C.3   366  ARG366      0.2205
     99  NE        15.3690   -9.7150  -12.0210 N.pl3 366  ARG366     -0.0865
    100  CZ        14.2530  -10.3330  -12.3860 C.cat 366  ARG366      0.5346
    101  NH1       13.0770   -9.7950  -12.0950 N.pl3 366  ARG366      0.1354
    102  NH2       14.3070  -11.4910  -13.0320 N.pl3 366  ARG366      0.1354
    103  N         16.6620   -8.1040   -6.9650 N.am  367  ARG367     -0.1980
    104  CA        17.6400   -9.0440   -6.4290 C.3   367  ARG367      0.1597
    105  C         17.2550   -9.4630   -5.0160 C.2   367  ARG367      0.2287
    106  O         17.5020  -10.5960   -4.6040 O.2   367  ARG367     -0.2864
    107  CB        19.0350   -8.4130   -6.4240 C.3   367  ARG367      0.0334
    108  CG        20.1370   -9.3180   -5.8910 C.3   367  ARG367      0.0492
    109  CD        21.2760   -8.5050   -5.2940 C.3   367  ARG367      0.2205
    110  NE        21.8170   -7.5350   -6.2400 N.pl3 367  ARG367     -0.0865
    111  CZ        22.6020   -6.5160   -5.9020 C.cat 367  ARG367      0.5346
    112  NH1       22.9360   -6.3200   -4.6310 N.pl3 367  ARG367      0.1354
    113  NH2       23.0470   -5.6840   -6.8340 N.pl3 367  ARG367      0.1354
    114  N         14.4390  -11.8480   -5.3460 N.3   370  LYS370     -0.1231
    115  CA        14.8620  -13.1120   -5.9470 C.3   370  LYS370      0.1693
    116  C         15.0870  -14.2070   -4.8970 C.2   370  LYS370      0.2592
    117  O         14.5360  -15.3010   -5.0150 O.2   370  LYS370     -0.2718
    118  CB        16.1240  -12.9280   -6.8020 C.3   370  LYS370      0.0285
    119  CG        15.8910  -12.1700   -8.1110 C.3   370  LYS370      0.0035
    120  CD        17.1620  -12.0520   -8.9600 C.3   370  LYS370      0.0206
    121  CE        17.6730  -13.4090   -9.4340 C.3   370  LYS370      0.1093
    122  NZ        18.7560  -13.2780  -10.4560 N.3   370  LYS370     -0.1314
    123  N         15.8870  -13.9180   -3.8730 N.am  371  THR371     -0.1953
    124  CA        16.1770  -14.9140   -2.8390 C.3   371  THR371      0.1897
    125  C         15.0260  -15.0670   -1.8490 C.2   371  THR371      0.2313
    126  O         15.1140  -15.8560   -0.9060 O.2   371  THR371     -0.2863
    127  CB        17.4630  -14.5820   -2.0510 C.3   371  THR371      0.1794
    128  OG1       17.2540  -13.4240   -1.2320 O.3   371  THR371     -0.2208
    129  CG2       18.6140  -14.3290   -2.9950 C.3   371  THR371      0.0378
    130  N         12.6470  -17.7440   -3.9550 N.3   374  PHE374     -0.1241
    131  CA        13.4040  -18.9860   -3.8760 C.3   374  PHE374      0.1605
    132  C         13.5210  -19.4600   -2.4420 C.2   374  PHE374      0.2264
    133  O         13.4830  -20.6590   -2.1680 O.2   374  PHE374     -0.2867
    134  CB        14.8000  -18.7810   -4.4480 C.3   374  PHE374      0.0534
    135  CG        14.8070  -18.5430   -5.9160 C.ar  374  PHE374     -0.0203
    136  CD1       14.0400  -19.3340   -6.7500 C.ar  374  PHE374     -0.0042
    137  CD2       15.5560  -17.5200   -6.4640 C.ar  374  PHE374     -0.0042
    138  CE1       14.0300  -19.1220   -8.1050 C.ar  374  PHE374     -0.0003
    139  CE2       15.5490  -17.3010   -7.8230 C.ar  374  PHE374     -0.0003
    140  CZ        14.7840  -18.1050   -8.6440 C.ar  374  PHE374     -0.0000
    141  N         11.6550  -22.9990   -1.0500 N.3   378  TYR378     -0.1241
    142  CA        12.4510  -24.1420   -0.6330 C.3   378  TYR378      0.1605
    143  C         12.4790  -24.3580    0.8740 C.2   378  TYR378      0.2264
    144  O         13.4030  -24.9770    1.4040 O.2   378  TYR378     -0.2867
    145  CB        13.8580  -24.0100   -1.2070 C.3   378  TYR378      0.0534
    146  CG        13.8530  -24.1150   -2.7110 C.ar  378  TYR378     -0.0201
    147  CD1       13.0920  -25.0880   -3.3490 C.ar  378  TYR378     -0.0009
    148  CD2       14.5790  -23.2310   -3.4970 C.ar  378  TYR378     -0.0009
    149  CE1       13.0700  -25.1910   -4.7220 C.ar  378  TYR378      0.0417
    150  CE2       14.5620  -23.3260   -4.8740 C.ar  378  TYR378      0.0417
    151  CZ        13.8050  -24.3070   -5.4800 C.ar  378  TYR378      0.1957
    152  OH        13.7890  -24.4050   -6.8510 O.3   378  TYR378     -0.2866
    153  N         13.7620  -29.9870   -3.8010 N.3   457  ASN457     -0.1240
    154  CA        14.5380  -29.0100   -4.5590 C.3   457  ASN457      0.1653
    155  C         15.2710  -29.6420   -5.7410 C.2   457  ASN457      0.2266
    156  O         15.4330  -29.0090   -6.7790 O.2   457  ASN457     -0.2867
    157  CB        15.5530  -28.2960   -3.6670 C.3   457  ASN457      0.1155
    158  CG        16.5390  -27.4620   -4.4670 C.2   457  ASN457      0.2627
    159  OD1       16.3660  -26.2530   -4.6310 O.2   457  ASN457     -0.2716
    160  ND2       17.5730  -28.1100   -4.9840 N.am  457  ASN457     -0.0877
    161  N         16.2580  -27.8130   -9.4340 N.3   461  GLN461     -0.1245
    162  CA        17.6240  -27.3860   -9.7180 C.3   461  GLN461      0.1566
    163  C         18.2880  -28.3340  -10.7100 C.2   461  GLN461      0.2260
    164  O         19.0840  -27.9140  -11.5490 O.2   461  GLN461     -0.2867
    165  CB        18.4430  -27.3510   -8.4280 C.3   461  GLN461      0.0367
    166  CG        19.8480  -26.8020   -8.5970 C.3   461  GLN461      0.0905
    167  CD        20.6630  -26.9050   -7.3230 C.2   461  GLN461      0.2608
    168  OE1       20.2990  -26.3390   -6.2880 O.2   461  GLN461     -0.2717
    169  NE2       21.7660  -27.6370   -7.3890 N.am  461  GLN461     -0.0878
    170  N         26.0850  -22.2400  -14.0130 N.3   491  HIS491     -0.1226
    171  CA        24.8030  -22.8310  -13.6360 C.3   491  HIS491      0.1752
    172  C         23.6740  -22.5880  -14.6460 C.2   491  HIS491      0.2596
    173  O         23.2290  -23.5250  -15.3100 O.2   491  HIS491     -0.2718
    174  CB        24.4340  -22.3830  -12.2220 C.3   491  HIS491      0.0759
    175  CG        25.5210  -22.6420  -11.2300 C.ar  491  HIS491      0.0818
    176  ND1       26.1930  -23.8490  -11.1700 N.ar  491  HIS491     -0.2268
    177  CD2       26.0910  -21.8560  -10.2870 C.ar  491  HIS491      0.1154
    178  CE1       27.1070  -23.7970  -10.2250 C.ar  491  HIS491      0.1986
    179  NE2       27.0670  -22.5950   -9.6690 N.ar  491  HIS491     -0.2212
    180  N         23.2050  -21.3510  -14.7710 N.am  492  ASP492     -0.1974
    181  CA        22.2030  -21.0430  -15.7860 C.3   492  ASP492      0.1709
    182  C         22.6730  -19.9250  -16.7110 C.2   492  ASP492      0.2293
    183  O         21.8810  -19.3320  -17.4430 O.2   492  ASP492     -0.2864
    184  CB        20.8730  -20.6690  -15.1410 C.3   492  ASP492      0.1436
    185  CG        20.9050  -19.3130  -14.4910 C.2   492  ASP492      0.3671
    186  OD1       21.9820  -18.8780  -14.0300 O.co2 492  ASP492     -0.2456
    187  OD2       19.8360  -18.6820  -14.4410 O.co2 492  ASP492     -0.2456
@<TRIPOS>BOND
     1    49    48    1
     2    48    46   ar
     3    48    47   ar
     4    46    44   ar
     5    47    45   ar
     6    44    43   ar
     7    30    31    1
     8    45    43   ar
     9    33    32    2
    10    43    42    1
    11    32    31    1
    12    32    38   am
    13    31    34    1
    14    39    38    1
    15    39    42    1
    16    39    40    1
    17    34    35    1
    18    50    40   am
    19    50    51    1
    20    54    55    1
    21    54    51    1
    22    40    41    2
    23   183   182    2
    24    72    70    1
    25    51    52    1
    26   182   181    1
    27    53    52    2
    28    35    36   ar
    29    35    37   ar
    30    52    56   am
    31    70    69    1
    32   181   184    1
    33   181   180    1
    34   173   172    2
    35    69    66    1
    36    69    71    1
    37   184   185    1
    38    64    62   am
    39    66    65    1
    40    66    67    1
    41    56    57    1
    42   180   172   am
    43   172   171    1
    44   185   187   ar
    45   185   186   ar
    46    68    67    2
    47    65    58   am
    48    58    59    2
    49    58    57    1
    50    62    61    1
    51    62    63    2
    52   170   171    1
    53    61    60    1
    54    67    73   am
    55    60    57    1
    56   171   174    1
    57   102   100    1
    58    73    74    1
    59   100   101    1
    60   100    99    2
    61   174   175    1
    62    99    98    1
    63    74    75    1
    64    74    77    1
    65     3     2    1
    66     3     4    2
    67    75    76    2
    68   164   163    2
    69     2     1    1
    70     2     5    1
    71    98    97    1
    72   175   176   ar
    73   175   177   ar
    74   176   178   ar
    75    18    16    1
    76   163   162    1
    77    78    77    1
    78    78    79    1
    79    88    90   ar
    80    88    87   ar
    81     6     5    1
    82     6     7    1
    83   122   121    1
    84    90    91   ar
    85   177   179   ar
    86   178   179   ar
    87    82    83    1
    88    97    96    1
    89    16    17    1
    90    16    13    1
    91   162   161    1
    92   162   165    1
    93     8     7    1
    94     8     9    2
    95    87    86    1
    96    87    89   ar
    97    86    83    1
    98    81    79   ar
    99   121   120    1
   100    79    80   ar
   101    96    93    1
   102    91    89   ar
   103    11     9    1
   104    83    84    1
   105   120   119    1
   106     9    10    1
   107    84    85    2
   108    13    14    1
   109    13    12    1
   110   140   138   ar
   111   140   139   ar
   112    15    14    2
   113   166   165    1
   114   166   167    1
   115   119   118    1
   116   138   136   ar
   117    14    19   am
   118   139   137   ar
   119    93    92    1
   120    93    94    1
   121   169   167   am
   122   167   168    2
   123    94   103   am
   124    94    95    2
   125   103   104    1
   126   152   151    1
   127   113   111    1
   128   118   115    1
   129   156   155    2
   130    19    20    1
   131   136   135   ar
   132   137   135   ar
   133   104   107    1
   134   104   105    1
   135   107   108    1
   136   110   111    2
   137   110   109    1
   138    20    21    1
   139    20    23    1
   140   115   114    1
   141   115   116    1
   142   135   134    1
   143   111   112    1
   144   108   109    1
   145    22    21    2
   146   155   154    1
   147   151   150   ar
   148   151   149   ar
   149   105   106    2
   150   117   116    2
   151   160   158   am
   152   116   123   am
   153   150   148   ar
   154    23    24    1
   155   149   147   ar
   156   159   158    2
   157   154   153    1
   158   154   157    1
   159   158   157    1
   160   134   131    1
   161    24    25    1
   162   130   131    1
   163   131   132    1
   164   123   124    1
   165   148   146   ar
   166   147   146   ar
   167   129   127    1
   168    25    26    1
   169   124   127    1
   170   124   125    1
   171   146   145    1
   172    26    27    2
   173   132   133    2
   174   127   128    1
   175   125   126    2
   176    27    29    1
   177    27    28    1
   178   145   142    1
   179   141   142    1
   180   142   143    1
   181   143   144    2
