@<TRIPOS>MOLECULE
tmp/3ojyB01.pdb
 87 83 0 0 0
SMALL
GASTEIGER

@<TRIPOS>ATOM
      1  N         67.4280   -9.5560    1.1750 N.3   412  GLU412     -0.1245
      2  CA        68.6390   -9.9890    0.4810 C.3   412  GLU412      0.1567
      3  C         68.2980  -11.0170   -0.5600 C.2   412  GLU412      0.2260
      4  O         68.7620  -10.9410   -1.6800 O.2   412  GLU412     -0.2867
      5  CB        69.5860  -10.6280    1.4780 C.3   412  GLU412      0.0388
      6  CG        71.0500  -10.3250    1.2790 C.3   412  GLU412      0.1160
      7  CD        71.7000   -9.8580    2.5830 C.2   412  GLU412      0.3649
      8  OE1       70.9470   -9.5800    3.5510 O.co2 412  GLU412     -0.2457
      9  OE2       72.9530   -9.7590    2.6410 O.co2 412  GLU412     -0.2457
     10  N         66.0940   -9.3480   -3.4830 N.3   415  GLN415     -0.1231
     11  CA        66.7860   -8.5280   -4.4640 C.3   415  GLN415      0.1698
     12  C         67.2190   -9.3740   -5.6460 C.2   415  GLN415      0.2592
     13  O         66.9630   -9.0040   -6.7820 O.2   415  GLN415     -0.2718
     14  CB        67.9910   -7.7560   -3.8890 C.3   415  GLN415      0.0381
     15  CG        68.2390   -6.4630   -4.6700 C.3   415  GLN415      0.0905
     16  CD        69.6380   -5.8810   -4.5740 C.2   415  GLN415      0.2608
     17  OE1       70.1320   -5.3180   -5.5460 O.2   415  GLN415     -0.2717
     18  NE2       70.2630   -5.9740   -3.4060 N.am  415  GLN415     -0.0878
     19  N         67.8430  -10.5220   -5.3670 N.am  416  LYS416     -0.1980
     20  CA        68.2820  -11.4210   -6.4350 C.3   416  LYS416      0.1596
     21  C         67.0670  -11.9020   -7.1910 C.2   416  LYS416      0.2287
     22  O         66.9630  -11.6810   -8.3860 O.2   416  LYS416     -0.2864
     23  CB        69.0920  -12.6050   -5.9110 C.3   416  LYS416      0.0298
     24  CG        70.0300  -12.2260   -4.7580 C.3   416  LYS416      0.0038
     25  CD        71.0440  -13.3320   -4.3810 C.3   416  LYS416      0.0206
     26  CE        70.3450  -14.6560   -4.1120 C.3   416  LYS416      0.1093
     27  NZ        69.4440  -14.5830   -2.9030 N.3   416  LYS416     -0.1314
     28  N         65.5000   -9.6530   -9.9900 N.3   419  SER419     -0.1217
     29  CA        66.4010   -9.0540  -10.9590 C.3   419  SER419      0.1889
     30  C         66.2110   -9.6330  -12.3950 C.2   419  SER419      0.2288
     31  O         66.0230  -10.8400  -12.5740 O.2   419  SER419     -0.2866
     32  CB        67.8380   -9.2500  -10.4520 C.3   419  SER419      0.2089
     33  OG        68.8180   -8.7750  -11.3690 O.3   419  SER419     -0.2183
     34  N         68.2150  -10.3350  -14.5300 N.3   421  CYS421     -0.1235
     35  CA        69.4040  -11.0950  -14.9810 C.3   421  CYS421      0.1677
     36  C         69.0980  -12.5620  -15.1160 C.2   421  CYS421      0.2270
     37  O         69.8380  -13.2910  -15.7410 O.2   421  CYS421     -0.2867
     38  CB        70.5660  -10.9230  -14.0070 C.3   421  CYS421      0.0956
     39  SG        70.1640  -11.4020  -12.2350 S.3   421  CYS421     -0.0801
     40  N         74.8320  -12.0460  -16.5420 N.3   467  ASN467     -0.1225
     41  CA        73.9260  -13.0060  -15.9190 C.3   467  ASN467      0.1785
     42  C         73.8710  -12.6380  -14.4410 C.2   467  ASN467      0.2597
     43  O         74.4630  -11.6380  -14.0520 O.2   467  ASN467     -0.2718
     44  CB        74.3960  -14.4520  -16.1250 C.3   467  ASN467      0.1169
     45  CG        75.7360  -14.7040  -15.5310 C.2   467  ASN467      0.2627
     46  OD1       76.2960  -13.8550  -14.8440 O.2   467  ASN467     -0.2716
     47  ND2       76.2910  -15.8630  -15.8270 N.am  467  ASN467     -0.0877
     48  N         73.1630  -13.4270  -13.6340 N.am  468  CYS468     -0.1956
     49  CA        73.0020  -13.1200  -12.2090 C.3   468  CYS468      0.1843
     50  C         74.3080  -13.3590  -11.4300 C.2   468  CYS468      0.2625
     51  O         75.0740  -14.2550  -11.7750 O.2   468  CYS468     -0.2714
     52  CB        71.8410  -13.9410  -11.6260 C.3   468  CYS468      0.0997
     53  SG        70.1380  -13.4550  -12.2450 S.3   468  CYS468     -0.0797
     54  N         74.5790  -12.5380  -10.4150 N.am  469  TRP469     -0.1974
     55  CA        75.6570  -12.8110   -9.4450 C.3   469  TRP469      0.1640
     56  C         75.5510  -14.2550   -8.9530 C.2   469  TRP469      0.2290
     57  O         74.4530  -14.7140   -8.6380 O.2   469  TRP469     -0.2864
     58  CB        75.4920  -11.8940   -8.2310 C.3   469  TRP469      0.0576
     59  CG        76.0060  -10.4890   -8.4270 C.ar  469  TRP469      0.0006
     60  CD1       75.2560   -9.2000   -8.4580 C.ar  469  TRP469      0.0946
     61  CD2       77.3180  -10.1030   -8.6120 C.ar  469  TRP469      0.0152
     62  NE1       76.1740   -8.2450   -8.6390 N.ar  469  TRP469     -0.2442
     63  CE2       77.3930   -8.7250   -8.7440 C.ar  469  TRP469      0.0810
     64  CE3       78.4880  -10.8430   -8.6840 C.ar  469  TRP469      0.0012
     65  CZ2       78.6000   -8.0420   -8.9490 C.ar  469  TRP469      0.0191
     66  CZ3       79.7100  -10.1620   -8.8670 C.ar  469  TRP469      0.0001
     67  CH2       79.7820   -8.7660   -9.0160 C.ar  469  TRP469      0.0015
     68  N         81.6660  -13.0320   -4.8400 N.3   480  LYS480     -0.1197
     69  CA        80.6530  -13.4110   -5.8150 C.3   480  LYS480      0.1778
     70  C         81.2260  -13.1630   -7.1850 C.2   480  LYS480      0.2305
     71  O         81.9590  -12.1990   -7.4130 O.2   480  LYS480     -0.2863
     72  CB        79.3960  -12.5280   -5.6840 C.2   480  LYS480     -0.0042
     73  CG        78.4090  -12.9150   -4.5910 C.2   480  LYS480     -0.0273
     74  CD        76.9790  -12.2370   -4.6800 C.3   480  LYS480      0.0462
     75  CE        76.9640  -10.7160   -4.9490 C.3   480  LYS480      0.1140
     76  NZ        75.5620  -10.1770   -4.8090 N.3   480  LYS480     -0.1310
     77  N         80.2460  -13.2600  -11.6010 N.3   482  ARG482     -0.1245
     78  CA        79.2910  -12.7450  -12.5370 C.3   482  ARG482      0.1563
     79  C         79.9250  -12.9330  -13.8860 C.2   482  ARG482      0.2260
     80  O         81.0900  -12.6110  -14.0530 O.2   482  ARG482     -0.2867
     81  CB        79.2970  -11.2540  -12.3160 C.3   482  ARG482      0.0307
     82  CG        78.0150  -10.5540  -12.2840 C.3   482  ARG482      0.0489
     83  CD        78.3830   -9.1340  -12.3200 C.3   482  ARG482      0.2205
     84  NE        77.2030   -8.3290  -12.1380 N.pl3 482  ARG482     -0.0865
     85  CZ        77.1890   -7.0130  -12.0520 C.cat 482  ARG482      0.5346
     86  NH1       78.3070   -6.2990  -12.1250 N.pl3 482  ARG482      0.1354
     87  NH2       76.0270   -6.4170  -11.8740 N.pl3 482  ARG482      0.1354
@<TRIPOS>BOND
     1    40    41    1
     2    44    41    1
     3    44    45    1
     4    41    42    1
     5    47    45   am
     6    37    36    2
     7    45    46    2
     8    36    35    1
     9    35    34    1
    10    35    38    1
    11    42    43    2
    12    42    48   am
    13    80    79    2
    14    38    39    1
    15    79    78    1
    16    48    49    1
    17    31    30    2
    18    78    81    1
    19    78    77    1
    20    30    29    1
    21    83    82    1
    22    83    84    1
    23    81    82    1
    24    53    39    1
    25    53    52    1
    26    49    52    1
    27    49    50    1
    28    84    85    2
    29    86    85    1
    30    85    87    1
    31    51    50    2
    32    50    54   am
    33    33    32    1
    34    29    32    1
    35    29    28    1
    36    54    55    1
    37    55    56    1
    38    55    58    1
    39    67    65   ar
    40    67    66   ar
    41    56    57    2
    42    65    63   ar
    43    66    64   ar
    44    63    62   ar
    45    63    61   ar
    46    64    61   ar
    47    62    60   ar
    48    61    59   ar
    49    60    59   ar
    50    59    58    1
    51    22    21    2
    52    71    70    2
    53    21    20    1
    54    70    69    1
    55    13    12    2
    56    20    23    1
    57    20    19    1
    58    23    24    1
    59    69    72    1
    60    69    68    1
    61    72    73    2
    62    12    19   am
    63    12    11    1
    64    17    16    2
    65    75    76    1
    66    75    74    1
    67    24    25    1
    68    74    73    1
    69    15    16    1
    70    15    14    1
    71    16    18   am
    72    11    14    1
    73    11    10    1
    74    25    26    1
    75    26    27    1
    76     4     3    2
    77     3     2    1
    78     2     1    1
    79     2     5    1
    80     6     5    1
    81     6     7    1
    82     7     9   ar
    83     7     8   ar
