@<TRIPOS>MOLECULE
tmp/3okaB00.pdb
 159 151 0 0 0
SMALL
GASTEIGER

@<TRIPOS>ATOM
      1  N        -16.1480  -21.0130   53.7590 N.3    17  GLY17      -0.1225
      2  CA       -15.9700  -20.1030   52.6240 C.3    17  GLY17       0.1811
      3  C        -16.7500  -20.4910   51.3770 C.2    17  GLY17       0.2280
      4  O        -17.3750  -19.6360   50.7430 O.2    17  GLY17      -0.2866
      5  N        -22.0180   -3.9840   54.4390 N.3   174  PHE174     -0.1241
      6  CA       -20.7260   -3.3310   54.5960 C.3   174  PHE174      0.1605
      7  C        -20.8090   -1.9590   53.9340 C.2   174  PHE174      0.2264
      8  O        -20.9020   -1.8370   52.7110 O.2   174  PHE174     -0.2867
      9  CB       -19.6010   -4.1880   54.0050 C.3   174  PHE174      0.0534
     10  CG       -19.3760   -5.4920   54.7360 C.ar  174  PHE174     -0.0203
     11  CD1      -18.4460   -5.5710   55.7740 C.ar  174  PHE174     -0.0042
     12  CD2      -20.0920   -6.6340   54.3880 C.ar  174  PHE174     -0.0042
     13  CE1      -18.2240   -6.7800   56.4590 C.ar  174  PHE174     -0.0003
     14  CE2      -19.8850   -7.8460   55.0600 C.ar  174  PHE174     -0.0003
     15  CZ       -18.9400   -7.9200   56.0980 C.ar  174  PHE174     -0.0000
     16  N         -9.0180   -7.8790   60.0610 N.3   201  ASN201     -0.1225
     17  CA       -10.0040   -8.9520   60.2090 C.3   201  ASN201      0.1785
     18  C         -9.5050  -10.1490   59.4340 C.2   201  ASN201      0.2598
     19  O         -9.2570  -10.0420   58.2370 O.2   201  ASN201     -0.2718
     20  CB       -11.3810   -8.5690   59.6450 C.3   201  ASN201      0.1169
     21  CG       -11.9300   -7.2660   60.2070 C.2   201  ASN201      0.2627
     22  OD1      -11.5630   -6.8210   61.2990 O.2   201  ASN201     -0.2716
     23  ND2      -12.8360   -6.6520   59.4560 N.am  201  ASN201     -0.0877
     24  N         -9.3520  -11.2800   60.1160 N.am  202  SER202     -0.1938
     25  CA        -8.9730  -12.5460   59.4830 C.3   202  SER202      0.2055
     26  C         -8.7330  -13.6170   60.5350 C.2   202  SER202      0.2642
     27  O         -8.4170  -13.3060   61.6890 O.2   202  SER202     -0.2714
     28  CB        -7.7090  -12.4000   58.6130 C.3   202  SER202      0.2130
     29  OG        -8.0320  -11.9660   57.3040 O.3   202  SER202     -0.2179
     30  N         -8.8830  -14.8760   60.1240 N.am  203  ARG203     -0.1977
     31  CA        -8.4670  -16.0130   60.9400 C.3   203  ARG203      0.1597
     32  C         -7.0150  -15.8290   61.3630 C.2   203  ARG203      0.2287
     33  O         -6.1840  -15.2970   60.6020 O.2   203  ARG203     -0.2864
     34  CB        -8.6190  -17.3240   60.1700 C.3   203  ARG203      0.0334
     35  CG       -10.0570  -17.7640   59.9670 C.3   203  ARG203      0.0492
     36  CD       -10.1380  -19.1160   59.2510 C.3   203  ARG203      0.2205
     37  NE        -9.5600  -19.0670   57.9080 N.pl3 203  ARG203     -0.0865
     38  CZ        -8.4670  -19.7300   57.5390 C.cat 203  ARG203      0.5346
     39  NH1       -7.8260  -20.5060   58.4110 N.pl3 203  ARG203      0.1354
     40  NH2       -8.0140  -19.6190   56.2980 N.pl3 203  ARG203      0.1354
     41  N         -0.2930  -17.3060   57.6560 N.3   207  ARG207     -0.1231
     42  CA        -0.5060  -16.8650   56.2770 C.3   207  ARG207      0.1694
     43  C         -1.0250  -15.4260   56.1650 C.2   207  ARG207      0.2591
     44  O         -0.6370  -14.6850   55.2550 O.2   207  ARG207     -0.2718
     45  CB        -1.5000  -17.8440   55.6250 C.3   207  ARG207      0.0321
     46  CG        -1.7240  -17.6780   54.1610 C.3   207  ARG207      0.0489
     47  CD        -2.4190  -18.8970   53.5460 C.3   207  ARG207      0.2205
     48  NE        -3.8660  -18.9820   53.7570 N.pl3 207  ARG207     -0.0865
     49  CZ        -4.7550  -18.0740   53.3550 C.cat 207  ARG207      0.5346
     50  NH1       -4.3590  -16.9510   52.7640 N.pl3 207  ARG207      0.1354
     51  NH2       -6.0490  -18.2720   53.5810 N.pl3 207  ARG207      0.1354
     52  N         -1.8900  -15.0360   57.0990 N.am  208  LYS208     -0.1980
     53  CA        -2.6220  -13.7700   57.0000 C.3   208  LYS208      0.1596
     54  C         -1.7770  -12.5460   57.3390 C.2   208  LYS208      0.2287
     55  O         -2.1720  -11.4120   57.0520 O.2   208  LYS208     -0.2864
     56  CB        -3.9010  -13.8080   57.8500 C.3   208  LYS208      0.0298
     57  CG        -4.8490  -14.9580   57.5050 C.3   208  LYS208      0.0038
     58  CD        -5.4760  -14.8050   56.1230 C.3   208  LYS208      0.0206
     59  CE        -6.6310  -15.7770   55.9390 C.3   208  LYS208      0.1093
     60  NZ        -7.3650  -15.5120   54.6620 N.3   208  LYS208     -0.1314
     61  N         -8.6860   -8.7920   64.8760 N.3   232  VAL232     -0.1231
     62  CA       -10.0160   -9.3550   65.0040 C.3   232  VAL232      0.1692
     63  C        -10.0490  -10.7310   64.3550 C.2   232  VAL232      0.2592
     64  O         -9.7810  -10.8750   63.1570 O.2   232  VAL232     -0.2718
     65  CB       -11.0840   -8.4530   64.3270 C.3   232  VAL232      0.0266
     66  CG1      -12.4800   -9.0500   64.5020 C.3   232  VAL232      0.0020
     67  CG2      -11.0190   -7.0330   64.8750 C.3   232  VAL232      0.0020
     68  N        -10.3860  -11.7370   65.1520 N.am  233  GLY233     -0.1957
     69  CA       -10.4800  -13.1050   64.6650 C.3   233  GLY233      0.1869
     70  C         -9.9440  -14.1000   65.6700 C.2   233  GLY233      0.2309
     71  O         -9.4390  -13.7260   66.7360 O.2   233  GLY233     -0.2863
     72  N        -13.0360  -13.2180   68.2220 N.3   257  ARG257     -0.1231
     73  CA       -14.0120  -13.2870   67.1520 C.3   257  ARG257      0.1694
     74  C        -15.1910  -12.4140   67.5650 C.2   257  ARG257      0.2591
     75  O        -15.8280  -12.6580   68.5910 O.2   257  ARG257     -0.2718
     76  CB       -14.4420  -14.7350   66.8980 C.3   257  ARG257      0.0321
     77  CG       -14.9440  -15.0370   65.5020 C.3   257  ARG257      0.0489
     78  CD       -16.3060  -14.4720   65.1710 C.3   257  ARG257      0.2205
     79  NE       -17.3700  -14.8770   66.0740 N.pl3 257  ARG257     -0.0865
     80  CZ       -18.6410  -15.0680   65.7140 C.cat 257  ARG257      0.5346
     81  NH1      -19.0040  -15.0140   64.4470 N.pl3 257  ARG257      0.1354
     82  NH2      -19.5460  -15.3990   66.6220 N.pl3 257  ARG257      0.1354
     83  N        -15.4490  -11.3690   66.7890 N.am  258  LEU258     -0.1980
     84  CA       -16.5150  -10.4290   67.1230 C.3   258  LEU258      0.1596
     85  C        -17.8110  -10.8260   66.4380 C.2   258  LEU258      0.2287
     86  O        -17.7920  -11.4760   65.3890 O.2   258  LEU258     -0.2864
     87  CB       -16.1240   -8.9980   66.7350 C.3   258  LEU258      0.0297
     88  CG       -15.0810   -8.2730   67.5870 C.3   258  LEU258      0.0022
     89  CD1      -14.7390   -6.9180   66.9770 C.3   258  LEU258      0.0001
     90  CD2      -15.5520   -8.1110   69.0300 C.3   258  LEU258      0.0001
     91  N        -21.0110  -10.2460   64.1270 N.3   260  TYR260     -0.1241
     92  CA       -21.0110   -9.7200   62.7620 C.3   260  TYR260      0.1605
     93  C        -21.0600   -8.1860   62.6710 C.2   260  TYR260      0.2264
     94  O        -20.1390   -7.5710   62.1390 O.2   260  TYR260     -0.2867
     95  CB       -22.1460  -10.3750   61.9650 C.3   260  TYR260      0.0534
     96  CG       -22.1330  -10.1220   60.4750 C.ar  260  TYR260     -0.0201
     97  CD1      -21.0650  -10.5490   59.6730 C.ar  260  TYR260     -0.0009
     98  CD2      -23.2100   -9.4910   59.8560 C.ar  260  TYR260     -0.0009
     99  CE1      -21.0640  -10.3250   58.2930 C.ar  260  TYR260      0.0417
    100  CE2      -23.2200   -9.2650   58.4840 C.ar  260  TYR260      0.0417
    101  CZ       -22.1460   -9.6830   57.7100 C.ar  260  TYR260      0.1957
    102  OH       -22.1770   -9.4510   56.3500 O.3   260  TYR260     -0.2866
    103  N        -18.1140   -6.3900   64.3580 N.3   263  MET263     -0.1245
    104  CA       -16.9590   -6.4940   63.4750 C.3   263  MET263      0.1570
    105  C        -17.0150   -5.4590   62.3360 C.2   263  MET263      0.2261
    106  O        -16.0050   -4.8350   62.0170 O.2   263  MET263     -0.2867
    107  CB       -16.8580   -7.9300   62.9450 C.3   263  MET263      0.0387
    108  CG       -15.6900   -8.2200   62.0060 C.3   263  MET263      0.0595
    109  SD       -16.1210   -7.9570   60.2730 S.3   263  MET263     -0.1393
    110  CE       -17.4180   -9.1740   60.0220 C.3   263  MET263      0.0692
    111  N         -3.5550  -17.0510   49.5040 N.3   287  GLU287     -0.1231
    112  CA        -4.8250  -16.3360   49.5900 C.3   287  GLU287      0.1699
    113  C         -5.6930  -16.6060   48.3610 C.2   287  GLU287      0.2593
    114  O         -5.2290  -16.5130   47.2230 O.2   287  GLU287     -0.2718
    115  CB        -4.5900  -14.8310   49.7930 C.3   287  GLU287      0.0402
    116  CG        -5.8630  -13.9810   49.9750 C.3   287  GLU287      0.1161
    117  CD        -6.7410  -14.4190   51.1450 C.2   287  GLU287      0.3649
    118  OE1       -6.2140  -14.8950   52.1790 O.co2 287  GLU287     -0.2457
    119  OE2       -7.9800  -14.2810   51.0280 O.co2 287  GLU287     -0.2457
    120  N         -6.9510  -16.9590   48.6090 N.am  288  GLY288     -0.1942
    121  CA        -7.9120  -17.2010   47.5390 C.3   288  GLY288      0.2014
    122  C         -8.7740  -15.9960   47.2100 C.2   288  GLY288      0.2639
    123  O         -8.4030  -15.1660   46.3720 O.2   288  GLY288     -0.2714
    124  N         -9.9240  -15.9050   47.8830 N.am  289  LEU289     -0.1963
    125  CA       -10.9780  -14.9280   47.5490 C.3   289  LEU289      0.1728
    126  C        -10.6870  -13.4800   47.9620 C.2   289  LEU289      0.2617
    127  O        -11.1760  -12.5480   47.3190 O.2   289  LEU289     -0.2715
    128  CB       -12.3370  -15.3750   48.1200 C.3   289  LEU289      0.0311
    129  CG       -13.0970  -16.5060   47.4020 C.3   289  LEU289      0.0022
    130  CD1      -14.2970  -16.9980   48.2280 C.3   289  LEU289      0.0001
    131  CD2      -13.5560  -16.0870   46.0030 C.3   289  LEU289      0.0001
    132  N         -9.9180  -13.2990   49.0370 N.am  290  GLY290     -0.1940
    133  CA        -9.6040  -11.9770   49.5810 C.3   290  GLY290      0.2014
    134  C        -10.8040  -11.1320   49.9760 C.2   290  GLY290      0.2639
    135  O        -10.7900   -9.9210   49.7920 O.2   290  GLY290     -0.2714
    136  N        -11.8340  -11.7670   50.5280 N.am  291  ILE291     -0.1963
    137  CA       -13.1070  -11.0960   50.8320 C.3   291  ILE291      0.1727
    138  C        -12.9620   -9.9390   51.8320 C.2   291  ILE291      0.2616
    139  O        -13.6610   -8.9300   51.7240 O.2   291  ILE291     -0.2715
    140  CB       -14.1930  -12.1100   51.3040 C.3   291  ILE291      0.0290
    141  CG1      -14.5450  -13.0610   50.1610 C.3   291  ILE291      0.0022
    142  CG2      -15.4700  -11.3940   51.7510 C.3   291  ILE291      0.0023
    143  CD1      -15.5130  -14.1630   50.5500 C.3   291  ILE291      0.0001
    144  N        -12.0420  -10.0780   52.7870 N.am  292  VAL292     -0.1977
    145  CA       -11.8280   -9.0320   53.7920 C.3   292  VAL292      0.1596
    146  C        -11.4220   -7.6960   53.1500 C.2   292  VAL292      0.2287
    147  O        -11.7990   -6.6310   53.6390 O.2   292  VAL292     -0.2864
    148  CB       -10.8410   -9.4660   54.9170 C.3   292  VAL292      0.0276
    149  CG1      -11.4270  -10.6340   55.7290 C.3   292  VAL292      0.0022
    150  CG2       -9.4660   -9.8160   54.3570 C.3   292  VAL292      0.0022
    151  N        -14.6590   -6.2120   51.8190 N.3   295  GLU295     -0.1245
    152  CA       -15.4300   -5.6830   52.9460 C.3   295  GLU295      0.1567
    153  C        -14.8910   -4.3260   53.3930 C.2   295  GLU295      0.2260
    154  O        -15.6650   -3.4090   53.6680 O.2   295  GLU295     -0.2867
    155  CB       -15.4070   -6.6880   54.1050 C.3   295  GLU295      0.0388
    156  CG       -16.0960   -8.0060   53.7580 C.3   295  GLU295      0.1160
    157  CD       -15.8670   -9.1140   54.7800 C.2   295  GLU295      0.3649
    158  OE1      -15.0000   -8.9760   55.6760 O.co2 295  GLU295     -0.2457
    159  OE2      -16.5660  -10.1420   54.6840 O.co2 295  GLU295     -0.2457
@<TRIPOS>BOND
     1   131   129    1
     2   123   122    2
     3   122   121    1
     4   122   124   am
     5   114   113    2
     6   127   126    2
     7   129   128    1
     8   129   130    1
     9   121   120    1
    10   125   124    1
    11   125   126    1
    12   125   128    1
    13   126   132   am
    14   113   120   am
    15   113   112    1
    16   132   133    1
    17   111   112    1
    18   133   134    1
    19   112   115    1
    20   135   134    2
    21   115   116    1
    22   116   117    1
    23   134   136   am
    24   141   143    1
    25   141   140    1
    26   136   137    1
    27     4     3    2
    28   137   140    1
    29   137   138    1
    30   119   117   ar
    31   117   118   ar
    32   140   142    1
    33     3     2    1
    34   139   138    2
    35   151   152    1
    36   138   144   am
    37     2     1    1
    38     8     7    2
    39    50    49    1
    40   144   145    1
    41   152   153    1
    42   152   155    1
    43   146   147    2
    44   146   145    1
    45    49    51    1
    46    49    48    2
    47   153   154    2
    48    47    48    1
    49    47    46    1
    50   156   155    1
    51   156   157    1
    52   145   148    1
    53     7     6    1
    54     9     6    1
    55     9    10    1
    56    46    45    1
    57   150   148    1
    58    12    10   ar
    59    12    14   ar
    60     5     6    1
    61    60    59    1
    62   159   157   ar
    63    10    11   ar
    64   157   158   ar
    65   148   149    1
    66    14    15   ar
    67    44    43    2
    68    45    42    1
    69    11    13   ar
    70    59    58    1
    71    15    13   ar
    72    58    57    1
    73    43    42    1
    74    43    52   am
    75    42    41    1
    76    40    38    1
    77   102   101    1
    78    53    52    1
    79    53    54    1
    80    53    56    1
    81    55    54    2
    82    29    28    1
    83    57    56    1
    84    38    37    2
    85    38    39    1
    86   101    99   ar
    87   101   100   ar
    88    37    36    1
    89    19    18    2
    90    99    97   ar
    91   100    98   ar
    92    28    25    1
    93    36    35    1
    94    18    24   am
    95    18    17    1
    96    23    21   am
    97    25    24    1
    98    25    26    1
    99    20    21    1
   100    20    17    1
   101    97    96   ar
   102    98    96   ar
   103    35    34    1
   104   110   109    1
   105    16    17    1
   106    30    26   am
   107    30    31    1
   108    34    31    1
   109    21    22    2
   110   109   108    1
   111    96    95    1
   112    26    27    2
   113    33    32    2
   114    31    32    1
   115    95    92    1
   116   108   107    1
   117   106   105    2
   118    94    93    2
   119   105   104    1
   120    93    92    1
   121    92    91    1
   122   107   104    1
   123    64    63    2
   124   104   103    1
   125    65    66    1
   126    65    67    1
   127    65    62    1
   128    63    62    1
   129    63    68   am
   130    81    80    1
   131    69    68    1
   132    69    70    1
   133    61    62    1
   134    78    77    1
   135    78    79    1
   136    86    85    2
   137    77    76    1
   138    70    71    2
   139    80    79    2
   140    80    82    1
   141    85    84    1
   142    87    84    1
   143    87    88    1
   144    83    84    1
   145    83    74   am
   146    76    73    1
   147    89    88    1
   148    73    74    1
   149    73    72    1
   150    74    75    2
   151    88    90    1
