@<TRIPOS>MOLECULE
tmp/3okhA01.pdb
 147 138 0 0 0
SMALL
GASTEIGER

@<TRIPOS>ATOM
      1  N         21.5960   65.4840    2.3770 N.3    20  GLN20      -0.1231
      2  CA        20.5970   65.5570    3.4110 C.3    20  GLN20       0.1698
      3  C         21.3130   65.8360    4.6980 C.2    20  GLN20       0.2592
      4  O         21.8040   64.9530    5.3920 O.2    20  GLN20      -0.2718
      5  CB        19.8610   64.2290    3.5510 C.3    20  GLN20       0.0381
      6  CG        19.3100   63.6670    2.2680 C.3    20  GLN20       0.0905
      7  CD        18.5220   62.4030    2.5050 C.2    20  GLN20       0.2608
      8  OE1       18.5530   61.8380    3.5920 O.2    20  GLN20      -0.2717
      9  NE2       17.8050   61.9550    1.4910 N.am   20  GLN20      -0.0878
     10  N         21.3400   67.1210    4.9930 N.am   21  ARG21      -0.1966
     11  CA        21.8910   67.6590    6.2190 C.3    21  ARG21       0.1729
     12  C         20.7210   67.9940    7.1370 C.2    21  ARG21       0.2616
     13  O         19.5500   67.9360    6.7370 O.2    21  ARG21      -0.2715
     14  CB        22.7250   68.9200    5.9230 C.3    21  ARG21       0.0348
     15  CG        24.0350   68.6230    5.1880 C.3    21  ARG21       0.0492
     16  CD        24.8650   69.8710    4.9670 C.3    21  ARG21       0.2205
     17  NE        26.0780   69.5840    4.1990 N.pl3  21  ARG21      -0.0865
     18  CZ        26.9440   70.5090    3.7840 C.cat  21  ARG21       0.5346
     19  NH1       26.7350   71.7960    4.0510 N.pl3  21  ARG21       0.1354
     20  NH2       28.0210   70.1540    3.0940 N.pl3  21  ARG21       0.1354
     21  N         21.0300   68.3030    8.3780 N.am   22  MET22      -0.1977
     22  CA        20.0310   68.7150    9.3300 C.3    22  MET22       0.1605
     23  C         20.6540   69.8750   10.0850 C.2    22  MET22       0.2287
     24  O         21.6640   69.6750   10.7660 O.2    22  MET22      -0.2864
     25  CB        19.6020   67.5450   10.2410 C.3    22  MET22       0.0413
     26  CG        18.5780   67.9180   11.3120 C.3    22  MET22       0.0598
     27  SD        16.9600   68.4240   10.7100 S.3    22  MET22      -0.1393
     28  CE        16.3080   66.8270   10.1850 C.3    22  MET22       0.0692
     29  N         22.3060   72.3650   12.4130 N.3    24  GLN24      -0.1245
     30  CA        22.8840   72.2740   13.7650 C.3    24  GLN24       0.1566
     31  C         22.0240   73.0200   14.7860 C.2    24  GLN24       0.2260
     32  O         22.0970   72.7360   15.9750 O.2    24  GLN24      -0.2867
     33  CB        24.2870   72.9040   13.7980 C.3    24  GLN24       0.0367
     34  CG        25.3350   72.2390   12.9040 C.3    24  GLN24       0.0905
     35  CD        26.6120   73.0500   12.8150 C.2    24  GLN24       0.2608
     36  OE1       26.6350   74.2890   12.9520 O.2    24  GLN24      -0.2717
     37  NE2       27.7150   72.3650   12.5490 N.am   24  GLN24      -0.0878
     38  N         19.1400   70.3590   15.6510 N.3    27  THR27      -0.1203
     39  CA        19.7210   69.1980   16.3550 C.3    27  THR27       0.1994
     40  C         20.2740   69.5530   17.7370 C.2    27  THR27       0.2617
     41  O         20.1320   68.7610   18.6760 O.2    27  THR27      -0.2717
     42  CB        20.8040   68.4760   15.5310 C.3    27  THR27       0.1784
     43  OG1       21.9680   69.2850   15.4630 O.3    27  THR27      -0.2211
     44  CG2       20.3670   68.1170   14.1500 C.3    27  THR27       0.0376
     45  N         20.8950   70.7440   17.8520 N.am   28  ASN28      -0.1974
     46  CA        21.4530   71.2540   19.0950 C.3    28  ASN28       0.1688
     47  C         20.4040   71.3600   20.1970 C.2    28  ASN28       0.2292
     48  O         20.7600   71.3630   21.3670 O.2    28  ASN28      -0.2864
     49  CB        22.1060   72.6070   18.8760 C.3    28  ASN28       0.1181
     50  CG        23.3450   72.8080   19.6860 C.2    28  ASN28       0.2629
     51  OD1       23.4820   73.7960   20.4060 O.2    28  ASN28      -0.2716
     52  ND2       24.2840   71.8800   19.5840 N.am   28  ASN28      -0.0877
     53  N         18.2620   69.0110   20.9740 N.3    30  ILE30      -0.1231
     54  CA        18.3150   67.7230   21.6760 C.3    30  ILE30       0.1692
     55  C         19.2260   67.7940   22.9180 C.2    30  ILE30       0.2591
     56  O         18.8540   67.3070   23.9860 O.2    30  ILE30      -0.2718
     57  CB        18.6670   66.5360   20.7260 C.3    30  ILE30       0.0266
     58  CG1       17.5620   66.3320   19.6460 C.3    30  ILE30       0.0019
     59  CG2       18.9450   65.2360   21.5170 C.3    30  ILE30       0.0020
     60  CD1       17.7820   65.1250   18.6660 C.3    30  ILE30       0.0001
     61  N         20.3780   68.4690   22.7880 N.am   31  LEU31      -0.1980
     62  CA        21.3390   68.6240   23.8750 C.3    31  LEU31       0.1596
     63  C         21.1240   69.8630   24.7470 C.2    31  LEU31       0.2287
     64  O         21.7610   69.9750   25.7920 O.2    31  LEU31      -0.2864
     65  CB        22.7620   68.6270   23.3090 C.3    31  LEU31       0.0297
     66  CG        23.2560   67.3300   22.6780 C.3    31  LEU31       0.0022
     67  CD1       24.6570   67.4960   22.1260 C.3    31  LEU31       0.0001
     68  CD2       23.2230   66.1690   23.6690 C.3    31  LEU31       0.0001
     69  N         12.2970   69.0420   13.0020 N.3    47  MET47      -0.1245
     70  CA        13.0730   67.9790   12.3670 C.3    47  MET47       0.1570
     71  C         12.3440   67.3360   11.2160 C.2    47  MET47       0.2261
     72  O         12.9080   67.2740   10.1290 O.2    47  MET47      -0.2867
     73  CB        13.5370   66.9290   13.3930 C.3    47  MET47       0.0387
     74  CG        14.6860   67.4040   14.2130 C.3    47  MET47       0.0595
     75  SD        15.6700   66.0580   14.8680 S.3    47  MET47      -0.1393
     76  CE        17.1960   66.7220   14.7340 C.3    47  MET47       0.0692
     77  N         14.9180   57.0720    8.2280 N.3    88  ARG88      -0.1245
     78  CA        15.9770   58.0180    8.5310 C.3    88  ARG88       0.1563
     79  C         16.2180   58.0470   10.0370 C.2    88  ARG88       0.2260
     80  O         17.3650   58.0510   10.4740 O.2    88  ARG88      -0.2867
     81  CB        15.6140   59.4060    7.9750 C.3    88  ARG88       0.0307
     82  CG        16.6060   60.4960    8.3190 C.3    88  ARG88       0.0489
     83  CD        17.9470   60.2790    7.6590 C.3    88  ARG88       0.2205
     84  NE        18.8110   61.4270    7.8730 N.pl3  88  ARG88      -0.0865
     85  CZ        20.1050   61.4760    7.5780 C.cat  88  ARG88       0.5346
     86  NH1       20.8020   62.5650    7.7990 N.pl3  88  ARG88       0.1354
     87  NH2       20.7030   60.4190    7.0450 N.pl3  88  ARG88       0.1354
     88  N         19.7130   57.0370   12.0520 N.3    92  ILE92      -0.1245
     89  CA        20.3480   57.9530   12.9910 C.3    92  ILE92       0.1561
     90  C         20.3940   57.3080   14.3480 C.2    92  ILE92       0.2260
     91  O         21.4770   57.2210   14.9290 O.2    92  ILE92      -0.2867
     92  CB        19.7240   59.3900   13.0030 C.3    92  ILE92       0.0252
     93  CG1       19.7440   60.0730   11.6060 C.3    92  ILE92       0.0019
     94  CG2       20.4180   60.3080   14.0370 C.3    92  ILE92       0.0019
     95  CD1       21.1050   60.0260   10.8200 C.3    92  ILE92       0.0001
     96  N         23.2160   54.9350   15.2070 N.3    95  LYS95      -0.1231
     97  CA        24.5980   55.3970   15.1680 C.3    95  LYS95       0.1693
     98  C         25.1660   55.3920   16.5470 C.2    95  LYS95       0.2592
     99  O         24.4530   55.6350   17.5090 O.2    95  LYS95      -0.2718
    100  CB        24.7190   56.7640   14.4880 C.3    95  LYS95       0.0285
    101  CG        25.3570   56.6280   13.1180 C.3    95  LYS95       0.0035
    102  CD        24.6900   57.4860   12.0530 C.3    95  LYS95       0.0206
    103  CE        25.3270   57.3250   10.6800 C.3    95  LYS95       0.1093
    104  NZ        25.0510   55.9900   10.0600 N.3    95  LYS95      -0.1314
    105  N         26.4270   55.0510   16.6610 N.am   96  LYS96      -0.1966
    106  CA        27.1450   54.9860   17.9330 C.3    96  LYS96       0.1728
    107  C         27.3740   56.3880   18.5050 C.2    96  LYS96       0.2616
    108  O         28.2050   57.1390   17.9970 O.2    96  LYS96      -0.2715
    109  CB        28.4790   54.2240   17.7410 C.3    96  LYS96       0.0311
    110  CG        29.3270   54.0820   19.0060 C.3    96  LYS96       0.0038
    111  CD        28.5990   53.2700   20.0560 C.3    96  LYS96       0.0206
    112  CE        29.4080   53.0510   21.3040 C.3    96  LYS96       0.1093
    113  NZ        28.5800   52.4170   22.3640 N.3    96  LYS96      -0.1314
    114  N         26.6380   56.7350   19.5500 N.am   97  LEU97      -0.1977
    115  CA        26.7580   58.0440   20.1890 C.3    97  LEU97       0.1596
    116  C         27.6350   57.9260   21.4390 C.2    97  LEU97       0.2287
    117  O         27.8720   56.8160   21.9280 O.2    97  LEU97      -0.2864
    118  CB        25.3690   58.5990   20.5610 C.3    97  LEU97       0.0297
    119  CG        24.3170   58.8330   19.4710 C.3    97  LEU97       0.0022
    120  CD1       22.9990   59.2780   20.0970 C.3    97  LEU97       0.0001
    121  CD2       24.7850   59.8750   18.4570 C.3    97  LEU97       0.0001
    122  N         24.0930   59.5780   25.5760 N.3   101  HIS101     -0.1241
    123  CA        23.4920   60.4850   24.6100 C.3   101  HIS101      0.1621
    124  C         22.3210   59.7420   23.9590 C.2   101  HIS101      0.2264
    125  O         21.2810   60.3340   23.6870 O.2   101  HIS101     -0.2867
    126  CB        24.5100   60.9760   23.5860 C.3   101  HIS101      0.0745
    127  CG        25.4100   62.0470   24.1180 C.ar  101  HIS101      0.0817
    128  ND1       26.4980   61.7450   24.9310 N.ar  101  HIS101     -0.2268
    129  CD2       25.3720   63.3860   23.9230 C.ar  101  HIS101      0.1154
    130  CE1       27.0810   62.9070   25.2040 C.ar  101  HIS101      0.1986
    131  NE2       26.4310   63.9250   24.6360 N.ar  101  HIS101     -0.2212
    132  N         19.5430   59.8020   26.4560 N.3   104  LEU104     -0.1231
    133  CA        18.9360   61.1260   26.3780 C.3   104  LEU104      0.1693
    134  C         17.9120   61.1210   25.2470 C.2   104  LEU104      0.2591
    135  O         16.7620   61.5160   25.4460 O.2   104  LEU104     -0.2718
    136  CB        20.0350   62.1950   26.1240 C.3   104  LEU104      0.0284
    137  CG        19.5590   63.6370   25.8760 C.3   104  LEU104      0.0019
    138  CD1       19.0500   64.2750   27.1490 C.3   104  LEU104      0.0001
    139  CD2       20.6620   64.4800   25.3050 C.3   104  LEU104      0.0001
    140  N         18.3150   60.6080   24.0770 N.am  105  LEU105     -0.1980
    141  CA        17.4770   60.5030   22.8910 C.3   105  LEU105      0.1596
    142  C         16.2440   59.6810   23.1610 C.2   105  LEU105      0.2287
    143  O         15.1210   60.1730   22.9750 O.2   105  LEU105     -0.2864
    144  CB        18.2910   59.9480   21.7200 C.3   105  LEU105      0.0297
    145  CG        17.6150   59.8750   20.3510 C.3   105  LEU105      0.0022
    146  CD1       17.0980   61.2310   19.8890 C.3   105  LEU105      0.0001
    147  CD2       18.5280   59.2510   19.3540 C.3   105  LEU105      0.0001
@<TRIPOS>BOND
     1     9     7   am
     2     6     7    1
     3     6     5    1
     4     1     2    1
     5     7     8    2
     6    20    18    1
     7     2     5    1
     8     2     3    1
     9    18    19    1
    10    18    17    2
    11    17    16    1
    12     3    10   am
    13     3     4    2
    14    16    15    1
    15    10    11    1
    16    15    14    1
    17    14    11    1
    18    11    12    1
    19    13    12    2
    20    87    85    1
    21    12    21   am
    22    85    86    1
    23    85    84    2
    24    83    84    1
    25    83    82    1
    26    81    82    1
    27    81    78    1
    28    77    78    1
    29    21    22    1
    30    78    79    1
    31    22    23    1
    32    22    25    1
    33    79    80    2
    34   104   103    1
    35    23    24    2
    36    72    71    2
    37    28    27    1
    38    25    26    1
    39   103   102    1
    40    27    26    1
    41    95    93    1
    42    71    70    1
    43    93    92    1
    44    88    89    1
    45   102   101    1
    46    70    69    1
    47    70    73    1
    48    29    30    1
    49    37    35   am
    50    35    34    1
    51    35    36    2
    52    34    33    1
    53    89    92    1
    54    89    90    1
    55    92    94    1
    56   101   100    1
    57    73    74    1
    58    30    33    1
    59    30    31    1
    60    44    42    1
    61    74    75    1
    62    90    91    2
    63   100    97    1
    64    76    75    1
    65    31    32    2
    66    97    96    1
    67    97    98    1
    68    43    42    1
    69    42    39    1
    70    38    39    1
    71    39    40    1
    72    98   105   am
    73    98    99    2
    74   105   106    1
    75    40    45   am
    76    40    41    2
    77   109   106    1
    78   109   110    1
    79    45    46    1
    80   106   107    1
    81   108   107    2
    82   121   119    1
    83   107   114   am
    84    60    58    1
    85    49    46    1
    86    49    50    1
    87   110   111    1
    88    46    47    1
    89   147   145    1
    90   119   120    1
    91   119   118    1
    92   114   115    1
    93    52    50   am
    94    58    57    1
    95    50    51    2
    96   146   145    1
    97   111   112    1
    98   115   118    1
    99   115   116    1
   100    47    48    2
   101   145   144    1
   102    57    59    1
   103    57    54    1
   104    53    54    1
   105   112   113    1
   106   116   117    2
   107    54    55    1
   108   144   141    1
   109    67    66    1
   110    66    65    1
   111    66    68    1
   112    61    55   am
   113    61    62    1
   114   141   142    1
   115   141   140    1
   116    55    56    2
   117   143   142    2
   118    65    62    1
   119   126   127    1
   120   126   123    1
   121   125   124    2
   122    62    63    1
   123   129   127   ar
   124   129   131   ar
   125   124   123    1
   126   140   134   am
   127   127   128   ar
   128   123   122    1
   129   131   130   ar
   130    63    64    2
   131   128   130   ar
   132   134   135    2
   133   134   133    1
   134   139   137    1
   135   137   136    1
   136   137   138    1
   137   136   133    1
   138   133   132    1
