@<TRIPOS>MOLECULE
tmp/3okhA02.pdb
 233 222 0 0 0
SMALL
GASTEIGER

@<TRIPOS>ATOM
      1  N         21.0300   68.3030    8.3780 N.3    22  MET22      -0.1245
      2  CA        20.0310   68.7150    9.3300 C.3    22  MET22       0.1570
      3  C         20.6540   69.8750   10.0850 C.2    22  MET22       0.2261
      4  O         21.6640   69.6750   10.7660 O.2    22  MET22      -0.2867
      5  CB        19.6020   67.5450   10.2410 C.3    22  MET22       0.0387
      6  CG        18.5780   67.9180   11.3120 C.3    22  MET22       0.0595
      7  SD        16.9600   68.4240   10.7100 S.3    22  MET22      -0.1393
      8  CE        16.3080   66.8270   10.1850 C.3    22  MET22       0.0692
      9  N         18.2620   69.0110   20.9740 N.3    30  ILE30      -0.1245
     10  CA        18.3150   67.7230   21.6760 C.3    30  ILE30       0.1561
     11  C         19.2260   67.7940   22.9180 C.2    30  ILE30       0.2260
     12  O         18.8540   67.3070   23.9860 O.2    30  ILE30      -0.2867
     13  CB        18.6670   66.5360   20.7260 C.3    30  ILE30       0.0252
     14  CG1       17.5620   66.3320   19.6460 C.3    30  ILE30       0.0019
     15  CG2       18.9450   65.2360   21.5170 C.3    30  ILE30       0.0019
     16  CD1       17.7820   65.1250   18.6660 C.3    30  ILE30       0.0001
     17  N          9.8890   68.4090   23.4770 N.3    40  ASN40      -0.1240
     18  CA        10.2170   67.2060   22.7020 C.3    40  ASN40       0.1653
     19  C          9.3180   67.1050   21.4740 C.2    40  ASN40       0.2266
     20  O          9.7990   66.7600   20.4010 O.2    40  ASN40      -0.2867
     21  CB        10.1460   65.9360   23.5680 C.3    40  ASN40       0.1155
     22  CG        11.1190   65.9310   24.7170 C.2    40  ASN40       0.2627
     23  OD1       12.1770   66.5480   24.6560 O.2    40  ASN40      -0.2716
     24  ND2       10.7870   65.2350   25.7960 N.am   40  ASN40      -0.0877
     25  N         10.7200   69.6460   18.9230 N.3    43  ILE43      -0.1231
     26  CA        11.8800   69.0810   18.2150 C.3    43  ILE43       0.1692
     27  C         11.4330   68.2010   17.0580 C.2    43  ILE43       0.2591
     28  O         11.8790   68.4100   15.9290 O.2    43  ILE43      -0.2718
     29  CB        12.8730   68.3480   19.1700 C.3    43  ILE43       0.0266
     30  CG1       13.4420   69.3220   20.2220 C.3    43  ILE43       0.0019
     31  CG2       13.9960   67.6870   18.3670 C.3    43  ILE43       0.0020
     32  CD1       14.1790   68.7180   21.3940 C.3    43  ILE43       0.0001
     33  N         10.5360   67.2430   17.3300 N.am   44  LEU44      -0.1980
     34  CA         9.9870   66.3510   16.3150 C.3    44  LEU44       0.1596
     35  C          9.4400   67.1490   15.1420 C.2    44  LEU44       0.2287
     36  O          9.7290   66.7970   13.9910 O.2    44  LEU44      -0.2864
     37  CB         8.8640   65.4620   16.9120 C.3    44  LEU44       0.0297
     38  CG         7.8990   64.7500   15.9280 C.3    44  LEU44       0.0022
     39  CD1        8.5860   63.6960   15.0990 C.3    44  LEU44       0.0001
     40  CD2        6.7530   64.1370   16.6580 C.3    44  LEU44       0.0001
     41  N         12.2970   69.0420   13.0020 N.3    47  MET47      -0.1230
     42  CA        13.0730   67.9790   12.3670 C.3    47  MET47       0.1702
     43  C         12.3440   67.3360   11.2160 C.2    47  MET47       0.2592
     44  O         12.9080   67.2740   10.1290 O.2    47  MET47      -0.2718
     45  CB        13.5370   66.9290   13.3930 C.3    47  MET47       0.0401
     46  CG        14.6860   67.4040   14.2130 C.3    47  MET47       0.0596
     47  SD        15.6700   66.0580   14.8680 S.3    47  MET47      -0.1393
     48  CE        17.1960   66.7220   14.7340 C.3    47  MET47       0.0692
     49  N         11.0970   66.8500   11.4470 N.am   48  ALA48      -0.1980
     50  CA        10.2660   66.1920   10.4250 C.3    48  ALA48       0.1597
     51  C          9.8680   67.1440    9.2830 C.2    48  ALA48       0.2287
     52  O          9.5770   66.6770    8.1950 O.2    48  ALA48      -0.2864
     53  CB         9.0250   65.5800   11.0530 C.3    48  ALA48       0.0319
     54  N         13.0190   67.4920    7.2400 N.3    51  HIS51      -0.1241
     55  CA        13.1310   66.2030    6.5580 C.3    51  HIS51       0.1621
     56  C         12.3070   66.1770    5.2840 C.2    51  HIS51       0.2264
     57  O         12.7920   65.7180    4.2470 O.2    51  HIS51      -0.2867
     58  CB        12.8220   65.0070    7.4750 C.3    51  HIS51       0.0745
     59  CG        12.9980   63.7080    6.7620 C.ar   51  HIS51       0.0817
     60  ND1       11.9030   62.9460    6.3590 N.ar   51  HIS51      -0.2268
     61  CD2       14.1270   63.1070    6.3260 C.ar   51  HIS51       0.1154
     62  CE1       12.4090   61.9160    5.7010 C.ar   51  HIS51       0.1986
     63  NE2       13.7370   61.9500    5.6880 N.ar   51  HIS51      -0.2212
     64  N         10.8280   58.9950    6.8380 N.3    85  MET85      -0.1230
     65  CA        11.1960   59.6760    8.0730 C.3    85  MET85       0.1702
     66  C         11.6640   58.6910    9.1440 C.2    85  MET85       0.2592
     67  O         12.6580   58.9620    9.8190 O.2    85  MET85      -0.2718
     68  CB        10.0290   60.5430    8.5850 C.3    85  MET85       0.0401
     69  CG        10.1580   60.9460   10.0580 C.3    85  MET85       0.0596
     70  SD         8.6170   61.3980   10.9020 S.3    85  MET85      -0.1393
     71  CE         7.5960   59.9030   10.6150 C.3    85  MET85       0.0692
     72  N         10.9130   57.5730    9.3120 N.am   86  PHE86      -0.1976
     73  CA        11.1660   56.5230   10.2930 C.3    86  PHE86       0.1639
     74  C         12.3750   55.7280    9.8920 C.2    86  PHE86       0.2290
     75  O         13.0900   55.2120   10.7460 O.2    86  PHE86      -0.2864
     76  CB         9.9330   55.5990   10.4600 C.3    86  PHE86       0.0560
     77  CG         8.8090   56.1450   11.3160 C.ar   86  PHE86      -0.0200
     78  CD1        9.0310   56.5180   12.6410 C.ar   86  PHE86      -0.0042
     79  CD2        7.5140   56.2120   10.8300 C.ar   86  PHE86      -0.0042
     80  CE1        7.9820   56.9940   13.4410 C.ar   86  PHE86      -0.0003
     81  CE2        6.4610   56.6700   11.6430 C.ar   86  PHE86      -0.0003
     82  CZ         6.7100   57.0890   12.9270 C.ar   86  PHE86      -0.0000
     83  N         14.9180   57.0720    8.2280 N.3    88  ARG88      -0.1231
     84  CA        15.9770   58.0180    8.5310 C.3    88  ARG88       0.1694
     85  C         16.2180   58.0470   10.0370 C.2    88  ARG88       0.2592
     86  O         17.3650   58.0510   10.4740 O.2    88  ARG88      -0.2718
     87  CB        15.6140   59.4060    7.9750 C.3    88  ARG88       0.0321
     88  CG        16.6060   60.4960    8.3190 C.3    88  ARG88       0.0489
     89  CD        17.9470   60.2790    7.6590 C.3    88  ARG88       0.2205
     90  NE        18.8110   61.4270    7.8730 N.pl3  88  ARG88      -0.0865
     91  CZ        20.1050   61.4760    7.5780 C.cat  88  ARG88       0.5346
     92  NH1       20.8020   62.5650    7.7990 N.pl3  88  ARG88       0.1354
     93  NH2       20.7030   60.4190    7.0450 N.pl3  88  ARG88       0.1354
     94  N         15.1380   58.0110   10.8200 N.am   89  SER89      -0.1952
     95  CA        15.1880   57.9410   12.2770 C.3    89  SER89       0.1924
     96  C         15.8840   56.6630   12.7570 C.2    89  SER89       0.2314
     97  O         16.6800   56.7350   13.6850 O.2    89  SER89      -0.2863
     98  CB        13.7820   58.0360   12.8580 C.3    89  SER89       0.2116
     99  OG        13.2310   59.3010   12.5300 O.3    89  SER89      -0.2180
    100  N         19.7130   57.0370   12.0520 N.3    92  ILE92      -0.1231
    101  CA        20.3480   57.9530   12.9910 C.3    92  ILE92       0.1692
    102  C         20.3940   57.3080   14.3480 C.2    92  ILE92       0.2592
    103  O         21.4770   57.2210   14.9290 O.2    92  ILE92      -0.2718
    104  CB        19.7240   59.3900   13.0030 C.3    92  ILE92       0.0266
    105  CG1       19.7440   60.0730   11.6060 C.3    92  ILE92       0.0019
    106  CG2       20.4180   60.3080   14.0370 C.3    92  ILE92       0.0020
    107  CD1       21.1050   60.0260   10.8200 C.3    92  ILE92       0.0001
    108  N         19.2340   56.7980   14.8260 N.am   93  PHE93      -0.1976
    109  CA        19.1090   56.1360   16.1060 C.3    93  PHE93       0.1639
    110  C         20.1680   55.0370   16.2490 C.2    93  PHE93       0.2290
    111  O         20.7120   54.8480   17.3300 O.2    93  PHE93      -0.2864
    112  CB        17.6950   55.5420   16.2530 C.3    93  PHE93       0.0560
    113  CG        17.4080   54.8770   17.5780 C.ar   93  PHE93      -0.0200
    114  CD1       16.9380   55.6180   18.6600 C.ar   93  PHE93      -0.0042
    115  CD2       17.6380   53.5160   17.7550 C.ar   93  PHE93      -0.0042
    116  CE1       16.6700   55.0000   19.8890 C.ar   93  PHE93      -0.0003
    117  CE2       17.3990   52.9060   18.9850 C.ar   93  PHE93      -0.0003
    118  CZ        16.9020   53.6510   20.0390 C.ar   93  PHE93      -0.0000
    119  N         26.6380   56.7350   19.5500 N.3    97  LEU97      -0.1245
    120  CA        26.7580   58.0440   20.1890 C.3    97  LEU97       0.1561
    121  C         27.6350   57.9260   21.4390 C.2    97  LEU97       0.2260
    122  O         27.8720   56.8160   21.9280 O.2    97  LEU97      -0.2867
    123  CB        25.3690   58.5990   20.5610 C.3    97  LEU97       0.0270
    124  CG        24.3170   58.8330   19.4710 C.3    97  LEU97       0.0019
    125  CD1       22.9990   59.2780   20.0970 C.3    97  LEU97       0.0001
    126  CD2       24.7850   59.8750   18.4570 C.3    97  LEU97       0.0001
    127  N         18.3150   60.6080   24.0770 N.3   105  LEU105     -0.1245
    128  CA        17.4770   60.5030   22.8910 C.3   105  LEU105      0.1561
    129  C         16.2440   59.6810   23.1610 C.2   105  LEU105      0.2260
    130  O         15.1210   60.1730   22.9750 O.2   105  LEU105     -0.2867
    131  CB        18.2910   59.9480   21.7200 C.3   105  LEU105      0.0270
    132  CG        17.6150   59.8750   20.3510 C.3   105  LEU105      0.0019
    133  CD1       17.0980   61.2310   19.8890 C.3   105  LEU105      0.0001
    134  CD2       18.5280   59.2510   19.3540 C.3   105  LEU105      0.0001
    135  N         13.6870   61.4320   25.3640 N.3   108  ARG108     -0.1231
    136  CA        12.9320   62.4210   24.5930 C.3   108  ARG108      0.1694
    137  C         11.8820   61.7590   23.7540 C.2   108  ARG108      0.2591
    138  O         10.7310   62.1590   23.8360 O.2   108  ARG108     -0.2718
    139  CB        13.8590   63.2720   23.7230 C.3   108  ARG108      0.0321
    140  CG        14.8040   64.1690   24.5060 C.3   108  ARG108      0.0489
    141  CD        15.1030   65.4190   23.6970 C.3   108  ARG108      0.2205
    142  NE        15.9420   66.3760   24.4380 N.pl3 108  ARG108     -0.0865
    143  CZ        15.4850   67.4020   25.1600 C.cat 108  ARG108      0.5346
    144  NH1       16.3350   68.2070   25.7640 N.pl3 108  ARG108      0.1354
    145  NH2       14.1890   67.6410   25.2610 N.pl3 108  ARG108      0.1354
    146  N         12.2440   60.7070   22.9870 N.am  109  ILE109     -0.1980
    147  CA        11.3140   59.9480   22.1520 C.3   109  ILE109      0.1595
    148  C         10.0840   59.5190   23.0030 C.2   109  ILE109      0.2287
    149  O          8.9440   59.5900   22.5330 O.2   109  ILE109     -0.2864
    150  CB        12.0100   58.7210   21.4920 C.3   109  ILE109      0.0276
    151  CG1       13.0210   59.1240   20.4220 C.3   109  ILE109      0.0022
    152  CG2       10.9920   57.7790   20.9050 C.3   109  ILE109      0.0022
    153  CD1       13.9500   57.9670   19.8990 C.3   109  ILE109      0.0001
    154  N          7.2750   62.5070   24.4400 N.3   112  SER112     -0.1217
    155  CA         6.9460   63.3980   23.3180 C.3   112  SER112      0.1889
    156  C          5.4200   63.3180   22.8970 C.2   112  SER112      0.2288
    157  O          5.0420   63.7490   21.8050 O.2   112  SER112     -0.2866
    158  CB         7.9220   63.1840   22.1570 C.3   112  SER112      0.2089
    159  OG         7.6160   62.0280   21.4000 O.3   112  SER112     -0.2183
    160  N          3.5720   60.4100   22.7720 N.3   114  ILE114     -0.1245
    161  CA         3.2800   59.1590   22.0730 C.3   114  ILE114      0.1561
    162  C          3.0520   58.0610   23.1150 C.2   114  ILE114      0.2260
    163  O          3.8780   57.8860   24.0100 O.2   114  ILE114     -0.2867
    164  CB         4.4040   58.7920   21.0560 C.3   114  ILE114      0.0252
    165  CG1        4.4490   59.8210   19.9280 C.3   114  ILE114      0.0019
    166  CG2        4.2480   57.3670   20.4970 C.3   114  ILE114      0.0019
    167  CD1        5.0640   59.3550   18.5910 C.3   114  ILE114      0.0001
    168  N          8.1420   50.7280   17.7050 N.3   122  MET122     -0.1245
    169  CA         9.1180   51.6730   17.1480 C.3   122  MET122      0.1570
    170  C         10.5540   51.2080   17.4300 C.2   122  MET122      0.2261
    171  O         11.3400   51.0330   16.4900 O.2   122  MET122     -0.2867
    172  CB         8.8790   53.0490   17.7550 C.3   122  MET122      0.0387
    173  CG         9.5080   54.1700   16.9910 C.3   122  MET122      0.0595
    174  SD         8.8930   55.7360   17.6540 S.3   122  MET122     -0.1393
    175  CE         9.3630   55.5640   19.3380 C.3   122  MET122      0.0692
    176  N         13.6580   49.6850   15.2210 N.3   126  TYR126     -0.1241
    177  CA        14.9980   50.2600   15.3130 C.3   126  TYR126      0.1605
    178  C         16.0920   49.2030   15.5710 C.2   126  TYR126      0.2264
    179  O         17.0710   49.1920   14.8320 O.2   126  TYR126     -0.2867
    180  CB        15.0450   51.3570   16.3650 C.3   126  TYR126      0.0534
    181  CG        14.2690   52.6190   16.0550 C.ar  126  TYR126     -0.0201
    182  CD1       13.7480   52.8140   14.7680 C.ar  126  TYR126     -0.0009
    183  CD2       14.0730   53.6070   16.9870 C.ar  126  TYR126     -0.0009
    184  CE1       13.0060   53.9610   14.4800 C.ar  126  TYR126      0.0417
    185  CE2       13.3790   54.7740   16.6950 C.ar  126  TYR126      0.0417
    186  CZ        12.8280   54.9370   15.4400 C.ar  126  TYR126      0.1957
    187  OH        12.1220   56.0750   15.1540 O.3   126  TYR126     -0.2866
    188  N          1.2460   55.7140   13.0010 N.3   203  HIS203     -0.1241
    189  CA         1.4350   57.1650   12.8400 C.3   203  HIS203      0.1621
    190  C          0.0990   57.9120   12.8340 C.2   203  HIS203      0.2264
    191  O          0.0030   58.9240   13.5340 O.2   203  HIS203     -0.2867
    192  CB         2.2820   57.5020   11.5970 C.3   203  HIS203      0.0745
    193  CG         2.4920   58.9700   11.4180 C.ar  203  HIS203      0.0817
    194  ND1        1.8530   59.6630   10.4140 N.ar  203  HIS203     -0.2268
    195  CD2        3.2130   59.8410   12.1660 C.ar  203  HIS203      0.1154
    196  CE1        2.2210   60.9260   10.5640 C.ar  203  HIS203      0.1986
    197  NE2        3.0490   61.0790   11.5990 N.ar  203  HIS203     -0.2212
    198  N         -1.1670   57.8970   16.4000 N.3   206  MET206     -0.1245
    199  CA        -0.4480   58.9170   17.2060 C.3   206  MET206      0.1570
    200  C         -0.8320   60.3400   16.8220 C.2   206  MET206      0.2261
    201  O         -0.9650   61.1850   17.6990 O.2   206  MET206     -0.2867
    202  CB         1.0780   58.7810   17.1620 C.3   206  MET206      0.0387
    203  CG         1.5860   57.3990   16.8530 C.3   206  MET206      0.0595
    204  SD         3.3300   57.4660   16.3850 S.3   206  MET206     -0.1393
    205  CE         3.5600   55.8700   15.7650 C.3   206  MET206      0.0692
    206  N         -2.0430   63.5290   19.4790 N.3   210  TRP210     -0.1241
    207  CA        -1.4990   64.8870   19.6120 C.3   210  TRP210      0.1605
    208  C         -2.5810   65.9030   19.2240 C.2   210  TRP210      0.2264
    209  O         -2.6710   66.9660   19.8420 O.2   210  TRP210     -0.2867
    210  CB        -0.3220   65.0860   18.6580 C.3   210  TRP210      0.0550
    211  CG         0.9350   64.3460   18.9690 C.ar  210  TRP210      0.0003
    212  CD1        1.6460   64.3730   20.1370 C.ar  210  TRP210      0.0946
    213  CD2        1.7360   63.6220   18.0260 C.ar  210  TRP210      0.0152
    214  NE1        2.8050   63.6430   20.0000 N.ar  210  TRP210     -0.2442
    215  CE2        2.8920   63.1820   18.7070 C.ar  210  TRP210      0.0810
    216  CE3        1.5870   63.3070   16.6590 C.ar  210  TRP210      0.0012
    217  CZ2        3.9040   62.4650   18.0620 C.ar  210  TRP210      0.0191
    218  CZ3        2.5560   62.5430   16.0370 C.ar  210  TRP210      0.0001
    219  CH2        3.6950   62.1160   16.7380 C.ar  210  TRP210      0.0015
    220  N          1.0530   64.9240    6.2420 N.3   225  TRP225     -0.1241
    221  CA         0.4260   63.9930    7.1770 C.3   225  TRP225      0.1605
    222  C         -1.1070   64.0020    7.1650 C.2   225  TRP225      0.2264
    223  O         -1.7060   63.1130    7.7820 O.2   225  TRP225     -0.2867
    224  CB         0.9860   64.1590    8.6010 C.3   225  TRP225      0.0550
    225  CG         2.4570   63.8790    8.7600 C.ar  225  TRP225      0.0003
    226  CD1        3.2820   63.2340    7.8830 C.ar  225  TRP225      0.0946
    227  CD2        3.2500   64.1550    9.9200 C.ar  225  TRP225      0.0152
    228  NE1        4.5650   63.1840    8.3880 N.ar  225  TRP225     -0.2442
    229  CE2        4.5640   63.7080    9.6510 C.ar  225  TRP225      0.0810
    230  CE3        2.9760   64.7340   11.1670 C.ar  225  TRP225      0.0012
    231  CZ2        5.5910   63.8110   10.5850 C.ar  225  TRP225      0.0191
    232  CZ3        4.0030   64.8420   12.0930 C.ar  225  TRP225      0.0001
    233  CH2        5.2930   64.3950   11.7950 C.ar  225  TRP225      0.0015
@<TRIPOS>BOND
     1    57    56    2
     2    56    55    1
     3    63    62   ar
     4    63    61   ar
     5    62    60   ar
     6   220   221    1
     7    61    59   ar
     8    60    59   ar
     9    55    54    1
    10    55    58    1
    11    59    58    1
    12    64    65    1
    13    93    91    1
    14   222   221    1
    15   222   223    2
    16   221   224    1
    17    91    92    1
    18    91    90    2
    19    89    90    1
    20    89    88    1
    21   226   228   ar
    22   226   225   ar
    23    87    88    1
    24    87    84    1
    25    65    68    1
    26    65    66    1
    27    52    51    2
    28    83    84    1
    29     1     2    1
    30   228   229   ar
    31    84    85    1
    32    68    69    1
    33   224   225    1
    34   225   227   ar
    35    66    72   am
    36    66    67    2
    37    51    50    1
    38    72    73    1
    39     2     3    1
    40     2     5    1
    41   229   227   ar
    42   229   231   ar
    43    74    73    1
    44    74    75    2
    45   227   230   ar
    46    85    86    2
    47    85    94   am
    48    69    70    1
    49     3     4    2
    50    44    43    2
    51     8     7    1
    52     5     6    1
    53    73    76    1
    54   194   196   ar
    55   194   193   ar
    56    50    53    1
    57    50    49    1
    58    76    77    1
    59   196   197   ar
    60   231   233   ar
    61    71    70    1
    62     7     6    1
    63    94    95    1
    64   107   105    1
    65    79    77   ar
    66    79    81   ar
    67   230   232   ar
    68    43    49   am
    69    43    42    1
    70    77    78   ar
    71   193   192    1
    72   193   195   ar
    73   192   189    1
    74   197   195   ar
    75   105   104    1
    76    81    82   ar
    77   233   232   ar
    78   100   101    1
    79    95    96    1
    80    95    98    1
    81    42    41    1
    82    42    45    1
    83    99    98    1
    84    78    80   ar
    85    96    97    2
    86   190   189    1
    87   190   191    2
    88   189   188    1
    89    82    80   ar
    90   101   104    1
    91   101   102    1
    92   104   106    1
    93    45    46    1
    94    36    35    2
    95    46    47    1
    96   102   108   am
    97   102   103    2
    98   184   182   ar
    99   184   186   ar
   100    48    47    1
   101   182   181   ar
   102   108   109    1
   103   179   178    2
   104    39    38    1
   105    35    34    1
   106   187   186    1
   107   176   177    1
   108   177   178    1
   109   177   180    1
   110   186   185   ar
   111   205   204    1
   112    38    40    1
   113    38    37    1
   114    28    27    2
   115   218   216   ar
   116   218   219   ar
   117   181   180    1
   118   181   183   ar
   119   109   110    1
   120   109   112    1
   121   110   111    2
   122   112   113    1
   123    34    37    1
   124    34    33    1
   125   204   203    1
   126   198   199    1
   127   171   170    2
   128   216   213   ar
   129   185   183   ar
   130   219   217   ar
   131   200   199    1
   132   200   201    2
   133   203   202    1
   134   173   174    1
   135   173   172    1
   136    27    33   am
   137    27    26    1
   138   169   170    1
   139   169   168    1
   140   169   172    1
   141   202   199    1
   142   113   115   ar
   143   113   114   ar
   144   174   175    1
   145   115   117   ar
   146   213   215   ar
   147   213   211   ar
   148   217   215   ar
   149    26    25    1
   150    26    29    1
   151    31    29    1
   152   126   124    1
   153   167   165    1
   154   210   211    1
   155   210   207    1
   156   114   116   ar
   157    16    14    1
   158   215   214   ar
   159   211   212   ar
   160   117   118   ar
   161    29    30    1
   162   208   207    1
   163   208   209    2
   164   134   132    1
   165   124   125    1
   166   124   123    1
   167   206   207    1
   168   119   120    1
   169    14    13    1
   170   116   118   ar
   171   133   132    1
   172   153   151    1
   173   165   164    1
   174   214   212   ar
   175   120   123    1
   176   120   121    1
   177    30    32    1
   178   132   131    1
   179    20    19    2
   180   151   150    1
   181   166   164    1
   182    13    15    1
   183    13    10    1
   184   152   150    1
   185     9    10    1
   186   164   161    1
   187   159   158    1
   188   121   122    2
   189    19    18    1
   190   150   147    1
   191    10    11    1
   192   131   128    1
   193   157   156    2
   194   161   160    1
   195   161   162    1
   196   147   146    1
   197   147   148    1
   198   158   155    1
   199   149   148    2
   200    18    17    1
   201    18    21    1
   202   128   129    1
   203   128   127    1
   204   156   155    1
   205    11    12    2
   206   130   129    2
   207   146   137   am
   208   162   163    2
   209   155   154    1
   210    21    22    1
   211   141   142    1
   212   141   140    1
   213   139   140    1
   214   139   136    1
   215   137   138    2
   216   137   136    1
   217   142   143    2
   218   136   135    1
   219    23    22    2
   220    22    24   am
   221   143   145    1
   222   143   144    1
