@<TRIPOS>MOLECULE
tmp/3okjY00.pdb
 139 131 0 0 0
SMALL
GASTEIGER

@<TRIPOS>ATOM
      1  N         57.0720 -153.6070    8.2000 N.3     1  THR1       -0.1218
      2  CA        57.0520 -154.3260    6.9080 C.3     1  THR1        0.1862
      3  C         56.5810 -153.6810    5.6640 C.2     1  THR1        0.2287
      4  O         55.4520 -153.1220    5.5390 O.2     1  THR1       -0.2866
      5  CB        56.2990 -155.5780    6.8510 C.3     1  THR1        0.1770
      6  OG1       56.9470 -156.4650    7.8380 O.3     1  THR1       -0.2211
      7  CG2       56.4720 -156.2970    5.4440 C.3     1  THR1        0.0375
      8  N         63.3450 -154.4190    7.7450 N.3    19  ARG19      -0.1231
      9  CA        63.3250 -153.7310    9.0330 C.3    19  ARG19       0.1694
     10  C         62.3400 -154.3680   10.0270 C.2    19  ARG19       0.2592
     11  O         61.2430 -154.8300    9.6540 O.2    19  ARG19      -0.2718
     12  CB        62.9930 -152.2430    8.8260 C.3    19  ARG19       0.0321
     13  CG        62.7890 -151.4670   10.1080 C.3    19  ARG19       0.0489
     14  CD        62.4620 -150.0190    9.8240 C.3    19  ARG19       0.2205
     15  NE        63.6610 -149.1920    9.7760 N.pl3  19  ARG19      -0.0865
     16  CZ        63.6640 -147.8820    9.5460 C.cat  19  ARG19       0.5346
     17  NH1       62.5270 -147.2310    9.3360 N.pl3  19  ARG19       0.1354
     18  NH2       64.8110 -147.2180    9.5250 N.pl3  19  ARG19       0.1354
     19  N         62.7410 -154.3980   11.2940 N.am   20  ALA20      -0.1966
     20  CA        61.8990 -154.9610   12.3420 C.3    20  ALA20       0.1728
     21  C         61.7980 -153.9830   13.5030 C.2    20  ALA20       0.2617
     22  O         62.8120 -153.5800   14.0790 O.2    20  ALA20      -0.2715
     23  CB        62.4740 -156.2920   12.8290 C.3    20  ALA20       0.0334
     24  N         60.5650 -153.6160   13.8480 N.am   21  THR21      -0.1937
     25  CA        60.3250 -152.6830   14.9520 C.3    21  THR21       0.2028
     26  C         59.5020 -153.2680   16.1110 C.2    21  THR21       0.2642
     27  O         58.9040 -154.3580   16.0030 O.2    21  THR21      -0.2714
     28  CB        59.6050 -151.4180   14.4470 C.3    21  THR21       0.1808
     29  OG1       58.6420 -151.7850   13.4470 O.3    21  THR21      -0.2208
     30  CG2       60.6020 -150.4370   13.8670 C.3    21  THR21       0.0379
     31  N         59.5200 -152.5340   17.2230 N.am   22  ALA22      -0.1963
     32  CA        58.7630 -152.8510   18.4420 C.3    22  ALA22       0.1728
     33  C         58.4390 -151.4600   18.9610 C.2    22  ALA22       0.2616
     34  O         59.1530 -150.8960   19.7830 O.2    22  ALA22      -0.2715
     35  CB        59.6190 -153.5890   19.4320 C.3    22  ALA22       0.0334
     36  N         57.3590 -150.8950   18.4520 N.am   23  GLY23      -0.1955
     37  CA        57.0190 -149.5520   18.8460 C.3    23  GLY23       0.1869
     38  C         57.8520 -148.6800   17.9240 C.2    23  GLY23       0.2309
     39  O         57.9010 -148.9180   16.7120 O.2    23  GLY23      -0.2863
     40  N         64.4790 -152.4760   15.9190 N.3    27  ALA27      -0.1245
     41  CA        65.2220 -153.6240   16.4300 C.3    27  ALA27       0.1562
     42  C         66.1840 -154.2680   15.4370 C.2    27  ALA27       0.2260
     43  O         67.2000 -154.8510   15.8300 O.2    27  ALA27      -0.2867
     44  CB        64.2530 -154.6610   16.9480 C.3    27  ALA27       0.0290
     45  N         66.5910 -158.2330    8.4000 N.3    31  VAL31      -0.1231
     46  CA        65.7060 -159.3800    8.5650 C.3    31  VAL31       0.1692
     47  C         65.3620 -160.0640    7.2430 C.2    31  VAL31       0.2592
     48  O         65.2080 -159.3910    6.2250 O.2    31  VAL31      -0.2718
     49  CB        64.3890 -158.9370    9.2660 C.3    31  VAL31       0.0266
     50  CG1       63.3270 -160.0170    9.1270 C.3    31  VAL31       0.0020
     51  CG2       64.6550 -158.6520   10.7410 C.3    31  VAL31       0.0020
     52  N         65.2460 -161.3950    7.2530 N.am   32  LYS32      -0.1966
     53  CA        64.8720 -162.1220    6.0350 C.3    32  LYS32       0.1728
     54  C         63.3640 -162.3130    6.0620 C.2    32  LYS32       0.2616
     55  O         62.8630 -163.2070    6.7380 O.2    32  LYS32      -0.2715
     56  CB        65.5560 -163.4880    5.9570 C.3    32  LYS32       0.0311
     57  CG        67.0690 -163.4270    5.7560 C.3    32  LYS32       0.0038
     58  CD        67.7510 -162.7700    6.9650 C.3    32  LYS32       0.0206
     59  CE        69.2780 -162.7080    6.8570 C.3    32  LYS32       0.1093
     60  NZ        69.8640 -162.0220    8.0680 N.3    32  LYS32      -0.1314
     61  N         62.6390 -161.4660    5.3360 N.am   33  LYS33      -0.1977
     62  CA        61.1820 -161.5350    5.3100 C.3    33  LYS33       0.1596
     63  C         60.6680 -162.4310    4.2030 C.2    33  LYS33       0.2287
     64  O         59.4760 -162.4390    3.8990 O.2    33  LYS33      -0.2864
     65  CB        60.5800 -160.1310    5.1660 C.3    33  LYS33       0.0298
     66  CG        60.7550 -159.2530    6.4120 C.3    33  LYS33       0.0038
     67  CD        60.1450 -157.8700    6.2070 C.3    33  LYS33       0.0206
     68  CE        60.2840 -156.9990    7.4470 C.3    33  LYS33       0.1093
     69  NZ        59.6210 -155.6890    7.2280 N.3    33  LYS33      -0.1314
     70  N         56.8420 -162.4030    4.3610 N.3    45  MET45      -0.1230
     71  CA        56.3620 -162.1850    5.7160 C.3    45  MET45       0.1702
     72  C         56.0890 -160.7320    6.1020 C.2    45  MET45       0.2592
     73  O         56.9860 -159.8870    6.0680 O.2    45  MET45      -0.2718
     74  CB        57.3630 -162.7610    6.7070 C.3    45  MET45       0.0401
     75  CG        57.7930 -164.1680    6.4070 C.3    45  MET45       0.0596
     76  SD        59.1050 -164.6860    7.5150 S.3    45  MET45      -0.1393
     77  CE        59.2020 -166.4280    7.0940 C.3    45  MET45       0.0692
     78  N         54.8470 -160.4410    6.4810 N.am   46  ALA46      -0.1966
     79  CA        54.4780 -159.0930    6.9210 C.3    46  ALA46       0.1728
     80  C         53.6740 -159.2970    8.1950 C.2    46  ALA46       0.2617
     81  O         52.9300 -160.2700    8.3030 O.2    46  ALA46      -0.2715
     82  CB        53.6320 -158.3990    5.8750 C.3    46  ALA46       0.0334
     83  N         53.8540 -158.4120    9.1700 N.am   47  GLY47      -0.1940
     84  CA        53.1050 -158.5500   10.4050 C.3    47  GLY47       0.2014
     85  C         53.9310 -158.8760   11.6280 C.2    47  GLY47       0.2639
     86  O         54.9510 -158.2150   11.9110 O.2    47  GLY47      -0.2714
     87  N         53.4640 -159.8850   12.3650 N.am   48  GLY48      -0.1939
     88  CA        54.1420 -160.3330   13.5720 C.3    48  GLY48       0.2014
     89  C         55.2700 -161.2580   13.1640 C.2    48  GLY48       0.2639
     90  O         55.0470 -162.2460   12.4380 O.2    48  GLY48      -0.2714
     91  N         56.4840 -160.9460   13.6210 N.am   49  ALA49      -0.1963
     92  CA        57.6670 -161.7280   13.2610 C.3    49  ALA49       0.1728
     93  C         57.5150 -163.2010   13.6220 C.2    49  ALA49       0.2616
     94  O         57.5570 -164.0690   12.7370 O.2    49  ALA49      -0.2715
     95  CB        58.9010 -161.1340   13.9240 C.3    49  ALA49       0.0334
     96  N         57.3180 -163.4860   14.9100 N.am   50  ALA50      -0.1977
     97  CA        57.1650 -164.8670   15.3560 C.3    50  ALA50       0.1597
     98  C         56.0890 -165.5810   14.5540 C.2    50  ALA50       0.2287
     99  O         56.3340 -166.6430   13.9880 O.2    50  ALA50      -0.2864
    100  CB        56.8250 -164.9060   16.8240 C.3    50  ALA50       0.0319
    101  N         54.6930 -165.1070   11.5650 N.3    52  CYS52      -0.1221
    102  CA        55.0690 -165.4050   10.1820 C.3    52  CYS52       0.1808
    103  C         56.1540 -166.4680   10.1270 C.2    52  CYS52       0.2601
    104  O         55.9780 -167.5350    9.5350 O.2    52  CYS52      -0.2717
    105  CB        55.5750 -164.1450    9.4900 C.3    52  CYS52       0.0970
    106  SG        54.3100 -162.8950    9.2730 S.3    52  CYS52      -0.0800
    107  N         57.2800 -166.1580   10.7550 N.am   53  GLN53      -0.1979
    108  CA        58.4210 -167.0560   10.7920 C.3    53  GLN53       0.1601
    109  C         58.0330 -168.4840   11.1740 C.2    53  GLN53       0.2287
    110  O         58.3180 -169.4360   10.4460 O.2    53  GLN53      -0.2864
    111  CB        59.4390 -166.5260   11.7940 C.3    53  GLN53       0.0394
    112  CG        60.8430 -166.5220   11.2930 C.3    53  GLN53       0.0908
    113  CD        61.7790 -165.9290   12.3090 C.2    53  GLN53       0.2608
    114  OE1       62.0160 -166.5150   13.3760 O.2    53  GLN53      -0.2717
    115  NE2       62.3090 -164.7460   12.0010 N.am   53  GLN53      -0.0878
    116  N         48.8390 -162.4540   13.8610 N.3    96  SER96      -0.1217
    117  CA        48.9120 -161.3050   12.9870 C.3    96  SER96       0.1889
    118  C         49.9290 -161.5620   11.9070 C.2    96  SER96       0.2288
    119  O         51.1290 -161.6070   12.1710 O.2    96  SER96      -0.2866
    120  CB        49.3130 -160.0710   13.7740 C.3    96  SER96       0.2089
    121  OG        49.4700 -158.9620   12.9130 O.3    96  SER96      -0.2183
    122  N         52.7720 -152.4540    6.4950 N.3   131  SER131     -0.1217
    123  CA        52.5350 -151.0920    6.9330 C.3   131  SER131      0.1889
    124  C         52.8320 -150.1140    5.8160 C.2   131  SER131      0.2288
    125  O         52.2850 -149.0180    5.7880 O.2   131  SER131     -0.2866
    126  CB        53.4010 -150.7740    8.1430 C.3   131  SER131      0.2089
    127  OG        54.7440 -151.1300    7.8960 O.3   131  SER131     -0.2183
    128  N         57.8750 -147.4910    9.5530 N.3   170  TYR170     -0.1241
    129  CA        58.0310 -148.8730    9.9820 C.3   170  TYR170      0.1605
    130  C         58.5980 -149.8410    8.9340 C.2   170  TYR170      0.2264
    131  O         58.5410 -151.0800    9.0940 O.2   170  TYR170     -0.2867
    132  CB        56.6860 -149.3550   10.5370 C.3   170  TYR170      0.0534
    133  CG        56.3080 -148.5480   11.7530 C.ar  170  TYR170     -0.0201
    134  CD1       57.1390 -148.5380   12.8780 C.ar  170  TYR170     -0.0009
    135  CD2       55.1970 -147.7090   11.7510 C.ar  170  TYR170     -0.0009
    136  CE1       56.8860 -147.7050   13.9680 C.ar  170  TYR170      0.0417
    137  CE2       54.9350 -146.8690   12.8410 C.ar  170  TYR170      0.0417
    138  CZ        55.7910 -146.8730   13.9460 C.ar  170  TYR170      0.1957
    139  OH        55.5810 -146.0310   15.0210 O.3   170  TYR170     -0.2866
@<TRIPOS>BOND
     1    64    63    2
     2    63    62    1
     3    70    71    1
     4    65    62    1
     5    65    66    1
     6    62    61    1
     7    61    54   am
     8     7     5    1
     9     4     3    2
    10     3     2    1
    11    71    72    1
    12    71    74    1
    13    57    56    1
    14    57    58    1
    15   125   124    2
    16   124   123    1
    17    82    79    1
    18    56    53    1
    19    53    54    1
    20    53    52    1
    21    54    55    2
    22    73    72    2
    23    72    78   am
    24    67    66    1
    25    67    68    1
    26    48    47    2
    27    75    74    1
    28    75    76    1
    29    78    79    1
    30   122   123    1
    31     5     2    1
    32     5     6    1
    33    59    58    1
    34    59    60    1
    35     2     1    1
    36    79    80    1
    37   123   126    1
    38    77    76    1
    39    69    68    1
    40    47    52   am
    41    47    46    1
    42     8     9    1
    43   127   126    1
    44    80    81    2
    45    80    83   am
    46    45    46    1
    47    46    49    1
    48    12     9    1
    49    12    13    1
    50   130   131    2
    51   130   129    1
    52     9    10    1
    53    50    49    1
    54    83    84    1
    55    49    51    1
    56   106   105    1
    57    17    16    1
    58   105   102    1
    59    18    16    1
    60   104   103    2
    61    16    15    2
    62   128   129    1
    63    11    10    2
    64    15    14    1
    65    14    13    1
    66   129   132    1
    67    10    19   am
    68   103   102    1
    69   103   107   am
    70   102   101    1
    71    84    85    1
    72   110   109    2
    73   132   133    1
    74   107   108    1
    75   108   109    1
    76   108   111    1
    77   112   111    1
    78   112   113    1
    79    19    20    1
    80    85    86    2
    81    85    87   am
    82   135   133   ar
    83   135   137   ar
    84   133   134   ar
    85   118   119    2
    86   118   117    1
    87   115   113   am
    88   113   114    2
    89    20    23    1
    90    20    21    1
    91    87    88    1
    92    90    89    2
    93    94    93    2
    94   137   138   ar
    95   134   136   ar
    96   121   120    1
    97   117   120    1
    98   117   116    1
    99    89    88    1
   100    89    91   am
   101    92    91    1
   102    92    93    1
   103    92    95    1
   104    29    28    1
   105    21    24   am
   106    21    22    2
   107    93    96   am
   108    24    25    1
   109    30    28    1
   110   138   136   ar
   111   138   139    1
   112    99    98    2
   113    28    25    1
   114    98    97    1
   115    96    97    1
   116    25    26    1
   117    97   100    1
   118    42    43    2
   119    42    41    1
   120    40    41    1
   121    27    26    2
   122    26    31   am
   123    41    44    1
   124    39    38    2
   125    31    32    1
   126    38    37    1
   127    32    33    1
   128    32    35    1
   129    36    37    1
   130    36    33   am
   131    33    34    2
