@<TRIPOS>MOLECULE
tmp/3okrD00.pdb
 80 75 0 0 0
SMALL
GASTEIGER

@<TRIPOS>ATOM
      1  N         24.7270  -37.9330   22.6480 N.3    47  THR47      -0.1218
      2  CA        25.3270  -38.0030   21.3180 C.3    47  THR47       0.1862
      3  C         24.3510  -38.6300   20.3100 C.2    47  THR47       0.2287
      4  O         24.1410  -38.0920   19.2210 O.2    47  THR47      -0.2866
      5  CB        26.7100  -38.7480   21.3240 C.3    47  THR47       0.1770
      6  OG1       27.6160  -37.9520   22.1100 O.3    47  THR47      -0.2211
      7  CG2       27.2630  -38.9450   19.9240 C.3    47  THR47       0.0375
      8  N         22.3320  -36.6840   17.4460 N.3    51  ARG51      -0.1245
      9  CA        22.5390  -37.1330   16.0770 C.3    51  ARG51       0.1563
     10  C         21.2180  -37.3990   15.3510 C.2    51  ARG51       0.2260
     11  O         21.0510  -36.9950   14.1990 O.2    51  ARG51      -0.2867
     12  CB        23.4480  -38.3660   16.0460 C.3    51  ARG51       0.0307
     13  CG        23.7950  -38.7070   14.6080 C.3    51  ARG51       0.0489
     14  CD        24.7410  -39.8860   14.5800 C.3    51  ARG51       0.2205
     15  NE        24.1790  -40.9780   15.3440 N.pl3  51  ARG51      -0.0865
     16  CZ        24.9700  -41.6880   16.1440 C.cat  51  ARG51       0.5346
     17  NH1       26.2660  -41.3900   16.2260 N.pl3  51  ARG51       0.1354
     18  NH2       24.4630  -42.6750   16.8820 N.pl3  51  ARG51       0.1354
     19  N         22.8900  -33.9380   10.5090 N.3    56  HIS56      -0.1241
     20  CA        23.9200  -33.2360    9.7620 C.3    56  HIS56       0.1621
     21  C         23.3620  -31.9710    9.1160 C.2    56  HIS56       0.2264
     22  O         23.7410  -31.6110    8.0010 O.2    56  HIS56      -0.2867
     23  CB        24.5490  -34.1460    8.7170 C.3    56  HIS56       0.0745
     24  CG        25.4740  -35.1820    9.2980 C.ar   56  HIS56       0.0817
     25  ND1       26.7630  -35.3280    8.9200 N.ar   56  HIS56      -0.2268
     26  CD2       25.2690  -36.1280   10.2160 C.ar   56  HIS56       0.1154
     27  CE1       27.3390  -36.2960    9.5830 C.ar   56  HIS56       0.1986
     28  NE2       26.4510  -36.8000   10.4070 N.ar   56  HIS56      -0.2212
     29  N         24.0650  -29.9310   11.0670 N.3    58  ALA58      -0.1231
     30  CA        25.0650  -29.4100   11.9800 C.3    58  ALA58       0.1694
     31  C         26.1130  -30.4680   12.2910 C.2    58  ALA58       0.2592
     32  O         25.8470  -31.6730   12.2140 O.2    58  ALA58      -0.2718
     33  CB        24.4120  -28.9430   13.2670 C.3    58  ALA58       0.0304
     34  N         27.3100  -30.0000   12.6250 N.am   59  MET59      -0.1965
     35  CA        28.3290  -30.8450   13.2220 C.3    59  MET59       0.1736
     36  C         28.0100  -31.0510   14.7030 C.2    59  MET59       0.2616
     37  O         27.2050  -30.3150   15.3100 O.2    59  MET59      -0.2715
     38  CB        29.7010  -30.2040   13.0610 C.3    59  MET59       0.0427
     39  CG        29.7490  -29.2540   11.8830 C.3    59  MET59       0.0599
     40  SD        31.4000  -28.9730   11.2250 S.3    59  MET59      -0.1393
     41  CE        32.1900  -28.1690   12.6140 C.3    59  MET59       0.0692
     42  N         28.6430  -32.0640   15.2750 N.am   60  ILE60      -0.1963
     43  CA        28.3980  -32.4450   16.6470 C.3    60  ILE60       0.1727
     44  C         29.7280  -32.7620   17.2370 C.2    60  ILE60       0.2616
     45  O         30.4640  -33.5760   16.7020 O.2    60  ILE60      -0.2715
     46  CB        27.5480  -33.7300   16.7690 C.3    60  ILE60       0.0290
     47  CG1       26.0660  -33.4380   16.5380 C.3    60  ILE60       0.0022
     48  CG2       27.7360  -34.3560   18.1420 C.3    60  ILE60       0.0023
     49  CD1       25.7500  -33.0280   15.1410 C.3    60  ILE60       0.0001
     50  N         30.0500  -32.1040   18.3350 N.am   61  VAL61      -0.1963
     51  CA        31.2320  -32.4600   19.0700 C.3    61  VAL61       0.1727
     52  C         30.7320  -32.8600   20.4470 C.2    61  VAL61       0.2616
     53  O         29.8540  -32.2090   21.0040 O.2    61  VAL61      -0.2715
     54  CB        32.2430  -31.3050   19.0970 C.3    61  VAL61       0.0290
     55  CG1       31.5250  -30.0070   18.9810 C.3    61  VAL61       0.0023
     56  CG2       33.0930  -31.3510   20.3550 C.3    61  VAL61       0.0023
     57  N         31.2650  -33.9640   20.9610 N.am   62  ALA62      -0.1963
     58  CA        30.7530  -34.5870   22.1660 C.3    62  ALA62       0.1728
     59  C         31.9170  -34.9280   23.0720 C.2    62  ALA62       0.2616
     60  O         32.8510  -35.6280   22.6730 O.2    62  ALA62      -0.2715
     61  CB        30.0050  -35.8390   21.8160 C.3    62  ALA62       0.0334
     62  N         31.8360  -34.4370   24.2980 N.am   63  GLY63      -0.1955
     63  CA        32.8570  -34.6540   25.2930 C.3    63  GLY63       0.1869
     64  C         32.6520  -33.6290   26.3840 C.2    63  GLY63       0.2309
     65  O         31.9550  -32.6350   26.1810 O.2    63  GLY63      -0.2863
     66  N         36.2140  -27.8620   23.5810 N.3    73  LEU73      -0.1245
     67  CA        36.4170  -28.9540   22.6480 C.3    73  LEU73       0.1561
     68  C         36.0450  -28.5320   21.2550 C.2    73  LEU73       0.2260
     69  O         36.7540  -28.8020   20.2820 O.2    73  LEU73      -0.2867
     70  CB        35.5480  -30.1430   23.0430 C.3    73  LEU73       0.0270
     71  CG        36.3330  -31.2210   23.7710 C.3    73  LEU73       0.0019
     72  CD1       37.2870  -30.5570   24.7610 C.3    73  LEU73       0.0001
     73  CD2       35.3890  -32.1830   24.4620 C.3    73  LEU73       0.0001
     74  N         38.6130  -28.4890   18.0720 N.3    77  VAL77      -0.1245
     75  CA        38.0450  -29.0320   16.8440 C.3    77  VAL77       0.1561
     76  C         37.7990  -27.7320   16.1140 C.2    77  VAL77       0.2260
     77  O         37.4470  -26.7480   16.7510 O.2    77  VAL77      -0.2867
     78  CB        36.6740  -29.8610   17.0870 C.3    77  VAL77       0.0252
     79  CG1       36.1020  -30.4060   15.7830 C.3    77  VAL77       0.0019
     80  CG2       36.9760  -31.0450   18.0090 C.3    77  VAL77       0.0019
@<TRIPOS>BOND
     1    22    21    2
     2    23    24    1
     3    23    20    1
     4    25    24   ar
     5    25    27   ar
     6    21    20    1
     7    24    26   ar
     8    27    28   ar
     9    20    19    1
    10    26    28   ar
    11    29    30    1
    12    40    39    1
    13    40    41    1
    14    39    38    1
    15    30    31    1
    16    30    33    1
    17    32    31    2
    18    31    34   am
    19    34    35    1
    20    38    35    1
    21    35    36    1
    22    11    10    2
    23    14    13    1
    24    14    15    1
    25    13    12    1
    26    36    42   am
    27    36    37    2
    28    49    47    1
    29    42    43    1
    30    15    16    2
    31    10     9    1
    32    79    78    1
    33    12     9    1
    34     9     8    1
    35    76    77    2
    36    76    75    1
    37    16    17    1
    38    16    18    1
    39    47    46    1
    40    43    46    1
    41    43    44    1
    42    45    44    2
    43    46    48    1
    44    75    78    1
    45    75    74    1
    46    78    80    1
    47    44    50   am
    48    50    51    1
    49    55    54    1
    50    51    54    1
    51    51    52    1
    52    54    56    1
    53     4     3    2
    54     7     5    1
    55    69    68    2
    56     3     2    1
    57    52    57   am
    58    52    53    2
    59    57    58    1
    60    68    67    1
    61     2     5    1
    62     2     1    1
    63     5     6    1
    64    61    58    1
    65    58    59    1
    66    67    70    1
    67    67    66    1
    68    60    59    2
    69    70    71    1
    70    59    62   am
    71    71    73    1
    72    71    72    1
    73    62    63    1
    74    63    64    1
    75    65    64    2
