@<TRIPOS>MOLECULE
tmp/3okvA01.pdb
 103 98 0 0 0
SMALL
GASTEIGER

@<TRIPOS>ATOM
      1  N         -8.7640    0.2750    5.7880 N.3    64  GLN64      -0.1245
      2  CA        -9.6000    1.1470    6.5840 C.3    64  GLN64       0.1566
      3  C        -10.6600    1.7780    5.7350 C.2    64  GLN64       0.2260
      4  O        -10.3980    2.1500    4.5860 O.2    64  GLN64      -0.2867
      5  CB        -8.7610    2.2240    7.2580 C.3    64  GLN64       0.0367
      6  CG        -8.0420    3.1530    6.3130 C.3    64  GLN64       0.0905
      7  CD        -6.9330    3.9220    6.9960 C.2    64  GLN64       0.2608
      8  OE1       -6.1630    3.3500    7.7690 O.2    64  GLN64      -0.2717
      9  NE2       -6.8500    5.2230    6.7250 N.am   64  GLN64      -0.0878
     10  N        -12.9710    5.0520    5.7180 N.3    66  GLU66      -0.1245
     11  CA       -12.8890    6.3920    6.2660 C.3    66  GLU66       0.1567
     12  C        -14.2190    7.0930    6.0980 C.2    66  GLU66       0.2260
     13  O        -14.9230    6.8440    5.1080 O.2    66  GLU66      -0.2867
     14  CB       -11.8300    7.1740    5.5020 C.3    66  GLU66       0.0388
     15  CG       -10.4400    6.5520    5.6100 C.3    66  GLU66       0.1160
     16  CD        -9.4620    7.1100    4.6030 C.2    66  GLU66       0.3649
     17  OE1       -8.2670    6.7450    4.6800 O.co2  66  GLU66      -0.2457
     18  OE2       -9.8930    7.8890    3.7320 O.co2  66  GLU66      -0.2457
     19  N        -14.2160    8.5260   12.8150 N.3    88  ILE88      -0.1231
     20  CA       -13.3840    8.8790   11.6580 C.3    88  ILE88       0.1692
     21  C        -13.0670    7.7030   10.7250 C.2    88  ILE88       0.2591
     22  O        -12.9760    7.8810    9.5160 O.2    88  ILE88      -0.2718
     23  CB       -12.0890    9.6080   12.1080 C.3    88  ILE88       0.0266
     24  CG1      -11.2220   10.0140   10.9070 C.3    88  ILE88       0.0019
     25  CG2      -11.2860    8.7750   13.0800 C.3    88  ILE88       0.0020
     26  CD1      -10.1710   11.0570   11.2920 C.3    88  ILE88       0.0001
     27  N        -12.8990    6.4980   11.2570 N.am   89  GLN89      -0.1979
     28  CA       -12.5990    5.3590   10.4170 C.3    89  GLN89       0.1601
     29  C        -12.7910    4.0790   11.2020 C.2    89  GLN89       0.2287
     30  O        -12.8710    4.1060   12.4360 O.2    89  GLN89      -0.2864
     31  CB       -11.1640    5.4590    9.8820 C.3    89  GLN89       0.0394
     32  CG       -10.0680    5.4390   10.9370 C.3    89  GLN89       0.0908
     33  CD        -9.1850    4.2320   10.7680 C.2    89  GLN89       0.2608
     34  OE1       -9.5310    3.1530   11.2250 O.2    89  GLN89      -0.2717
     35  NE2       -8.0830    4.3920   10.0290 N.am   89  GLN89      -0.0878
     36  N         -8.4120   15.2640   14.7040 N.3   127  PHE127     -0.1227
     37  CA        -7.8390   13.9890   15.0690 C.3   127  PHE127      0.1736
     38  C         -6.3890   14.1210   15.4880 C.2   127  PHE127      0.2596
     39  O         -5.9850   13.5110   16.4800 O.2   127  PHE127     -0.2718
     40  CB        -7.9840   13.0410   13.8840 C.3   127  PHE127      0.0547
     41  CG        -7.3970   11.6910   14.1180 C.ar  127  PHE127     -0.0202
     42  CD1       -8.1210   10.6720   14.7380 C.ar  127  PHE127     -0.0042
     43  CD2       -6.1010   11.4460   13.7320 C.ar  127  PHE127     -0.0042
     44  CE1       -7.5400    9.4380   14.9500 C.ar  127  PHE127     -0.0003
     45  CE2       -5.5180   10.2150   13.9480 C.ar  127  PHE127     -0.0003
     46  CZ        -6.2400    9.2150   14.5490 C.ar  127  PHE127     -0.0000
     47  N         -5.5780   14.8840   14.7370 N.am  128  GLY128     -0.1957
     48  CA        -4.1670   14.9800   15.0590 C.3   128  GLY128      0.1869
     49  C         -3.8870   15.5970   16.4310 C.2   128  GLY128      0.2309
     50  O         -2.9080   15.2390   17.1060 O.2   128  GLY128     -0.2863
     51  N         -4.9800   12.8890   19.3180 N.3   131  VAL131     -0.1231
     52  CA        -4.0640   11.7790   19.6530 C.3   131  VAL131      0.1692
     53  C         -2.9530   12.2130   20.6150 C.2   131  VAL131      0.2591
     54  O         -2.2530   11.3560   21.1590 O.2   131  VAL131     -0.2718
     55  CB        -3.4390   11.0620   18.4310 C.3   131  VAL131      0.0266
     56  CG1       -4.5140   10.4820   17.5720 C.3   131  VAL131      0.0020
     57  CG2       -2.5360   11.9820   17.6230 C.3   131  VAL131      0.0020
     58  N         -2.7820   13.5170   20.8280 N.am  132  GLN132     -0.1979
     59  CA        -1.7900   14.0160   21.7810 C.3   132  GLN132      0.1601
     60  C         -2.3470   14.1500   23.2100 C.2   132  GLN132      0.2287
     61  O         -1.6740   14.6680   24.1060 O.2   132  GLN132     -0.2864
     62  CB        -1.2340   15.3610   21.2980 C.3   132  GLN132      0.0394
     63  CG        -0.6350   15.2990   19.8920 C.3   132  GLN132      0.0908
     64  CD         0.4790   14.2650   19.7640 C.2   132  GLN132      0.2608
     65  OE1        1.2400   14.0330   20.7010 O.2   132  GLN132     -0.2717
     66  NE2        0.5710   13.6390   18.6000 N.am  132  GLN132     -0.0878
     67  N         -2.9070    3.3430   21.3250 N.3   194  LEU194     -0.1245
     68  CA        -2.9060    2.7860   19.9660 C.3   194  LEU194      0.1561
     69  C         -2.1760    1.4500   20.0100 C.2   194  LEU194      0.2260
     70  O         -1.1900    1.2800   20.7410 O.2   194  LEU194     -0.2867
     71  CB        -2.1670    3.6920   18.9760 C.3   194  LEU194      0.0270
     72  CG        -2.6170    5.1470   18.9160 C.3   194  LEU194      0.0019
     73  CD1       -1.7620    5.9040   17.8770 C.3   194  LEU194      0.0001
     74  CD2       -4.0840    5.2690   18.6190 C.3   194  LEU194      0.0001
     75  N         -0.6580    0.1230   17.2700 N.3   196  THR196     -0.1204
     76  CA         0.4590    0.1750   16.3230 C.3   196  THR196      0.1979
     77  C          1.2820    1.4210   16.6190 C.2   196  THR196      0.2460
     78  O          0.7840    2.3740   17.2320 O.2   196  THR196     -0.2732
     79  CB         0.0330    0.2750   14.8300 C.3   196  THR196      0.1783
     80  OG1       -0.5650    1.5500   14.5650 O.3   196  THR196     -0.2211
     81  CG2       -0.9570   -0.7820   14.4860 C.3   196  THR196      0.0376
     82  N          2.5510    1.4290   16.1750 N.am  197  PRO197     -0.2718
     83  CA         3.3200    2.6720   16.2090 C.3   197  PRO197      0.1520
     84  C          2.4720    3.8030   15.6510 C.2   197  PRO197      0.2440
     85  O          1.7840    3.5930   14.6290 O.2   197  PRO197     -0.2731
     86  CB         4.5040    2.3400   15.3020 C.3   197  PRO197      0.0310
     87  CG         4.7500    0.8570   15.6120 C.3   197  PRO197      0.0237
     88  CD         3.3370    0.3030   15.6290 C.3   197  PRO197      0.0939
     89  N          2.5040    4.9760   16.2900 N.am  198  PRO198     -0.2727
     90  CA         3.3900    5.3810   17.3900 C.3   198  PRO198      0.1402
     91  C          2.9710    5.0240   18.8440 C.2   198  PRO198      0.2269
     92  O          3.6080    5.4920   19.7810 O.2   198  PRO198     -0.2865
     93  CB         3.4480    6.8990   17.2150 C.3   198  PRO198      0.0296
     94  CG         2.1520    7.2500   16.6420 C.3   198  PRO198      0.0237
     95  CD         1.7740    6.1260   15.7240 C.3   198  PRO198      0.0939
     96  N          0.6280    5.6970   20.9000 N.3   200  LEU200     -0.1245
     97  CA         0.3190    6.7920   21.7980 C.3   200  LEU200      0.1561
     98  C         -0.7320    6.3920   22.8460 C.2   200  LEU200      0.2260
     99  O         -1.7190    5.6910   22.5480 O.2   200  LEU200     -0.2867
    100  CB        -0.1830    8.0130   20.9940 C.3   200  LEU200      0.0270
    101  CG         0.8190    8.5840   19.9760 C.3   200  LEU200      0.0019
    102  CD1        0.1800    9.6280   19.0680 C.3   200  LEU200      0.0001
    103  CD2        2.0260    9.1420   20.6950 C.3   200  LEU200      0.0001
@<TRIPOS>BOND
     1    18    16   ar
     2     4     3    2
     3    16    17   ar
     4    16    15    1
     5    13    12    2
     6    14    15    1
     7    14    11    1
     8    10    11    1
     9     3     2    1
    10     1     2    1
    11    12    11    1
    12     6     7    1
    13     6     5    1
    14     2     5    1
    15     9     7   am
    16     7     8    2
    17    22    21    2
    18    31    28    1
    19    31    32    1
    20    35    33   am
    21    28    29    1
    22    28    27    1
    23    21    27   am
    24    21    20    1
    25    33    32    1
    26    33    34    2
    27    24    26    1
    28    24    23    1
    29    29    30    2
    30    20    23    1
    31    20    19    1
    32    23    25    1
    33    43    45   ar
    34    43    41   ar
    35    40    41    1
    36    40    37    1
    37    45    46   ar
    38    41    42   ar
    39    81    79    1
    40    46    44   ar
    41    80    79    1
    42    85    84    2
    43    36    37    1
    44    47    48    1
    45    47    38   am
    46    42    44   ar
    47    79    76    1
    48    48    49    1
    49    37    38    1
    50    86    87    1
    51    86    83    1
    52    38    39    2
    53    87    88    1
    54    88    82    1
    55    84    83    1
    56    84    89   am
    57    95    89    1
    58    95    94    1
    59    82    83    1
    60    82    77   am
    61    89    90    1
    62    76    77    1
    63    76    75    1
    64    49    50    2
    65    77    78    2
    66    94    93    1
    67    93    90    1
    68    90    91    1
    69    56    55    1
    70    57    55    1
    71    73    72    1
    72    55    52    1
    73    66    64   am
    74    74    72    1
    75    91    92    2
    76    72    71    1
    77    71    68    1
    78   102   101    1
    79    51    52    1
    80    52    53    1
    81    64    63    1
    82    64    65    2
    83    63    62    1
    84    68    69    1
    85    68    67    1
    86   101   103    1
    87   101   100    1
    88    69    70    2
    89    53    58   am
    90    53    54    2
    91    58    59    1
    92    96    97    1
    93   100    97    1
    94    62    59    1
    95    59    60    1
    96    97    98    1
    97    99    98    2
    98    60    61    2
