@<TRIPOS>MOLECULE
tmp/3okwA01.pdb
 80 75 0 0 0
SMALL
GASTEIGER

@<TRIPOS>ATOM
      1  N        -13.1400   94.8490   -7.3700 N.3   257  ARG257     -0.1245
      2  CA       -14.4890   95.3390   -7.1680 C.3   257  ARG257      0.1563
      3  C        -15.4270   94.7580   -8.2270 C.2   257  ARG257      0.2260
      4  O        -15.0650   94.6760   -9.4000 O.2   257  ARG257     -0.2867
      5  CB       -14.4610   96.8640   -7.2760 C.3   257  ARG257      0.0307
      6  CG       -15.8080   97.5640   -7.1830 C.3   257  ARG257      0.0489
      7  CD       -15.5930   99.0610   -7.3670 C.3   257  ARG257      0.2205
      8  NE       -16.8240   99.8360   -7.2640 N.pl3 257  ARG257     -0.0865
      9  CZ       -16.9090  101.1370   -7.5240 C.cat 257  ARG257      0.5346
     10  NH1      -15.8320  101.8160   -7.9030 N.pl3 257  ARG257      0.1354
     11  NH2      -18.0700  101.7600   -7.3970 N.pl3 257  ARG257      0.1354
     12  N        -18.7830   95.5050  -10.3560 N.3   259  ASN259     -0.1240
     13  CA       -19.5700   96.6460  -10.8130 C.3   259  ASN259      0.1653
     14  C        -21.0230   96.2570  -11.0660 C.2   259  ASN259      0.2266
     15  O        -21.3350   95.5910  -12.0530 O.2   259  ASN259     -0.2867
     16  CB       -18.9710   97.1870  -12.1120 C.3   259  ASN259      0.1155
     17  CG       -19.5480   98.5360  -12.5240 C.2   259  ASN259      0.2627
     18  OD1      -20.7090   98.8510  -12.2460 O.2   259  ASN259     -0.2716
     19  ND2      -18.7130   99.3470  -13.1920 N.am  259  ASN259     -0.0877
     20  N        -24.1090   98.6070  -11.4120 N.3   261  SER261     -0.1217
     21  CA       -24.5150  100.0030  -11.3920 C.3   261  SER261      0.1889
     22  C        -25.6240  100.3190  -12.3810 C.2   261  SER261      0.2288
     23  O        -25.8370   99.6050  -13.3740 O.2   261  SER261     -0.2866
     24  CB       -23.3200  100.9080  -11.6790 C.3   261  SER261      0.2089
     25  OG       -22.7460  100.5670  -12.9230 O.3   261  SER261     -0.2183
     26  N        -26.5520  103.0990  -15.0110 N.3   263  PRO263     -0.2116
     27  CA       -25.9240  104.1340  -15.8450 C.3   263  PRO263      0.1372
     28  C        -26.6360  105.4780  -15.7600 C.2   263  PRO263      0.2244
     29  O        -27.8490  105.5360  -15.9520 O.2   263  PRO263     -0.2868
     30  CB       -26.0510  103.5670  -17.2630 C.3   263  PRO263      0.0268
     31  CG       -27.1650  102.5640  -17.1810 C.3   263  PRO263      0.0207
     32  CD       -27.0410  101.9650  -15.8110 C.3   263  PRO263      0.0892
     33  N        -22.7410  107.4460  -11.9700 N.3   267  HIS267     -0.1241
     34  CA       -23.2470  106.0970  -11.7440 C.3   267  HIS267      0.1621
     35  C        -23.7410  105.8770  -10.3240 C.2   267  HIS267      0.2264
     36  O        -23.1890  106.4290   -9.3710 O.2   267  HIS267     -0.2867
     37  CB       -22.1920  105.0520  -12.0960 C.3   267  HIS267      0.0745
     38  CG       -21.8770  104.9920  -13.5540 C.ar  267  HIS267      0.0817
     39  ND1      -20.8560  105.7220  -14.1250 N.ar  267  HIS267     -0.2268
     40  CD2      -22.4570  104.3010  -14.5630 C.ar  267  HIS267      0.1154
     41  CE1      -20.8140  105.4750  -15.4210 C.ar  267  HIS267      0.1986
     42  NE2      -21.7790  104.6210  -15.7150 N.ar  267  HIS267     -0.2212
     43  N        -24.2090  102.8800   -7.6390 N.3   269  TYR269     -0.1241
     44  CA       -23.7540  101.5200   -7.3710 C.3   269  TYR269      0.1605
     45  C        -24.5400  100.8110   -6.2690 C.2   269  TYR269      0.2264
     46  O        -24.8720  101.4090   -5.2520 O.2   269  TYR269     -0.2867
     47  CB       -22.2660  101.5330   -6.9980 C.3   269  TYR269      0.0534
     48  CG       -21.3950  101.9630   -8.1410 C.ar  269  TYR269     -0.0201
     49  CD1      -20.8450  101.0330   -9.0030 C.ar  269  TYR269     -0.0009
     50  CD2      -21.1590  103.3050   -8.3810 C.ar  269  TYR269     -0.0009
     51  CE1      -20.0710  101.4270  -10.0620 C.ar  269  TYR269      0.0417
     52  CE2      -20.3880  103.7050   -9.4250 C.ar  269  TYR269      0.0417
     53  CZ       -19.8430  102.7680  -10.2660 C.ar  269  TYR269      0.1957
     54  OH       -19.0710  103.1890  -11.3220 O.3   269  TYR269     -0.2866
     55  N        -12.8100   97.3450  -12.1850 N.3   378  ALA378     -0.1245
     56  CA       -13.9780   96.6630  -11.6530 C.3   378  ALA378      0.1562
     57  C        -14.5740   95.7350  -12.7160 C.2   378  ALA378      0.2260
     58  O        -14.5190   96.0220  -13.9100 O.2   378  ALA378     -0.2867
     59  CB       -15.0130   97.6860  -11.1870 C.3   378  ALA378      0.0290
     60  N        -17.1970   94.3290  -15.0980 N.3   380  PRO380     -0.2102
     61  CA       -18.4670   94.8220  -15.6480 C.3   380  PRO380      0.1504
     62  C        -19.5380   93.7230  -15.6470 C.2   380  PRO380      0.2576
     63  O        -19.2250   92.5320  -15.8430 O.2   380  PRO380     -0.2718
     64  CB       -18.1050   95.2390  -17.0910 C.3   380  PRO380      0.0282
     65  CG       -16.6930   94.6990  -17.3540 C.3   380  PRO380      0.0208
     66  CD       -16.2800   93.8640  -16.1540 C.3   380  PRO380      0.0893
     67  N        -20.7900   94.1070  -15.4040 N.am  381  SER381     -0.1953
     68  CA       -21.8690   93.1340  -15.4970 C.3   381  SER381      0.1924
     69  C        -22.2370   92.9700  -16.9630 C.2   381  SER381      0.2314
     70  O        -21.9170   93.8200  -17.7920 O.2   381  SER381     -0.2863
     71  CB       -23.0880   93.5480  -14.6570 C.3   381  SER381      0.2116
     72  OG       -23.7000   94.7300  -15.1420 O.3   381  SER381     -0.2180
     73  N        -24.2970   95.8720  -18.4720 N.3   384  ASN384     -0.1240
     74  CA       -23.8710   97.1460  -17.8890 C.3   384  ASN384      0.1653
     75  C        -24.9860   97.8600  -17.1390 C.2   384  ASN384      0.2266
     76  O        -24.9120   99.0670  -16.8800 O.2   384  ASN384     -0.2867
     77  CB       -23.2980   98.0670  -18.9690 C.3   384  ASN384      0.1155
     78  CG       -22.2660   97.3680  -19.8380 C.2   384  ASN384      0.2627
     79  OD1      -21.1320   97.1400  -19.4130 O.2   384  ASN384     -0.2716
     80  ND2      -22.6560   97.0220  -21.0600 N.am  384  ASN384     -0.0877
@<TRIPOS>BOND
     1    80    78   am
     2    78    79    2
     3    78    77    1
     4    77    74    1
     5    73    74    1
     6    74    75    1
     7    70    69    2
     8    65    64    1
     9    65    66    1
    10    30    31    1
    11    30    27    1
    12    31    32    1
    13    75    76    2
    14    64    61    1
    15    69    68    1
    16    66    60    1
    17    29    28    2
    18    27    28    1
    19    27    26    1
    20    63    62    2
    21    32    26    1
    22    42    41   ar
    23    42    40   ar
    24    61    62    1
    25    61    60    1
    26    62    67   am
    27    68    67    1
    28    68    71    1
    29    41    39   ar
    30    72    71    1
    31    40    38   ar
    32    39    38   ar
    33    58    57    2
    34    38    37    1
    35    23    22    2
    36    19    17   am
    37    25    24    1
    38    57    56    1
    39    17    18    2
    40    17    16    1
    41    22    21    1
    42    55    56    1
    43    16    13    1
    44    37    34    1
    45    15    14    2
    46    33    34    1
    47    34    35    1
    48    24    21    1
    49    56    59    1
    50    20    21    1
    51    54    53    1
    52    14    13    1
    53    13    12    1
    54    35    36    2
    55    53    51   ar
    56    53    52   ar
    57    51    49   ar
    58    52    50   ar
    59     4     3    2
    60    49    48   ar
    61    50    48   ar
    62     3     2    1
    63    48    47    1
    64    10     9    1
    65    43    44    1
    66     9    11    1
    67     9     8    2
    68    44    47    1
    69    44    45    1
    70     1     2    1
    71     7     8    1
    72     7     6    1
    73     5     6    1
    74     5     2    1
    75    45    46    2
