@<TRIPOS>MOLECULE
tmp/3okxA00.pdb
 179 176 0 0 0
SMALL
GASTEIGER

@<TRIPOS>ATOM
      1  N         33.7970   12.9060    6.4750 N.3    32  LEU32      -0.1245
      2  CA        34.3890   11.5660    6.5630 C.3    32  LEU32       0.1561
      3  C         35.9160   11.5720    6.6090 C.2    32  LEU32       0.2260
      4  O         36.5180   10.7970    7.3600 O.2    32  LEU32      -0.2867
      5  CB        33.8760   10.6630    5.4330 C.3    32  LEU32       0.0270
      6  CG        32.4150   10.2110    5.5500 C.3    32  LEU32       0.0019
      7  CD1       31.9740    9.4900    4.2840 C.3    32  LEU32       0.0001
      8  CD2       32.1790    9.3300    6.7760 C.3    32  LEU32       0.0001
      9  N         37.5720   12.0610   10.0990 N.3    35  CYS35      -0.1221
     10  CA        37.4890   10.9770   11.0900 C.3    35  CYS35       0.1794
     11  C         38.7990   10.1880   11.1570 C.2    35  CYS35       0.2443
     12  O         39.3810    9.8930   10.1210 O.2    35  CYS35      -0.2733
     13  CB        36.3640    9.9990   10.7320 C.3    35  CYS35       0.0970
     14  SG        34.6900   10.6760   10.6700 S.3    35  CYS35      -0.0800
     15  N         39.2590    9.8270   12.3700 N.am   36  PRO36      -0.2718
     16  CA        40.3710    8.8820   12.4630 C.3    36  PRO36       0.1535
     17  C         39.9580    7.5250   11.8960 C.2    36  PRO36       0.2598
     18  O         38.7760    7.1930   11.8810 O.2    36  PRO36      -0.2715
     19  CB        40.6140    8.7700   13.9720 C.3    36  PRO36       0.0310
     20  CG        39.3440    9.1270   14.5900 C.3    36  PRO36       0.0237
     21  CD        38.7190   10.1670   13.7030 C.3    36  PRO36       0.0939
     22  N         40.9280    6.7520   11.4280 N.am   37  ARG37      -0.1964
     23  CA        40.6420    5.4130   10.9240 C.3    37  ARG37       0.1729
     24  C         40.0530    4.5290   12.0400 C.2    37  ARG37       0.2616
     25  O         39.1300    3.7310   11.8100 O.2    37  ARG37      -0.2715
     26  CB        41.9180    4.7870   10.3510 C.3    37  ARG37       0.0348
     27  CG        41.7010    3.4210    9.7470 C.3    37  ARG37       0.0492
     28  CD        42.9520    2.9150    9.0260 C.3    37  ARG37       0.2205
     29  NE        42.9470    3.2980    7.6100 N.pl3  37  ARG37      -0.0865
     30  CZ        42.1300    2.7790    6.6860 C.cat  37  ARG37       0.5346
     31  NH1       41.2280    1.8560    7.0200 N.pl3  37  ARG37       0.1354
     32  NH2       42.2050    3.1880    5.4220 N.pl3  37  ARG37       0.1354
     33  N         40.6030    4.6770   13.2420 N.am   38  HIS38      -0.1959
     34  CA        40.0890    3.9870   14.4200 C.3    38  HIS38       0.1787
     35  C         40.2240    4.9510   15.5930 C.2    38  HIS38       0.2620
     36  O         41.0720    5.8720   15.5750 O.2    38  HIS38      -0.2715
     37  CB        40.8240    2.6590   14.6830 C.3    38  HIS38       0.0785
     38  CG        40.5270    1.5910   13.6560 C.ar   38  HIS38       0.0821
     39  ND1       39.3770    0.8270   13.6880 N.ar   38  HIS38      -0.2267
     40  CD2       41.2150    1.1880   12.5580 C.ar   38  HIS38       0.1154
     41  CE1       39.3700   -0.0040   12.6570 C.ar   38  HIS38       0.1986
     42  NE2       40.4760    0.1950   11.9550 N.ar   38  HIS38      -0.2212
     43  N         39.3750    4.7650   16.5910 N.am   39  GLY39      -0.1954
     44  CA        39.3920    5.6470   17.7570 C.3    39  GLY39       0.1869
     45  C         40.6550    5.4540   18.5710 C.2    39  GLY39       0.2309
     46  O         41.3020    4.3970   18.4940 O.2    39  GLY39      -0.2863
     47  N         27.6430    1.1870   16.4680 N.3    71  TYR71      -0.1241
     48  CA        26.9550    2.2470   15.7520 C.3    71  TYR71       0.1605
     49  C         26.6630    1.8550   14.3210 C.2    71  TYR71       0.2264
     50  O         27.2580    0.8890   13.7990 O.2    71  TYR71      -0.2867
     51  CB        27.7390    3.5650   15.8220 C.3    71  TYR71       0.0534
     52  CG        29.2520    3.4180   15.7980 C.ar   71  TYR71      -0.0201
     53  CD1       29.9750    3.6130   14.6350 C.ar   71  TYR71      -0.0009
     54  CD2       29.9500    3.1140   16.9610 C.ar   71  TYR71      -0.0009
     55  CE1       31.3690    3.4920   14.6230 C.ar   71  TYR71       0.0417
     56  CE2       31.3480    2.9940   16.9560 C.ar   71  TYR71       0.0417
     57  CZ        32.0360    3.1840   15.7880 C.ar   71  TYR71       0.1957
     58  OH        33.4120    3.0660   15.8130 O.3    71  TYR71      -0.2866
     59  N         26.8440    2.8400   10.4990 N.3    73  LEU73      -0.1231
     60  CA        27.5870    3.7620    9.6260 C.3    73  LEU73       0.1693
     61  C         26.6340    4.1620    8.4930 C.2    73  LEU73       0.2592
     62  O         26.6340    3.5820    7.3910 O.2    73  LEU73      -0.2718
     63  CB        28.9200    3.1240    9.1780 C.3    73  LEU73       0.0284
     64  CG        29.7710    2.6920   10.4060 C.3    73  LEU73       0.0019
     65  CD1       30.7130    1.5420   10.1010 C.3    73  LEU73       0.0001
     66  CD2       30.5610    3.8710   10.9790 C.3    73  LEU73       0.0001
     67  N         25.8230    5.1740    8.7940 N.am   74  HIS74      -0.1962
     68  CA        24.6580    5.5250    7.9860 C.3    74  HIS74       0.1787
     69  C         24.9750    6.1750    6.6440 C.2    74  HIS74       0.2620
     70  O         24.0700    6.3810    5.8330 O.2    74  HIS74      -0.2715
     71  CB        23.6600    6.3610    8.8080 C.3    74  HIS74       0.0785
     72  CG        24.1270    7.7490    9.1470 C.ar   74  HIS74       0.0821
     73  ND1       25.4020    8.0270    9.5890 N.ar   74  HIS74      -0.2267
     74  CD2       23.4530    8.9260    9.1890 C.ar   74  HIS74       0.1154
     75  CE1       25.5130    9.3210    9.8320 C.ar   74  HIS74       0.1986
     76  NE2       24.3410    9.8910    9.5990 N.ar   74  HIS74      -0.2212
     77  N         26.2490    6.4930    6.4020 N.am   75  ARG75      -0.1963
     78  CA        26.6570    7.0980    5.1130 C.3    75  ARG75       0.1729
     79  C         27.3060    6.0860    4.1550 C.2    75  ARG75       0.2616
     80  O         27.6380    6.4210    3.0010 O.2    75  ARG75      -0.2715
     81  CB        27.5280    8.3410    5.3130 C.3    75  ARG75       0.0348
     82  CG        26.8270    9.4390    6.0560 C.3    75  ARG75       0.0492
     83  CD        25.6210    9.9710    5.2830 C.3    75  ARG75       0.2205
     84  NE        24.6230   10.6250    6.1430 N.pl3  75  ARG75      -0.0865
     85  CZ        24.7170   11.8580    6.6520 C.cat  75  ARG75       0.5346
     86  NH1       25.7830   12.6210    6.4090 N.pl3  75  ARG75       0.1354
     87  NH2       23.7380   12.3360    7.4240 N.pl3  75  ARG75       0.1354
     88  N         27.4420    4.8440    4.6200 N.am   76  SER76      -0.1950
     89  CA        28.1700    3.8140    3.8690 C.3    76  SER76       0.1924
     90  C         27.3380    3.1370    2.7930 C.2    76  SER76       0.2314
     91  O         26.1900    2.7440    3.0320 O.2    76  SER76      -0.2863
     92  CB        28.6660    2.7120    4.8070 C.3    76  SER76       0.2116
     93  OG        29.6840    3.2100    5.6580 O.3    76  SER76      -0.2180
     94  N         38.3920   -3.9210    8.3950 N.3    95  ARG95      -0.1231
     95  CA        37.4000   -3.2420    9.2390 C.3    95  ARG95       0.1694
     96  C         36.7880   -1.9820    8.6090 C.2    95  ARG95       0.2593
     97  O         36.3280   -1.0850    9.2970 O.2    95  ARG95      -0.2718
     98  CB        37.9470   -3.0070   10.6560 C.3    95  ARG95       0.0321
     99  CG        38.3530   -4.3280   11.3660 C.3    95  ARG95       0.0489
    100  CD        38.7100   -4.1180   12.8490 C.3    95  ARG95       0.2205
    101  NE        37.5260   -3.7760   13.6570 N.pl3  95  ARG95      -0.0865
    102  CZ        36.8150   -4.6440   14.3730 C.cat  95  ARG95       0.5346
    103  NH1       37.1560   -5.9300   14.4070 N.pl3  95  ARG95       0.1354
    104  NH2       35.7510   -4.2300   15.0580 N.pl3  95  ARG95       0.1354
    105  N         36.7190   -1.9740    7.2930 N.am   96  SER96      -0.1939
    106  CA        36.0780   -0.9110    6.5120 C.3    96  SER96       0.2040
    107  C         34.6620   -0.5610    6.9910 C.2    96  SER96       0.2485
    108  O         33.9000   -1.4570    7.3870 O.2    96  SER96      -0.2729
    109  CB        35.9880   -1.3810    5.0590 C.3    96  SER96       0.2129
    110  OG        35.3920   -0.3790    4.2560 O.3    96  SER96      -0.2179
    111  N         34.2820    0.7290    6.8990 N.am   97  PRO97      -0.2715
    112  CA        32.9050    1.0980    7.2200 C.3    97  PRO97       0.1536
    113  C         31.9270    0.7260    6.1040 C.2    97  PRO97       0.2598
    114  O         30.7120    0.8230    6.2860 O.2    97  PRO97      -0.2715
    115  CB        32.9850    2.6190    7.3610 C.3    97  PRO97       0.0310
    116  CG        34.0930    3.0400    6.3960 C.3    97  PRO97       0.0237
    117  CD        35.1050    1.8990    6.5170 C.3    97  PRO97       0.0939
    118  N         32.4480    0.3150    4.9560 N.am   98  LEU98      -0.1978
    119  CA        31.5930   -0.0970    3.8380 C.3    98  LEU98       0.1596
    120  C         31.4090   -1.6210    3.9140 C.2    98  LEU98       0.2287
    121  O         32.3530   -2.3850    3.6360 O.2    98  LEU98      -0.2864
    122  CB        32.2180    0.3310    2.4990 C.3    98  LEU98       0.0297
    123  CG        32.7600    1.7750    2.3690 C.3    98  LEU98       0.0022
    124  CD1       33.3740    2.0780    0.9860 C.3    98  LEU98       0.0001
    125  CD2       31.6980    2.7850    2.6900 C.3    98  LEU98       0.0001
    126  N         27.8740   -2.0100   10.5300 N.3   103  ILE103     -0.1231
    127  CA        27.9570   -1.8980   11.9830 C.3   103  ILE103      0.1692
    128  C         29.4090   -1.5870   12.3160 C.2   103  ILE103      0.2593
    129  O         30.3080   -2.3200   11.8890 O.2   103  ILE103     -0.2718
    130  CB        27.5340   -3.2150   12.6400 C.3   103  ILE103      0.0266
    131  CG1       26.0680   -3.5360   12.3120 C.3   103  ILE103      0.0019
    132  CG2       27.7070   -3.1730   14.1640 C.3   103  ILE103      0.0020
    133  CD1       25.6900   -5.0260   12.5990 C.3   103  ILE103      0.0001
    134  N         29.6500   -0.4850   13.0180 N.am  104  GLY104     -0.1942
    135  CA        31.0000   -0.1580   13.5080 C.3   104  GLY104      0.2014
    136  C         31.0480   -0.3750   15.0020 C.2   104  GLY104      0.2640
    137  O         30.0130   -0.2490   15.6730 O.2   104  GLY104     -0.2714
    138  N         32.2270   -0.7060   15.5340 N.am  105  THR105     -0.1936
    139  CA        32.3810   -0.7200   17.0010 C.3   105  THR105      0.2028
    140  C         33.6000    0.0610   17.4340 C.2   105  THR105      0.2642
    141  O         34.6100    0.1310   16.7000 O.2   105  THR105     -0.2714
    142  CB        32.5270   -2.1520   17.6020 C.3   105  THR105      0.1808
    143  OG1       33.7490   -2.7510   17.1370 O.3   105  THR105     -0.2208
    144  CG2       31.3440   -3.0400   17.1990 C.3   105  THR105      0.0379
    145  N         33.5260    0.5950   18.6470 N.am  106  SER106     -0.1949
    146  CA        34.6960    1.1500   19.3030 C.3   106  SER106      0.1924
    147  C         34.6870    0.6660   20.7360 C.2   106  SER106      0.2314
    148  O         33.6330    0.5740   21.3510 O.2   106  SER106     -0.2863
    149  CB        34.6790    2.6800   19.2820 C.3   106  SER106      0.2116
    150  OG        34.9340    3.1990   17.9650 O.3   106  SER106     -0.2180
    151  N         35.3240    7.1210   16.4480 N.3   124  ASP124     -0.1225
    152  CA        35.8500    7.4540   15.1380 C.3   124  ASP124      0.1805
    153  C         34.7330    7.7750   14.1590 C.2   124  ASP124      0.2598
    154  O         34.9420    7.7330   12.9560 O.2   124  ASP124     -0.2718
    155  CB        36.6900    6.2930   14.5870 C.3   124  ASP124      0.1424
    156  CG        35.8990    4.9810   14.5230 C.2   124  ASP124      0.3668
    157  OD1       34.6440    5.0160   14.6770 O.co2 124  ASP124     -0.2456
    158  OD2       36.5250    3.9210   14.3080 O.co2 124  ASP124     -0.2456
    159  N         33.5420    8.0720   14.6510 N.am  125  CYS125     -0.1956
    160  CA        32.4270    8.2150   13.7220 C.3   125  CYS125      0.1843
    161  C         32.0570    9.6680   13.4200 C.2   125  CYS125      0.2625
    162  O         32.3580   10.5920   14.1850 O.2   125  CYS125     -0.2714
    163  CB        31.2080    7.4490   14.2010 C.3   125  CYS125      0.0997
    164  SG        30.7280    7.8870   15.8400 S.3   125  CYS125     -0.0797
    165  N         31.4040    9.8380   12.2850 N.am  126  LEU126     -0.1977
    166  CA        30.8970   11.1200   11.8660 C.3   126  LEU126      0.1596
    167  C         29.9540   11.6890   12.9250 C.2   126  LEU126      0.2287
    168  O         29.1780   10.9440   13.5550 O.2   126  LEU126     -0.2864
    169  CB        30.1220   10.9080   10.5790 C.3   126  LEU126      0.0297
    170  CG        30.0030   11.9860    9.5290 C.3   126  LEU126      0.0022
    171  CD1       31.3960   12.5090    9.1090 C.3   126  LEU126      0.0001
    172  CD2       29.2690   11.3020    8.3510 C.3   126  LEU126      0.0001
    173  N         26.2630   10.2280   13.8950 N.3   129  THR129     -0.1218
    174  CA        26.1210    8.7840   13.6640 C.3   129  THR129      0.1862
    175  C         25.1190    8.1250   14.6250 C.2   129  THR129      0.2287
    176  O         25.1910    8.3570   15.8410 O.2   129  THR129     -0.2866
    177  CB        27.4830    8.0960   13.8240 C.3   129  THR129      0.1770
    178  OG1       28.3340    8.5460   12.7730 O.3   129  THR129     -0.2211
    179  CG2       27.3580    6.5730   13.7380 C.3   129  THR129      0.0375
@<TRIPOS>BOND
     1   124   123    1
     2   123   122    1
     3   123   125    1
     4   122   119    1
     5    90    91    2
     6    90    89    1
     7    80    79    2
     8   121   120    2
     9   119   120    1
    10   119   118    1
    11    89    88    1
    12    89    92    1
    13    79    88   am
    14    79    78    1
    15   110   109    1
    16     7     6    1
    17    92    93    1
    18   118   113   am
    19   109   106    1
    20    78    81    1
    21    78    77    1
    22    83    82    1
    23    83    84    1
    24    81    82    1
    25    32    30    1
    26     5     6    1
    27     5     2    1
    28     6     8    1
    29    70    69    2
    30   113   114    2
    31   113   112    1
    32    84    85    2
    33   116   117    1
    34   116   115    1
    35    77    69   am
    36    86    85    1
    37     1     2    1
    38   106   107    1
    39   106   105    1
    40   117   111    1
    41     2     3    1
    42     3     4    2
    43    69    68    1
    44    85    87    1
    45    30    31    1
    46    30    29    2
    47   111   107   am
    48   111   112    1
    49   107   108    2
    50   112   115    1
    51   105    96   am
    52    62    61    2
    53    29    28    1
    54    68    67    1
    55    68    71    1
    56   172   170    1
    57    94    95    1
    58    61    67   am
    59    61    60    1
    60    96    95    1
    61    96    97    2
    62    71    72    1
    63    28    27    1
    64   171   170    1
    65    72    74   ar
    66    72    73   ar
    67    63    60    1
    68    63    64    1
    69    74    76   ar
    70    95    98    1
    71   170   169    1
    72    73    75   ar
    73    76    75   ar
    74    60    59    1
    75    27    26    1
    76     9    10    1
    77    65    64    1
    78    12    11    2
    79    26    23    1
    80    64    66    1
    81   126   127    1
    82   169   166    1
    83    98    99    1
    84    14    13    1
    85    13    10    1
    86    23    22    1
    87    23    24    1
    88    10    11    1
    89    11    15   am
    90    99   100    1
    91    22    17   am
    92    25    24    2
    93   166   165    1
    94   166   167    1
    95    18    17    2
    96   129   128    2
    97    17    16    1
    98    42    40   ar
    99    42    41   ar
   100   127   128    1
   101   127   130    1
   102    24    33   am
   103   165   161   am
   104   131   133    1
   105   131   130    1
   106   128   134   am
   107    15    16    1
   108    15    21    1
   109    16    19    1
   110    40    38   ar
   111   130   132    1
   112    41    39   ar
   113   178   177    1
   114   100   101    1
   115   167   168    2
   116   154   153    2
   117   134   135    1
   118    33    34    1
   119   161   160    1
   120   161   162    2
   121   135   136    1
   122    38    39   ar
   123    38    37    1
   124   101   102    2
   125   174   177    1
   126   174   173    1
   127   174   175    1
   128    21    20    1
   129   160   163    1
   130   160   159    1
   131   179   177    1
   132    50    49    2
   133    19    20    1
   134   153   159   am
   135   153   152    1
   136   163   164    1
   137   158   156   ar
   138    49    48    1
   139   102   103    1
   140   102   104    1
   141    34    37    1
   142    34    35    1
   143   156   155    1
   144   156   157   ar
   145   155   152    1
   146    55    53   ar
   147    55    57   ar
   148   175   176    2
   149    53    52   ar
   150   136   138   am
   151   136   137    2
   152   152   151    1
   153   138   139    1
   154    36    35    2
   155    35    43   am
   156    48    51    1
   157    48    47    1
   158    57    58    1
   159    57    56   ar
   160    52    51    1
   161    52    54   ar
   162    43    44    1
   163   141   140    2
   164    56    54   ar
   165   139   140    1
   166   139   142    1
   167   143   142    1
   168   144   142    1
   169   140   145   am
   170    44    45    1
   171   150   149    1
   172    46    45    2
   173   145   146    1
   174   149   146    1
   175   146   147    1
   176   147   148    2
