@<TRIPOS>MOLECULE
tmp/3ol2B00.pdb
 99 90 0 0 0
SMALL
GASTEIGER

@<TRIPOS>ATOM
      1  N         31.4750  -27.3240   34.9960 N.3   199  ARG199     -0.1245
      2  CA        32.8760  -27.4810   35.3390 C.3   199  ARG199      0.1563
      3  C         32.9290  -28.2360   36.6400 C.2   199  ARG199      0.2260
      4  O         32.3110  -27.8250   37.6390 O.2   199  ARG199     -0.2867
      5  CB        33.6420  -26.1650   35.4940 C.3   199  ARG199      0.0307
      6  CG        35.1300  -26.4520   35.7780 C.3   199  ARG199      0.0489
      7  CD        36.0320  -25.2550   35.8520 C.3   199  ARG199      0.2205
      8  NE        36.0720  -24.6540   37.1820 N.pl3 199  ARG199     -0.0865
      9  CZ        37.1970  -24.2800   37.7750 C.cat 199  ARG199      0.5346
     10  NH1       38.3660  -24.4900   37.1850 N.pl3 199  ARG199      0.1354
     11  NH2       37.1660  -23.7030   38.9690 N.pl3 199  ARG199      0.1354
     12  N         32.3080  -30.5940   39.5710 N.3   201  ALA201     -0.1245
     13  CA        31.0970  -31.0970   40.1850 C.3   201  ALA201      0.1562
     14  C         30.0290  -30.0150   40.3290 C.2   201  ALA201      0.2260
     15  O         29.1700  -30.1100   41.2130 O.2   201  ALA201     -0.2867
     16  CB        31.4340  -31.7180   41.5190 C.3   201  ALA201      0.0290
     17  N         25.7940  -20.7060   40.7080 N.3   225  ARG225     -0.1245
     18  CA        26.4280  -22.0310   40.8630 C.3   225  ARG225      0.1563
     19  C         25.6980  -23.0100   41.8190 C.2   225  ARG225      0.2260
     20  O         25.4610  -22.6760   42.9740 O.2   225  ARG225     -0.2867
     21  CB        27.9450  -21.9110   41.2090 C.3   225  ARG225      0.0307
     22  CG        28.5820  -23.2690   41.5210 C.3   225  ARG225      0.0489
     23  CD        29.9300  -23.1980   42.1690 C.3   225  ARG225      0.2205
     24  NE        29.8630  -23.0620   43.6190 N.pl3 225  ARG225     -0.0865
     25  CZ        30.9360  -22.9380   44.4050 C.cat 225  ARG225      0.5346
     26  NH1       32.1590  -22.9580   43.8810 N.pl3 225  ARG225      0.1354
     27  NH2       30.7930  -22.7920   45.7190 N.pl3 225  ARG225      0.1354
     28  N         25.1350  -32.8380   42.1330 N.3   229  ARG229     -0.1245
     29  CA        24.4130  -33.8080   42.9610 C.3   229  ARG229      0.1563
     30  C         23.2850  -33.2150   43.8230 C.2   229  ARG229      0.2260
     31  O         22.3610  -33.9410   44.1880 O.2   229  ARG229     -0.2867
     32  CB        25.3910  -34.6060   43.8370 C.3   229  ARG229      0.0307
     33  CG        26.2300  -33.7910   44.8200 C.3   229  ARG229      0.0489
     34  CD        27.4890  -34.5550   45.1810 C.3   229  ARG229      0.2205
     35  NE        28.5280  -33.7230   45.7980 N.pl3 229  ARG229     -0.0865
     36  CZ        29.3170  -32.8750   45.1390 C.cat 229  ARG229      0.5346
     37  NH1       29.1360  -32.6580   43.8350 N.pl3 229  ARG229      0.1354
     38  NH2       30.2530  -32.1890   45.7890 N.pl3 229  ARG229      0.1354
     39  N         38.1710  -20.2560   38.7330 N.3   294  ASP294     -0.1239
     40  CA        38.7060  -20.4830   40.0830 C.3   294  ASP294      0.1674
     41  C         38.4010  -19.2670   40.9270 C.2   294  ASP294      0.2266
     42  O         38.0400  -19.3980   42.0970 O.2   294  ASP294     -0.2867
     43  CB        40.2030  -20.7880   40.0470 C.3   294  ASP294      0.1410
     44  CG        40.5070  -21.9830   39.1800 C.2   294  ASP294      0.3668
     45  OD1       40.3640  -21.8650   37.9220 O.co2 294  ASP294     -0.2456
     46  OD2       40.8340  -23.0490   39.7410 O.co2 294  ASP294     -0.2456
     47  N         34.6860  -19.6750   41.7500 N.3   297  ASP297     -0.1225
     48  CA        34.5850  -20.6340   42.8540 C.3   297  ASP297      0.1805
     49  C         35.1240  -20.0810   44.1840 C.2   297  ASP297      0.2597
     50  O         34.4970  -20.3100   45.2180 O.2   297  ASP297     -0.2718
     51  CB        35.2990  -21.9580   42.5040 C.3   297  ASP297      0.1424
     52  CG        34.6900  -22.8640   41.4370 C.2   297  ASP297      0.3668
     53  OD1       33.4940  -22.6660   41.0790 O.co2 297  ASP297     -0.2456
     54  OD2       35.3800  -23.8070   41.0080 O.co2 297  ASP297     -0.2456
     55  N         36.2750  -19.3440   44.1580 N.am  298  ARG298     -0.1979
     56  CA        36.8790  -18.7100   45.3390 C.3   298  ARG298      0.1597
     57  C         35.8460  -17.8410   46.0180 C.2   298  ARG298      0.2287
     58  O         35.6230  -17.9960   47.2060 O.2   298  ARG298     -0.2864
     59  CB        38.0440  -17.8080   44.9310 C.3   298  ARG298      0.0334
     60  CG        39.2270  -17.8620   45.8760 C.3   298  ARG298      0.0492
     61  CD        40.4850  -18.3380   45.1610 C.3   298  ARG298      0.2205
     62  NE        40.9930  -17.3280   44.2260 N.pl3 298  ARG298     -0.0865
     63  CZ        41.6450  -17.5950   43.0990 C.cat 298  ARG298      0.5346
     64  NH1       42.0590  -16.6060   42.3160 N.pl3 298  ARG298      0.1354
     65  NH2       41.8850  -18.8540   42.7420 N.pl3 298  ARG298      0.1354
     66  N         32.6610  -19.7890   47.2480 N.3   301  ASN301     -0.1240
     67  CA        33.1070  -20.5160   48.4400 C.3   301  ASN301      0.1653
     68  C         33.1910  -19.5800   49.6300 C.2   301  ASN301      0.2266
     69  O         32.6850  -19.9200   50.6990 O.2   301  ASN301     -0.2867
     70  CB        34.4500  -21.1690   48.1970 C.3   301  ASN301      0.1155
     71  CG        34.4150  -22.4150   47.3480 C.2   301  ASN301      0.2627
     72  OD1       33.4240  -22.7560   46.6860 O.2   301  ASN301     -0.2716
     73  ND2       35.5250  -23.1160   47.3490 N.am  301  ASN301     -0.0877
     74  N         29.6020  -18.7030   50.6060 N.3   304  ARG304     -0.1245
     75  CA        29.0720  -19.8260   51.3640 C.3   304  ARG304      0.1563
     76  C         29.6440  -19.7620   52.7990 C.2   304  ARG304      0.2260
     77  O         28.8760  -19.5760   53.7460 O.2   304  ARG304     -0.2867
     78  CB        29.4280  -21.1470   50.6720 C.3   304  ARG304      0.0307
     79  CG        29.1570  -22.3710   51.5500 C.3   304  ARG304      0.0489
     80  CD        29.9270  -23.5960   51.0960 C.3   304  ARG304      0.2205
     81  NE        31.3670  -23.3590   51.0750 N.pl3 304  ARG304     -0.0865
     82  CZ        32.2140  -23.9390   50.2340 C.cat 304  ARG304      0.5346
     83  NH1       31.7740  -24.8140   49.3310 N.pl3 304  ARG304      0.1354
     84  NH2       33.5120  -23.6580   50.2920 N.pl3 304  ARG304      0.1354
     85  N         31.5130  -26.5350   57.0000 N.3   339  LEU339     -0.1245
     86  CA        32.0920  -26.2920   55.6870 C.3   339  LEU339      0.1561
     87  C         32.5770  -27.5680   55.0520 C.2   339  LEU339      0.2260
     88  O         32.2610  -27.8380   53.8980 O.2   339  LEU339     -0.2867
     89  CB        33.2020  -25.2260   55.7540 C.3   339  LEU339      0.0270
     90  CG        32.8060  -23.8600   56.3410 C.3   339  LEU339      0.0019
     91  CD1       33.9520  -22.8970   56.3040 C.3   339  LEU339      0.0001
     92  CD2       31.6420  -23.2450   55.6020 C.3   339  LEU339      0.0001
     93  N         29.6640  -29.5070   52.0540 N.3   343  PRO343     -0.2116
     94  CA        30.1340  -28.6160   50.9770 C.3   343  PRO343      0.1372
     95  C         29.0000  -28.1250   50.0940 C.2   343  PRO343      0.2244
     96  O         28.9800  -26.9470   49.7510 O.2   343  PRO343     -0.2868
     97  CB        31.0800  -29.5090   50.1690 C.3   343  PRO343      0.0268
     98  CG        31.4060  -30.6450   51.0480 C.3   343  PRO343      0.0207
     99  CD        30.1990  -30.8700   51.8750 C.3   343  PRO343      0.0892
@<TRIPOS>BOND
     1     1     2    1
     2     2     5    1
     3     2     3    1
     4     5     6    1
     5     6     7    1
     6     7     8    1
     7     3     4    2
     8     8     9    2
     9    10     9    1
    10     9    11    1
    11    45    44   ar
    12    39    40    1
    13    44    46   ar
    14    44    43    1
    15    12    13    1
    16    43    40    1
    17    40    41    1
    18    13    14    1
    19    13    16    1
    20    14    15    2
    21    17    18    1
    22    18    21    1
    23    18    19    1
    24    41    42    2
    25    54    52   ar
    26    53    52   ar
    27    21    22    1
    28    52    51    1
    29    22    23    1
    30    47    48    1
    31    19    20    2
    32    28    29    1
    33    23    24    1
    34    64    63    1
    35    51    48    1
    36    65    63    1
    37    48    49    1
    38    29    30    1
    39    29    32    1
    40    63    62    2
    41    24    25    2
    42    30    31    2
    43    37    36    1
    44    32    33    1
    45    26    25    1
    46    55    49   am
    47    55    56    1
    48    49    50    2
    49    62    61    1
    50    25    27    1
    51    33    34    1
    52    59    56    1
    53    59    60    1
    54    36    38    1
    55    36    35    2
    56    61    60    1
    57    34    35    1
    58    56    57    1
    59    57    58    2
    60    72    71    2
    61    66    67    1
    62    71    73   am
    63    71    70    1
    64    70    67    1
    65    67    68    1
    66    83    82    1
    67    68    69    2
    68    96    95    2
    69    95    94    1
    70    97    94    1
    71    97    98    1
    72    82    84    1
    73    82    81    2
    74    74    75    1
    75    78    75    1
    76    78    79    1
    77    94    93    1
    78    98    99    1
    79    81    80    1
    80    80    79    1
    81    75    76    1
    82    99    93    1
    83    76    77    2
    84    88    87    2
    85    87    86    1
    86    92    90    1
    87    86    89    1
    88    86    85    1
    89    89    90    1
    90    91    90    1
