@<TRIPOS>MOLECULE
tmp/3ol2A00.pdb
 105 99 0 0 0
SMALL
GASTEIGER

@<TRIPOS>ATOM
      1  N          8.8610  -31.9170   80.7740 N.3    25  TYR25      -0.1227
      2  CA         8.4120  -30.5230   80.5760 C.3    25  TYR25       0.1736
      3  C          7.6490  -30.3310   79.2620 C.2    25  TYR25       0.2595
      4  O          7.4800  -31.2950   78.5090 O.2    25  TYR25      -0.2718
      5  CB         9.6230  -29.5500   80.6450 C.3    25  TYR25       0.0548
      6  CG        10.4860  -29.7210   81.8830 C.ar   25  TYR25      -0.0200
      7  CD1       10.2620  -28.9590   83.0240 C.ar   25  TYR25      -0.0009
      8  CD2       11.5200  -30.6500   81.9140 C.ar   25  TYR25      -0.0009
      9  CE1       11.0460  -29.1200   84.1680 C.ar   25  TYR25       0.0417
     10  CE2       12.2970  -30.8330   83.0570 C.ar   25  TYR25       0.0417
     11  CZ        12.0570  -30.0660   84.1850 C.ar   25  TYR25       0.1957
     12  OH        12.8240  -30.2640   85.3140 O.3    25  TYR25      -0.2866
     13  N          7.1860  -29.0900   78.9860 N.am   26  ASN26      -0.1974
     14  CA         6.4680  -28.6980   77.7570 C.3    26  ASN26       0.1688
     15  C          5.2070  -29.5340   77.4890 C.2    26  ASN26       0.2292
     16  O          5.1440  -30.2760   76.5060 O.2    26  ASN26      -0.2864
     17  CB         7.4150  -28.6890   76.5370 C.3    26  ASN26       0.1181
     18  CG         8.8250  -28.2490   76.8580 C.2    26  ASN26       0.2629
     19  OD1        9.7700  -29.0500   76.8470 O.2    26  ASN26      -0.2716
     20  ND2        8.9870  -26.9690   77.1630 N.am   26  ASN26      -0.0877
     21  N          7.1190  -33.1090   76.2630 N.3    44  ARG44      -0.1245
     22  CA         8.4140  -33.2650   75.6100 C.3    44  ARG44       0.1563
     23  C          8.9450  -34.6740   75.9690 C.2    44  ARG44       0.2260
     24  O          9.1320  -34.9940   77.1490 O.2    44  ARG44      -0.2867
     25  CB         9.3940  -32.1490   76.0020 C.3    44  ARG44       0.0307
     26  CG        10.7630  -32.3050   75.3460 C.3    44  ARG44       0.0489
     27  CD        11.7440  -31.2350   75.7670 C.3    44  ARG44       0.2205
     28  NE        12.0750  -31.2940   77.1870 N.pl3  44  ARG44      -0.0865
     29  CZ        12.7770  -30.3680   77.8310 C.cat  44  ARG44       0.5346
     30  NH1       13.2220  -29.2920   77.1890 N.pl3  44  ARG44       0.1354
     31  NH2       13.0330  -30.5040   79.1270 N.pl3  44  ARG44       0.1354
     32  N         18.1790  -28.5240   74.6370 N.3    83  THR83      -0.1218
     33  CA        16.9380  -27.7660   74.5080 C.3    83  THR83       0.1862
     34  C         16.1560  -28.2230   73.2680 C.2    83  THR83       0.2287
     35  O         15.2100  -29.0090   73.3990 O.2    83  THR83      -0.2866
     36  CB        17.1940  -26.2390   74.6000 C.3    83  THR83       0.1770
     37  OG1       17.9520  -25.9890   75.7790 O.3    83  THR83      -0.2211
     38  CG2       15.8930  -25.4010   74.6360 C.3    83  THR83       0.0375
     39  N          9.6860  -33.1160   70.9940 N.3    88  TYR88      -0.1241
     40  CA         8.5140  -32.3640   71.4160 C.3    88  TYR88       0.1605
     41  C          7.2980  -32.9100   70.6830 C.2    88  TYR88       0.2264
     42  O          7.2500  -32.8060   69.4600 O.2    88  TYR88      -0.2867
     43  CB         8.6990  -30.8730   71.0870 C.3    88  TYR88       0.0534
     44  CG         9.6960  -30.1260   71.9470 C.ar   88  TYR88      -0.0201
     45  CD1        9.2790  -29.1310   72.8260 C.ar   88  TYR88      -0.0009
     46  CD2       11.0630  -30.3630   71.8330 C.ar   88  TYR88      -0.0009
     47  CE1       10.1940  -28.4030   73.5850 C.ar   88  TYR88       0.0417
     48  CE2       11.9880  -29.6530   72.6030 C.ar   88  TYR88       0.0417
     49  CZ        11.5490  -28.6620   73.4690 C.ar   88  TYR88       0.1957
     50  OH        12.4460  -27.9270   74.2100 O.3    88  TYR88      -0.2866
     51  N          4.0160  -32.8350   68.9570 N.3    90  ARG90      -0.1245
     52  CA         3.3350  -31.7750   68.2120 C.3    90  ARG90       0.1563
     53  C          1.9760  -32.1820   67.6600 C.2    90  ARG90       0.2260
     54  O          1.1110  -31.3260   67.4960 O.2    90  ARG90      -0.2867
     55  CB         4.2530  -31.2600   67.0970 C.3    90  ARG90       0.0307
     56  CG         5.4460  -30.4620   67.6230 C.3    90  ARG90       0.0489
     57  CD         5.0220  -29.0400   67.9760 C.3    90  ARG90       0.2205
     58  NE         5.9790  -28.3330   68.8250 N.pl3  90  ARG90      -0.0865
     59  CZ         5.8820  -28.2420   70.1470 C.cat  90  ARG90       0.5346
     60  NH1        4.8680  -28.8150   70.7880 N.pl3  90  ARG90       0.1354
     61  NH2        6.7940  -27.5750   70.8390 N.pl3  90  ARG90       0.1354
     62  N         11.0010  -26.8700   67.7260 N.3   137  PRO137     -0.2102
     63  CA         9.9650  -26.6930   68.7680 C.3   137  PRO137      0.1504
     64  C          9.4390  -25.2520   68.8680 C.2   137  PRO137      0.2575
     65  O          8.5020  -24.9760   69.6350 O.2   137  PRO137     -0.2718
     66  CB        10.6870  -27.1240   70.0580 C.3   137  PRO137      0.0282
     67  CG        11.9090  -27.8570   69.6200 C.3   137  PRO137      0.0208
     68  CD        12.2990  -27.2450   68.3270 C.3   137  PRO137      0.0893
     69  N         10.0690  -24.3430   68.0930 N.am  138  ALA138     -0.1980
     70  CA         9.8170  -22.9200   68.0040 C.3   138  ALA138      0.1597
     71  C          8.8040  -22.6530   66.9350 C.2   138  ALA138      0.2287
     72  O          8.0920  -21.6710   67.0350 O.2   138  ALA138     -0.2864
     73  CB        11.1090  -22.2000   67.6490 C.3   138  ALA138      0.0319
     74  N          3.7840  -19.5990   84.7960 N.3   442  GLU442     -0.1245
     75  CA         4.1230  -20.1940   83.5110 C.3   442  GLU442      0.1567
     76  C          3.0080  -19.8690   82.4950 C.2   442  GLU442      0.2260
     77  O          1.8320  -20.0920   82.7990 O.2   442  GLU442     -0.2867
     78  CB         4.2860  -21.7240   83.6430 C.3   442  GLU442      0.0388
     79  CG         5.7220  -22.2230   83.7220 C.3   442  GLU442      0.1160
     80  CD         6.6820  -21.8160   82.6180 C.2   442  GLU442      0.3649
     81  OE1        7.8710  -21.6040   82.9460 O.co2 442  GLU442     -0.2457
     82  OE2        6.2630  -21.7210   81.4390 O.co2 442  GLU442     -0.2457
     83  N          0.0450  -22.3590   77.4830 N.3   445  GLN445     -0.1245
     84  CA         0.3190  -22.6210   76.0680 C.3   445  GLN445      0.1566
     85  C         -0.9210  -23.1910   75.3850 C.2   445  GLN445      0.2260
     86  O         -1.2680  -22.7540   74.2800 O.2   445  GLN445     -0.2867
     87  CB         1.5220  -23.5660   75.9020 C.3   445  GLN445      0.0367
     88  CG         2.8410  -23.0960   76.5210 C.3   445  GLN445      0.0905
     89  CD         3.8550  -24.2270   76.5500 C.2   445  GLN445      0.2608
     90  OE1        3.5980  -25.3290   77.0690 O.2   445  GLN445     -0.2717
     91  NE2        5.0330  -23.9940   75.9780 N.am  445  GLN445     -0.0878
     92  N          4.6260  -25.1560   80.2250 N.3   463  ASN463     -0.1225
     93  CA         5.8920  -25.9250   80.2440 C.3   463  ASN463      0.1785
     94  C          6.1240  -26.6670   81.5820 C.2   463  ASN463      0.2597
     95  O          6.8650  -27.6400   81.5820 O.2   463  ASN463     -0.2718
     96  CB         7.1220  -25.0640   79.9160 C.3   463  ASN463      0.1169
     97  CG         6.9970  -24.2930   78.6330 C.2   463  ASN463      0.2627
     98  OD1        7.1600  -24.8190   77.5100 O.2   463  ASN463     -0.2716
     99  ND2        6.6450  -23.0270   78.7860 N.am  463  ASN463     -0.0877
    100  N          5.4920  -26.2360   82.6990 N.am  464  SER464     -0.1952
    101  CA         5.7250  -26.8680   84.0010 C.3   464  SER464      0.1924
    102  C          4.7960  -28.0170   84.4420 C.2   464  SER464      0.2314
    103  O          5.1620  -28.7930   85.3450 O.2   464  SER464     -0.2863
    104  CB         5.8570  -25.8240   85.0970 C.3   464  SER464      0.2116
    105  OG         4.6340  -25.1360   85.2620 O.3   464  SER464     -0.2180
@<TRIPOS>BOND
     1    71    72    2
     2    71    70    1
     3    55    56    1
     4    55    52    1
     5    54    53    2
     6    56    57    1
     7    73    70    1
     8    53    52    1
     9    62    68    1
    10    62    63    1
    11    57    58    1
    12    70    69    1
    13    69    64   am
    14    52    51    1
    15    68    67    1
    16    63    64    1
    17    63    66    1
    18    58    59    2
    19    64    65    2
    20    42    41    2
    21    67    66    1
    22    59    60    1
    23    59    61    1
    24    41    40    1
    25    39    40    1
    26    43    40    1
    27    43    44    1
    28    46    44   ar
    29    46    48   ar
    30    44    45   ar
    31    48    49   ar
    32    45    47   ar
    33    34    35    2
    34    34    33    1
    35    49    47   ar
    36    49    50    1
    37    86    85    2
    38    33    36    1
    39    33    32    1
    40    36    38    1
    41    36    37    1
    42    26    27    1
    43    26    25    1
    44    85    84    1
    45    22    23    1
    46    22    25    1
    47    22    21    1
    48    27    28    1
    49    87    84    1
    50    87    88    1
    51    23    24    2
    52    91    89   am
    53    84    83    1
    54    16    15    2
    55    88    89    1
    56    17    18    1
    57    17    14    1
    58    89    90    2
    59    19    18    2
    60    18    20   am
    61    28    29    2
    62    30    29    1
    63    15    14    1
    64    98    97    2
    65    14    13    1
    66    29    31    1
    67     4     3    2
    68    97    99   am
    69    97    96    1
    70    13     3   am
    71     3     2    1
    72    96    93    1
    73    92    93    1
    74    93    94    1
    75     2     5    1
    76     2     1    1
    77     5     6    1
    78    82    80   ar
    79    95    94    2
    80    94   100   am
    81     6     8   ar
    82     6     7   ar
    83     8    10   ar
    84    76    77    2
    85    76    75    1
    86    80    81   ar
    87    80    79    1
    88   100   101    1
    89     7     9   ar
    90    10    11   ar
    91    75    78    1
    92    75    74    1
    93    78    79    1
    94   101   102    1
    95   101   104    1
    96     9    11   ar
    97    11    12    1
    98   102   103    2
    99   104   105    1
