@<TRIPOS>MOLECULE
tmp/3ol2A05.pdb
 108 101 0 0 0
SMALL
GASTEIGER

@<TRIPOS>ATOM
      1  N         -7.1600  -41.6500   66.4070 N.3    95  LEU95      -0.1245
      2  CA        -7.0550  -42.4220   65.1670 C.3    95  LEU95       0.1561
      3  C         -8.1970  -43.4250   65.0960 C.2    95  LEU95       0.2260
      4  O         -8.8180  -43.5750   64.0460 O.2    95  LEU95      -0.2867
      5  CB        -5.7020  -43.1460   65.0660 C.3    95  LEU95       0.0270
      6  CG        -4.9140  -43.0330   63.7610 C.3    95  LEU95       0.0019
      7  CD1       -3.9560  -44.1760   63.6420 C.3    95  LEU95       0.0001
      8  CD2       -5.8170  -43.0000   62.5370 C.3    95  LEU95       0.0001
      9  N         -2.8860  -40.9120   66.9110 N.3   101  TYR101     -0.1241
     10  CA        -1.8520  -40.5760   65.9290 C.3   101  TYR101      0.1605
     11  C         -0.8970  -39.5500   66.5340 C.2   101  TYR101      0.2264
     12  O         -1.2880  -38.4070   66.8010 O.2   101  TYR101     -0.2867
     13  CB        -2.4560  -40.0830   64.6010 C.3   101  TYR101      0.0534
     14  CG        -1.4430  -39.9970   63.4760 C.ar  101  TYR101     -0.0201
     15  CD1       -0.8300  -41.1430   62.9710 C.ar  101  TYR101     -0.0009
     16  CD2       -1.0940  -38.7730   62.9200 C.ar  101  TYR101     -0.0009
     17  CE1        0.1240  -41.0680   61.9570 C.ar  101  TYR101      0.0417
     18  CE2       -0.1480  -38.6860   61.8960 C.ar  101  TYR101      0.0417
     19  CZ         0.4620  -39.8360   61.4220 C.ar  101  TYR101      0.1957
     20  OH         1.3750  -39.7600   60.4010 O.3   101  TYR101     -0.2866
     21  N          1.8520  -44.6440   65.7720 N.3   114  HIS114     -0.1241
     22  CA         0.5330  -44.9420   66.3320 C.3   114  HIS114      0.1621
     23  C          0.6870  -45.3930   67.7820 C.2   114  HIS114      0.2264
     24  O          1.3830  -46.3830   68.0470 O.2   114  HIS114     -0.2867
     25  CB        -0.1940  -46.0670   65.5580 C.3   114  HIS114      0.0745
     26  CG        -0.5180  -45.8110   64.1200 C.ar  114  HIS114      0.0817
     27  ND1       -0.2350  -44.6050   63.5040 N.ar  114  HIS114     -0.2268
     28  CD2       -1.0910  -46.6400   63.2180 C.ar  114  HIS114      0.1154
     29  CE1       -0.6410  -44.7410   62.2520 C.ar  114  HIS114      0.1986
     30  NE2       -1.1710  -45.9460   62.0390 N.ar  114  HIS114     -0.2212
     31  N          5.7290  -47.5890   63.8330 N.3   125  LYS125     -0.1245
     32  CA         5.3680  -47.2740   62.4430 C.3   125  LYS125      0.1561
     33  C          6.4320  -46.3830   61.8240 C.2   125  LYS125      0.2260
     34  O          6.6400  -46.4400   60.6140 O.2   125  LYS125     -0.2867
     35  CB         3.9800  -46.6050   62.3420 C.3   125  LYS125      0.0271
     36  CG         2.7950  -47.5250   62.6390 C.3   125  LYS125      0.0035
     37  CD         2.3860  -48.3810   61.4370 C.3   125  LYS125      0.0206
     38  CE         1.1960  -49.2810   61.7190 C.3   125  LYS125      0.1093
     39  NZ         1.0000  -50.3260   60.6630 N.3   125  LYS125     -0.1314
     40  N          7.0050  -43.2270   60.8060 N.3   127  GLU127     -0.1245
     41  CA         6.6550  -42.4980   59.5920 C.3   127  GLU127      0.1567
     42  C          7.4000  -41.1720   59.5460 C.2   127  GLU127      0.2260
     43  O          7.6240  -40.5690   60.5950 O.2   127  GLU127     -0.2867
     44  CB         5.1450  -42.2230   59.5600 C.3   127  GLU127      0.0388
     45  CG         4.2810  -43.4720   59.5590 C.3   127  GLU127      0.1160
     46  CD         2.7860  -43.2270   59.6390 C.2   127  GLU127      0.3649
     47  OE1        2.0580  -44.1700   60.0290 O.co2 127  GLU127     -0.2457
     48  OE2        2.3400  -42.1020   59.3090 O.co2 127  GLU127     -0.2457
     49  N          3.8150  -32.8100   58.1750 N.3   132  ARG132     -0.1245
     50  CA         2.8060  -33.1640   59.1920 C.3   132  ARG132      0.1563
     51  C          3.1190  -32.5680   60.5450 C.2   132  ARG132      0.2260
     52  O          2.1890  -32.2310   61.3020 O.2   132  ARG132     -0.2867
     53  CB         2.7970  -34.6760   59.3940 C.3   132  ARG132      0.0307
     54  CG         1.8220  -35.4430   58.5370 C.3   132  ARG132      0.0489
     55  CD         2.0720  -36.9170   58.7420 C.3   132  ARG132      0.2205
     56  NE         2.7980  -37.5110   57.6190 N.pl3 132  ARG132     -0.0865
     57  CZ         3.5180  -38.6250   57.6920 C.cat 132  ARG132      0.5346
     58  NH1        3.6580  -39.2590   58.8500 N.pl3 132  ARG132      0.1354
     59  NH2        4.1250  -39.1010   56.6140 N.pl3 132  ARG132      0.1354
     60  N         -7.5430  -34.0200   62.6010 N.3   145  MET145     -0.1245
     61  CA        -7.7720  -35.3230   62.0190 C.3   145  MET145      0.1570
     62  C         -9.2310  -35.2810   61.5370 C.2   145  MET145      0.2261
     63  O        -10.1290  -34.9330   62.3160 O.2   145  MET145     -0.2867
     64  CB        -7.5240  -36.4390   63.0600 C.3   145  MET145      0.0387
     65  CG        -7.6670  -37.8610   62.4950 C.3   145  MET145      0.0595
     66  SD        -6.3230  -38.3910   61.3960 S.3   145  MET145     -0.1393
     67  CE        -5.0980  -38.7330   62.5960 C.3   145  MET145      0.0692
     68  N         -9.9470  -39.9020   59.4980 N.3   148  GLY148     -0.1210
     69  CA        -8.6990  -40.6520   59.5560 C.3   148  GLY148      0.1956
     70  C         -7.6150  -40.2040   58.6080 C.2   148  GLY148      0.2612
     71  O         -6.7660  -41.0110   58.2110 O.2   148  GLY148     -0.2717
     72  N         -7.6440  -38.9130   58.2560 N.am  149  GLU149     -0.1965
     73  CA        -6.6890  -38.2610   57.3870 C.3   149  GLU149      0.1733
     74  C         -6.2690  -36.9790   58.0620 C.2   149  GLU149      0.2616
     75  O         -7.1290  -36.1960   58.4930 O.2   149  GLU149     -0.2715
     76  CB        -7.3110  -37.9950   56.0230 C.3   149  GLU149      0.0429
     77  CG        -6.8640  -39.0310   55.0110 C.3   149  GLU149      0.1163
     78  CD        -7.7730  -39.3020   53.8280 C.2   149  GLU149      0.3649
     79  OE1       -8.5360  -38.3940   53.4210 O.co2 149  GLU149     -0.2457
     80  OE2       -7.7040  -40.4330   53.2940 O.co2 149  GLU149     -0.2457
     81  N         -4.9430  -36.7870   58.2140 N.am  150  LEU150     -0.1977
     82  CA        -4.4190  -35.6080   58.8990 C.3   150  LEU150      0.1596
     83  C         -4.2850  -34.3840   58.0320 C.2   150  LEU150      0.2287
     84  O         -3.5580  -34.3860   57.0250 O.2   150  LEU150     -0.2864
     85  CB        -3.1340  -35.8730   59.7120 C.3   150  LEU150      0.0297
     86  CG        -2.8140  -34.8120   60.7810 C.3   150  LEU150      0.0022
     87  CD1       -3.6290  -35.0480   62.0500 C.3   150  LEU150      0.0001
     88  CD2       -1.3380  -34.7860   61.1120 C.3   150  LEU150      0.0001
     89  N         -2.1390  -35.5210   54.4260 N.3   168  ASN168     -0.1225
     90  CA        -1.4440  -36.8020   54.4350 C.3   168  ASN168      0.1785
     91  C         -2.6160  -37.7740   54.2630 C.2   168  ASN168      0.2598
     92  O         -3.3260  -38.1100   55.2280 O.2   168  ASN168     -0.2718
     93  CB        -0.6650  -36.9530   55.7700 C.3   168  ASN168      0.1169
     94  CG        -0.4560  -38.3360   56.3460 C.2   168  ASN168      0.2627
     95  OD1       -0.6000  -38.5240   57.5540 O.2   168  ASN168     -0.2716
     96  ND2       -0.1060  -39.3250   55.5350 N.am  168  ASN168     -0.0877
     97  N         -2.9140  -38.0790   52.9900 N.am  169  SER169     -0.1938
     98  CA        -4.0580  -38.9050   52.6580 C.3   169  SER169      0.2055
     99  C         -3.7340  -40.3340   52.3260 C.2   169  SER169      0.2643
    100  O         -4.4960  -41.2190   52.7330 O.2   169  SER169     -0.2714
    101  CB        -4.8860  -38.2630   51.5510 C.3   169  SER169      0.2130
    102  OG        -5.8700  -39.1380   51.0150 O.3   169  SER169     -0.2179
    103  N         -2.6360  -40.5650   51.5730 N.am  170  SER170     -0.1949
    104  CA        -2.2070  -41.8800   51.0580 C.3   170  SER170      0.1924
    105  C         -2.9490  -42.1920   49.7490 C.2   170  SER170      0.2314
    106  O         -2.3180  -42.6400   48.7900 O.2   170  SER170     -0.2863
    107  CB        -2.3790  -43.0070   52.0840 C.3   170  SER170      0.2116
    108  OG        -2.0640  -44.2800   51.5440 O.3   170  SER170     -0.2180
@<TRIPOS>BOND
     1   106   105    2
     2   105   104    1
     3   102   101    1
     4   104   103    1
     5   104   107    1
     6   108   107    1
     7   101    98    1
     8   103    99   am
     9    99    98    1
    10    99   100    2
    11    98    97    1
    12    97    91   am
    13    80    78   ar
    14    79    78   ar
    15    78    77    1
    16    91    90    1
    17    91    92    2
    18    89    90    1
    19    90    93    1
    20    77    76    1
    21    96    94   am
    22    93    94    1
    23    76    73    1
    24    94    95    2
    25    59    57    1
    26    84    83    2
    27    73    74    1
    28    73    72    1
    29    56    57    2
    30    56    55    1
    31    57    58    1
    32    83    82    1
    33    74    81   am
    34    74    75    2
    35    49    50    1
    36    71    70    2
    37    81    82    1
    38    72    70   am
    39    54    55    1
    40    54    53    1
    41    70    69    1
    42    82    85    1
    43    50    53    1
    44    50    51    1
    45    48    46   ar
    46    68    69    1
    47    42    41    1
    48    42    43    2
    49    45    44    1
    50    45    46    1
    51    44    41    1
    52    41    40    1
    53    46    47   ar
    54    85    86    1
    55    20    19    1
    56    51    52    2
    57    34    33    2
    58    39    38    1
    59    86    88    1
    60    86    87    1
    61    66    65    1
    62    66    67    1
    63    19    18   ar
    64    19    17   ar
    65    37    38    1
    66    37    36    1
    67    62    61    1
    68    62    63    2
    69    33    32    1
    70    18    16   ar
    71    17    15   ar
    72    61    60    1
    73    61    64    1
    74    30    29   ar
    75    30    28   ar
    76    29    27   ar
    77    35    32    1
    78    35    36    1
    79    32    31    1
    80    65    64    1
    81     8     6    1
    82    16    14   ar
    83    15    14   ar
    84    28    26   ar
    85    14    13    1
    86    27    26   ar
    87     7     6    1
    88     6     5    1
    89     4     3    2
    90    26    25    1
    91    13    10    1
    92     5     2    1
    93     3     2    1
    94     2     1    1
    95    25    22    1
    96    21    22    1
    97    10    11    1
    98    10     9    1
    99    22    23    1
   100    11    12    2
   101    23    24    2
