@<TRIPOS>MOLECULE
tmp/3ol3A00.pdb
 131 126 0 0 0
SMALL
GASTEIGER

@<TRIPOS>ATOM
      1  N         43.1970   15.3890   43.2990 N.3     4  PHE4       -0.1241
      2  CA        43.6680   15.7960   41.9720 C.3     4  PHE4        0.1605
      3  C         45.0980   15.3050   41.7500 C.2     4  PHE4        0.2264
      4  O         45.3910   14.6500   40.7500 O.2     4  PHE4       -0.2867
      5  CB        43.6070   17.3140   41.8000 C.3     4  PHE4        0.0534
      6  CG        43.6090   17.7800   40.3570 C.ar    4  PHE4       -0.0203
      7  CD1       42.4060   18.1340   39.7220 C.ar    4  PHE4       -0.0042
      8  CD2       44.8050   17.9090   39.6450 C.ar    4  PHE4       -0.0042
      9  CE1       42.3960   18.5840   38.3980 C.ar    4  PHE4       -0.0003
     10  CE2       44.8110   18.3670   38.3190 C.ar    4  PHE4       -0.0003
     11  CZ        43.6080   18.7030   37.6920 C.ar    4  PHE4       -0.0000
     12  N         45.5540   11.5320   41.5120 N.3     7  ASN7       -0.1225
     13  CA        45.0980   11.0330   40.2120 C.3     7  ASN7        0.1785
     14  C         46.1250   11.3020   39.0900 C.2     7  ASN7        0.2597
     15  O         46.4550   10.3930   38.3110 O.2     7  ASN7       -0.2718
     16  CB        43.7280   11.6270   39.8560 C.3     7  ASN7        0.1169
     17  CG        42.5840   11.0560   40.7160 C.2     7  ASN7        0.2627
     18  OD1       42.5870    9.8770   41.0850 O.2     7  ASN7       -0.2716
     19  ND2       41.5910   11.8970   41.0110 N.am    7  ASN7       -0.0877
     20  N         46.6460   12.5320   39.0310 N.am    8  VAL8       -0.1980
     21  CA        47.6310   12.8830   38.0050 C.3     8  VAL8        0.1595
     22  C         48.9450   12.1270   38.2330 C.2     8  VAL8        0.2287
     23  O         49.4870   11.5410   37.3040 O.2     8  VAL8       -0.2864
     24  CB        47.8520   14.4160   37.9000 C.3     8  VAL8        0.0276
     25  CG1       48.8550   14.7590   36.7890 C.3     8  VAL8        0.0022
     26  CG2       46.5150   15.1340   37.6290 C.3     8  VAL8        0.0022
     27  N         48.6110    8.5910   37.1950 N.3    11  TRP11      -0.1241
     28  CA        48.6480    8.5710   35.7340 C.3    11  TRP11       0.1605
     29  C         50.0870    8.6560   35.2030 C.2    11  TRP11       0.2264
     30  O         50.4990    7.8700   34.3310 O.2    11  TRP11      -0.2867
     31  CB        47.7790    9.6930   35.1470 C.3    11  TRP11       0.0550
     32  CG        47.9380    9.7880   33.6620 C.ar   11  TRP11       0.0003
     33  CD1       47.2910    9.0320   32.7040 C.ar   11  TRP11       0.0946
     34  CD2       48.8420   10.6420   32.9600 C.ar   11  TRP11       0.0152
     35  NE1       47.7410    9.3840   31.4490 N.ar   11  TRP11      -0.2442
     36  CE2       48.6890   10.3670   31.5750 C.ar   11  TRP11       0.0810
     37  CE3       49.7580   11.6290   33.3600 C.ar   11  TRP11       0.0012
     38  CZ2       49.4260   11.0330   30.5980 C.ar   11  TRP11       0.0191
     39  CZ3       50.4900   12.2930   32.3810 C.ar   11  TRP11       0.0001
     40  CH2       50.3240   11.9880   31.0170 C.ar   11  TRP11       0.0015
     41  N         49.3210   17.0250   27.1180 N.3    31  LEU31      -0.1231
     42  CA        48.3170   16.2840   27.8780 C.3    31  LEU31       0.1693
     43  C         47.9260   16.9540   29.2130 C.2    31  LEU31       0.2591
     44  O         46.7430   17.0850   29.5170 O.2    31  LEU31      -0.2718
     45  CB        48.8040   14.8530   28.1160 C.3    31  LEU31       0.0284
     46  CG        47.8540   13.7340   28.5930 C.3    31  LEU31       0.0019
     47  CD1       47.5130   13.8890   30.0500 C.3    31  LEU31       0.0001
     48  CD2       46.5660   13.6370   27.7380 C.3    31  LEU31       0.0001
     49  N         48.9320   17.3360   30.0080 N.am   32  LEU32      -0.1980
     50  CA        48.7370   18.0310   31.2730 C.3    32  LEU32       0.1596
     51  C         47.9150   19.3120   31.1280 C.2    32  LEU32       0.2287
     52  O         47.0960   19.6140   32.0060 O.2    32  LEU32      -0.2864
     53  CB        50.0940   18.3390   31.9360 C.3    32  LEU32       0.0297
     54  CG        50.8920   17.1440   32.4760 C.3    32  LEU32       0.0022
     55  CD1       52.1910   17.6140   33.1550 C.3    32  LEU32       0.0001
     56  CD2       50.0570   16.3270   33.4430 C.3    32  LEU32       0.0001
     57  N         45.8530   19.9910   28.5670 N.3    34  ARG34      -0.1245
     58  CA        44.7470   19.7980   27.6450 C.3    34  ARG34       0.1563
     59  C         43.4660   20.2170   28.3610 C.2    34  ARG34       0.2260
     60  O         43.3060   19.9610   29.5610 O.2    34  ARG34      -0.2867
     61  CB        44.6580   18.3340   27.2240 C.3    34  ARG34       0.0307
     62  CG        43.8850   18.0820   25.9170 C.3    34  ARG34       0.0489
     63  CD        43.8580   16.5920   25.6040 C.3    34  ARG34       0.2205
     64  NE        42.7940   15.8730   26.3030 N.pl3  34  ARG34      -0.0865
     65  CZ        42.7050   14.5500   26.3680 C.cat  34  ARG34       0.5346
     66  NH1       43.6270   13.7730   25.7750 N.pl3  34  ARG34       0.1354
     67  NH2       41.6930   13.9920   27.0210 N.pl3  34  ARG34       0.1354
     68  N         32.4870   11.3380   39.5890 N.3    60  ASP60      -0.1239
     69  CA        33.5980   11.4890   38.6400 C.3    60  ASP60       0.1674
     70  C         33.3490   10.6290   37.4190 C.2    60  ASP60       0.2266
     71  O         33.5800   11.0760   36.2910 O.2    60  ASP60      -0.2867
     72  CB        34.9640   11.1430   39.2890 C.3    60  ASP60       0.1410
     73  CG        35.0060    9.7750   39.9050 C.2    60  ASP60       0.3668
     74  OD1       33.9660    9.1700   40.1490 O.co2  60  ASP60      -0.2456
     75  OD2       36.1830    9.3390   40.0940 O.co2  60  ASP60      -0.2456
     76  N         33.1660   11.6880   33.5870 N.3    64  ARG64      -0.1245
     77  CA        34.0560   10.9970   32.6620 C.3    64  ARG64       0.1563
     78  C         33.3130   10.4470   31.4560 C.2    64  ARG64       0.2260
     79  O         33.7520   10.6560   30.3270 O.2    64  ARG64      -0.2867
     80  CB        34.8110    9.8750   33.3980 C.3    64  ARG64       0.0307
     81  CG        35.9480    9.1950   32.5940 C.3    64  ARG64       0.0489
     82  CD        36.6550    8.1180   33.4230 C.3    64  ARG64       0.2205
     83  NE        36.6270    8.4140   34.8620 N.pl3  64  ARG64      -0.0865
     84  CZ        37.5610    9.0790   35.5360 C.cat  64  ARG64       0.5346
     85  NH1       38.6570    9.5180   34.9300 N.pl3  64  ARG64       0.1354
     86  NH2       37.3900    9.3000   36.8380 N.pl3  64  ARG64       0.1354
     87  N         39.8380    9.3370   26.2180 N.3    74  GLU74      -0.1231
     88  CA        39.8190    9.3260   27.6740 C.3    74  GLU74       0.1684
     89  C         40.0370   10.7500   28.2060 C.2    74  GLU74       0.2434
     90  O         41.0120   11.4270   27.8530 O.2    74  GLU74      -0.2733
     91  CB        40.8600    8.3470   28.2240 C.3    74  GLU74       0.0402
     92  CG        40.7050    8.0290   29.7080 C.3    74  GLU74       0.1161
     93  CD        39.4750    7.1860   29.9930 C.2    74  GLU74       0.3649
     94  OE1       39.2220    6.2300   29.2220 O.co2  74  GLU74      -0.2457
     95  OE2       38.7690    7.4590   30.9880 O.co2  74  GLU74      -0.2457
     96  N         39.1090   11.2250   29.0390 N.am   75  PRO75      -0.2718
     97  CA        39.2150   12.5780   29.5820 C.3    75  PRO75       0.1535
     98  C         40.3150   12.6600   30.6360 C.2    75  PRO75       0.2599
     99  O         40.5490   11.6850   31.3530 O.2    75  PRO75      -0.2715
    100  CB        37.8360   12.7990   30.2400 C.3    75  PRO75       0.0310
    101  CG        36.9450   11.8130   29.5960 C.3    75  PRO75       0.0237
    102  CD        37.8090   10.6100   29.3480 C.3    75  PRO75       0.0939
    103  N         40.9630   13.8140   30.7440 N.am   76  THR76      -0.1937
    104  CA        41.9460   14.0630   31.7970 C.3    76  THR76       0.2028
    105  C         41.2550   14.6070   33.0570 C.2    76  THR76       0.2642
    106  O         40.0810   14.9950   33.0130 O.2    76  THR76      -0.2714
    107  CB        42.9620   15.1110   31.3660 C.3    76  THR76       0.1808
    108  OG1       42.2920   16.3640   31.2100 O.3    76  THR76      -0.2208
    109  CG2       43.6550   14.7260   30.0380 C.3    76  THR76       0.0379
    110  N         42.0010   14.6490   34.1610 N.am   77  ALA77      -0.1963
    111  CA        41.5440   15.2430   35.4230 C.3    77  ALA77       0.1728
    112  C         41.0780   16.6960   35.2570 C.2    77  ALA77       0.2616
    113  O         40.0390   17.0690   35.8080 O.2    77  ALA77      -0.2715
    114  CB        42.6680   15.1740   36.5060 C.3    77  ALA77       0.0334
    115  N         41.8290   17.5080   34.5050 N.am   78  GLU78      -0.1977
    116  CA        41.4470   18.9180   34.3140 C.3    78  GLU78       0.1602
    117  C         40.1180   19.0650   33.5340 C.2    78  GLU78       0.2287
    118  O         39.2900   19.9310   33.8690 O.2    78  GLU78      -0.2864
    119  CB        42.5800   19.7020   33.6430 C.3    78  GLU78       0.0415
    120  CG        42.3150   21.1860   33.3460 C.3    78  GLU78       0.1163
    121  CD        42.0510   22.0170   34.6050 C.2    78  GLU78       0.3649
    122  OE1       42.5790   21.6600   35.7010 O.co2  78  GLU78      -0.2457
    123  OE2       41.2950   23.0250   34.4720 O.co2  78  GLU78      -0.2457
    124  N         37.6190   16.8090   33.4070 N.3    80  ILE80      -0.1245
    125  CA        36.5840   16.4410   34.3660 C.3    80  ILE80       0.1561
    126  C         36.3040   17.6080   35.3140 C.2    80  ILE80       0.2260
    127  O         35.1360   17.9230   35.6210 O.2    80  ILE80      -0.2867
    128  CB        36.9570   15.1190   35.1330 C.3    80  ILE80       0.0252
    129  CG1       36.8080   13.9070   34.1800 C.3    80  ILE80       0.0019
    130  CG2       36.0740   14.9370   36.3750 C.3    80  ILE80       0.0019
    131  CD1       37.6430   12.6790   34.5680 C.3    80  ILE80       0.0001
@<TRIPOS>BOND
     1    63    62    1
     2    63    64    1
     3    66    65    1
     4    62    61    1
     5    87    88    1
     6    64    65    2
     7    65    67    1
     8    41    42    1
     9    61    58    1
    10    58    59    1
    11    58    57    1
    12    88    89    1
    13    88    91    1
    14    48    46    1
    15    90    89    2
    16    42    45    1
    17    42    43    1
    18    45    46    1
    19    89    96   am
    20    91    92    1
    21    59    60    2
    22    46    47    1
    23    96   102    1
    24    96    97    1
    25    43    44    2
    26    43    49   am
    27    94    93   ar
    28   102   101    1
    29    97   100    1
    30    97    98    1
    31   101   100    1
    32    92    93    1
    33    93    95   ar
    34    49    50    1
    35   109   107    1
    36    79    78    2
    37    38    40   ar
    38    38    36   ar
    39    98   103   am
    40    98    99    2
    41   103   104    1
    42    40    39   ar
    43    51    50    1
    44    51    52    2
    45   108   107    1
    46    50    53    1
    47   107   104    1
    48    35    36   ar
    49    35    33   ar
    50    78    77    1
    51    36    34   ar
    52   104   105    1
    53    53    54    1
    54    39    37   ar
    55    54    55    1
    56    54    56    1
    57    81    80    1
    58    81    82    1
    59    77    80    1
    60    77    76    1
    61    33    32   ar
    62    34    37   ar
    63    34    32   ar
    64   106   105    2
    65   105   110   am
    66   120   119    1
    67   120   121    1
    68   124   125    1
    69    82    83    1
    70   117   118    2
    71   117   116    1
    72   119   116    1
    73    32    31    1
    74   110   111    1
    75   129   131    1
    76   129   128    1
    77   116   115    1
    78    30    29    2
    79   125   128    1
    80   125   126    1
    81   123   121   ar
    82   115   112   am
    83   121   122   ar
    84    83    84    2
    85    85    84    1
    86   128   130    1
    87    31    28    1
    88    29    28    1
    89   112   111    1
    90   112   113    2
    91   126   127    2
    92   111   114    1
    93    84    86    1
    94    28    27    1
    95    71    70    2
    96    25    24    1
    97    23    22    2
    98    70    69    1
    99    26    24    1
   100    11    10   ar
   101    11     9   ar
   102    24    21    1
   103    21    22    1
   104    21    20    1
   105    15    14    2
   106    10     8   ar
   107     9     7   ar
   108    69    72    1
   109    69    68    1
   110    20    14   am
   111    14    13    1
   112    72    73    1
   113     8     6   ar
   114     7     6   ar
   115    16    13    1
   116    16    17    1
   117    73    75   ar
   118    73    74   ar
   119    13    12    1
   120     6     5    1
   121    17    19   am
   122    17    18    2
   123     4     3    2
   124     3     2    1
   125     5     2    1
   126     2     1    1
