@<TRIPOS>MOLECULE
tmp/3ol3A02.pdb
 92 90 0 0 0
SMALL
GASTEIGER

@<TRIPOS>ATOM
      1  N         48.6110    8.5910   37.1950 N.3    11  TRP11      -0.1241
      2  CA        48.6480    8.5710   35.7340 C.3    11  TRP11       0.1605
      3  C         50.0870    8.6560   35.2030 C.2    11  TRP11       0.2264
      4  O         50.4990    7.8700   34.3310 O.2    11  TRP11      -0.2867
      5  CB        47.7790    9.6930   35.1470 C.3    11  TRP11       0.0550
      6  CG        47.9380    9.7880   33.6620 C.ar   11  TRP11       0.0003
      7  CD1       47.2910    9.0320   32.7040 C.ar   11  TRP11       0.0946
      8  CD2       48.8420   10.6420   32.9600 C.ar   11  TRP11       0.0152
      9  NE1       47.7410    9.3840   31.4490 N.ar   11  TRP11      -0.2442
     10  CE2       48.6890   10.3670   31.5750 C.ar   11  TRP11       0.0810
     11  CE3       49.7580   11.6290   33.3600 C.ar   11  TRP11       0.0012
     12  CZ2       49.4260   11.0330   30.5980 C.ar   11  TRP11       0.0191
     13  CZ3       50.4900   12.2930   32.3810 C.ar   11  TRP11       0.0001
     14  CH2       50.3240   11.9880   31.0170 C.ar   11  TRP11       0.0015
     15  N         52.2240    5.6210   35.7750 N.3    14  LYS14      -0.1231
     16  CA        51.8100    4.5540   34.8310 C.3    14  LYS14       0.1693
     17  C         52.1970    4.8180   33.3710 C.2    14  LYS14       0.2593
     18  O         52.6620    3.9210   32.6810 O.2    14  LYS14      -0.2718
     19  CB        50.3160    4.2760   34.9540 C.3    14  LYS14       0.0285
     20  CG        49.9890    2.9100   35.5470 C.3    14  LYS14       0.0035
     21  CD        48.4790    2.7040   35.7160 C.3    14  LYS14       0.0206
     22  CE        47.9160    3.7250   36.6950 C.3    14  LYS14       0.1093
     23  NZ        46.6860    3.2330   37.3770 N.3    14  LYS14      -0.1314
     24  N         52.0310    6.0490   32.9130 N.am   15  GLY15      -0.1942
     25  CA        52.3980    6.4080   31.5400 C.3    15  GLY15       0.2014
     26  C         53.8960    6.4380   31.3290 C.2    15  GLY15       0.2638
     27  O         54.3950    6.0950   30.2500 O.2    15  GLY15      -0.2714
     28  N         54.6350    6.8330   32.3640 N.am   16  TYR16      -0.1973
     29  CA        56.0850    6.9740   32.2420 C.3    16  TYR16       0.1639
     30  C         56.8100    6.3080   33.4230 C.2    16  TYR16       0.2290
     31  O         57.3830    6.9950   34.2800 O.2    16  TYR16      -0.2864
     32  CB        56.4590    8.4630   32.1470 C.3    16  TYR16       0.0560
     33  CG        55.9340    9.1820   30.9130 C.ar   16  TYR16      -0.0198
     34  CD1       56.6910    9.2280   29.7390 C.ar   16  TYR16      -0.0009
     35  CD2       54.6860    9.8330   30.9240 C.ar   16  TYR16      -0.0009
     36  CE1       56.2270    9.9040   28.5930 C.ar   16  TYR16       0.0417
     37  CE2       54.2100   10.5160   29.7840 C.ar   16  TYR16       0.0417
     38  CZ        54.9940   10.5310   28.6180 C.ar   16  TYR16       0.1957
     39  OH        54.5510   11.1910   27.4710 O.3    16  TYR16      -0.2866
     40  N         49.3210   17.0250   27.1180 N.3    31  LEU31      -0.1245
     41  CA        48.3170   16.2840   27.8780 C.3    31  LEU31       0.1561
     42  C         47.9260   16.9540   29.2130 C.2    31  LEU31       0.2260
     43  O         46.7430   17.0850   29.5170 O.2    31  LEU31      -0.2867
     44  CB        48.8040   14.8530   28.1160 C.3    31  LEU31       0.0270
     45  CG        47.8540   13.7340   28.5930 C.3    31  LEU31       0.0019
     46  CD1       47.5130   13.8890   30.0500 C.3    31  LEU31       0.0001
     47  CD2       46.5660   13.6370   27.7380 C.3    31  LEU31       0.0001
     48  N         45.8530   19.9910   28.5670 N.3    34  ARG34      -0.1245
     49  CA        44.7470   19.7980   27.6450 C.3    34  ARG34       0.1563
     50  C         43.4660   20.2170   28.3610 C.2    34  ARG34       0.2260
     51  O         43.3060   19.9610   29.5610 O.2    34  ARG34      -0.2867
     52  CB        44.6580   18.3340   27.2240 C.3    34  ARG34       0.0307
     53  CG        43.8850   18.0820   25.9170 C.3    34  ARG34       0.0489
     54  CD        43.8580   16.5920   25.6040 C.3    34  ARG34       0.2205
     55  NE        42.7940   15.8730   26.3030 N.pl3  34  ARG34      -0.0865
     56  CZ        42.7050   14.5500   26.3680 C.cat  34  ARG34       0.5346
     57  NH1       43.6270   13.7730   25.7750 N.pl3  34  ARG34       0.1354
     58  NH2       41.6930   13.9920   27.0210 N.pl3  34  ARG34       0.1354
     59  N         33.1660   11.6880   33.5870 N.3    64  ARG64      -0.1245
     60  CA        34.0560   10.9970   32.6620 C.3    64  ARG64       0.1563
     61  C         33.3130   10.4470   31.4560 C.2    64  ARG64       0.2260
     62  O         33.7520   10.6560   30.3270 O.2    64  ARG64      -0.2867
     63  CB        34.8110    9.8750   33.3980 C.3    64  ARG64       0.0307
     64  CG        35.9480    9.1950   32.5940 C.3    64  ARG64       0.0489
     65  CD        36.6550    8.1180   33.4230 C.3    64  ARG64       0.2205
     66  NE        36.6270    8.4140   34.8620 N.pl3  64  ARG64      -0.0865
     67  CZ        37.5610    9.0790   35.5360 C.cat  64  ARG64       0.5346
     68  NH1       38.6570    9.5180   34.9300 N.pl3  64  ARG64       0.1354
     69  NH2       37.3900    9.3000   36.8380 N.pl3  64  ARG64       0.1354
     70  N         39.8380    9.3370   26.2180 N.3    74  GLU74      -0.1231
     71  CA        39.8190    9.3260   27.6740 C.3    74  GLU74       0.1684
     72  C         40.0370   10.7500   28.2060 C.2    74  GLU74       0.2434
     73  O         41.0120   11.4270   27.8530 O.2    74  GLU74      -0.2733
     74  CB        40.8600    8.3470   28.2240 C.3    74  GLU74       0.0402
     75  CG        40.7050    8.0290   29.7080 C.3    74  GLU74       0.1161
     76  CD        39.4750    7.1860   29.9930 C.2    74  GLU74       0.3649
     77  OE1       39.2220    6.2300   29.2220 O.co2  74  GLU74      -0.2457
     78  OE2       38.7690    7.4590   30.9880 O.co2  74  GLU74      -0.2457
     79  N         39.1090   11.2250   29.0390 N.am   75  PRO75      -0.2718
     80  CA        39.2150   12.5780   29.5820 C.3    75  PRO75       0.1535
     81  C         40.3150   12.6600   30.6360 C.2    75  PRO75       0.2599
     82  O         40.5490   11.6850   31.3530 O.2    75  PRO75      -0.2715
     83  CB        37.8360   12.7990   30.2400 C.3    75  PRO75       0.0310
     84  CG        36.9450   11.8130   29.5960 C.3    75  PRO75       0.0237
     85  CD        37.8090   10.6100   29.3480 C.3    75  PRO75       0.0939
     86  N         40.9630   13.8140   30.7440 N.am   76  THR76      -0.1951
     87  CA        41.9460   14.0630   31.7970 C.3    76  THR76       0.1897
     88  C         41.2550   14.6070   33.0570 C.2    76  THR76       0.2313
     89  O         40.0810   14.9950   33.0130 O.2    76  THR76      -0.2863
     90  CB        42.9620   15.1110   31.3660 C.3    76  THR76       0.1794
     91  OG1       42.2920   16.3640   31.2100 O.3    76  THR76      -0.2208
     92  CG2       43.6550   14.7260   30.0380 C.3    76  THR76       0.0378
@<TRIPOS>BOND
     1    54    53    1
     2    54    55    1
     3    57    56    1
     4    53    52    1
     5    70    71    1
     6    55    56    2
     7    56    58    1
     8    40    41    1
     9    52    49    1
    10    39    38    1
    11    49    50    1
    12    49    48    1
    13    71    72    1
    14    71    74    1
    15    47    45    1
    16    73    72    2
    17    41    44    1
    18    41    42    1
    19    44    45    1
    20    72    79   am
    21    74    75    1
    22    50    51    2
    23    45    46    1
    24    36    38   ar
    25    36    34   ar
    26    38    37   ar
    27    79    85    1
    28    79    80    1
    29    42    43    2
    30    77    76   ar
    31    85    84    1
    32    80    83    1
    33    80    81    1
    34    84    83    1
    35    75    76    1
    36    34    33   ar
    37    37    35   ar
    38    76    78   ar
    39    92    90    1
    40    27    26    2
    41    62    61    2
    42    12    14   ar
    43    12    10   ar
    44    81    86   am
    45    81    82    2
    46    86    87    1
    47    33    35   ar
    48    33    32    1
    49    14    13   ar
    50    91    90    1
    51    26    25    1
    52    26    28   am
    53    90    87    1
    54     9    10   ar
    55     9     7   ar
    56    61    60    1
    57    25    24    1
    58    10     8   ar
    59    87    88    1
    60    32    29    1
    61    29    28    1
    62    29    30    1
    63    13    11   ar
    64    64    63    1
    65    64    65    1
    66    60    63    1
    67    60    59    1
    68    18    17    2
    69     7     6   ar
    70    24    17   am
    71     8    11   ar
    72     8     6   ar
    73    89    88    2
    74    17    16    1
    75    30    31    2
    76    65    66    1
    77     6     5    1
    78     4     3    2
    79    16    19    1
    80    16    15    1
    81    66    67    2
    82    68    67    1
    83    19    20    1
    84     5     2    1
    85     3     2    1
    86    67    69    1
    87    20    21    1
    88    21    22    1
    89     2     1    1
    90    22    23    1
