@<TRIPOS>MOLECULE
tmp/3ol7I00.pdb
 99 95 0 0 0
SMALL
GASTEIGER

@<TRIPOS>ATOM
      1  N         33.6230   43.8090   20.9440 N.3   163  ARG163     -0.1245
      2  CA        33.3520   42.5370   21.5900 C.3   163  ARG163      0.1563
      3  C         32.2070   41.8720   20.8390 C.2   163  ARG163      0.2260
      4  O         31.3260   42.5600   20.3060 O.2   163  ARG163     -0.2867
      5  CB        32.9380   42.7860   23.0430 C.3   163  ARG163      0.0307
      6  CG        33.5200   41.8070   24.0400 C.3   163  ARG163      0.0489
      7  CD        34.8430   42.2950   24.6200 C.3   163  ARG163      0.2205
      8  NE        35.3720   41.3230   25.5690 N.pl3 163  ARG163     -0.0865
      9  CZ        36.3230   40.4430   25.2800 C.cat 163  ARG163      0.5346
     10  NH1       36.8650   40.4390   24.0690 N.pl3 163  ARG163      0.1354
     11  NH2       36.7450   39.5780   26.2000 N.pl3 163  ARG163      0.1354
     12  N         29.1920   37.9940   23.9820 N.3   167  LYS167     -0.1245
     13  CA        30.0350   38.5480   25.0410 C.3   167  LYS167      0.1561
     14  C         29.5910   39.9320   25.4950 C.2   167  LYS167      0.2260
     15  O         30.0580   40.4440   26.5130 O.2   167  LYS167     -0.2867
     16  CB        31.5120   38.5630   24.6160 C.3   167  LYS167      0.0271
     17  CG        32.0820   37.1690   24.4220 C.3   167  LYS167      0.0035
     18  CD        33.5860   37.1540   24.2050 C.3   167  LYS167      0.0206
     19  CE        34.1180   35.7220   24.2800 C.3   167  LYS167      0.1093
     20  NZ        35.5370   35.5890   23.8430 N.3   167  LYS167     -0.1314
     21  N         35.9420   43.1560   29.4280 N.3   174  ARG174     -0.1245
     22  CA        37.2640   42.8380   29.9570 C.3   174  ARG174      0.1563
     23  C         37.7400   43.8910   30.9480 C.2   174  ARG174      0.2260
     24  O         37.4370   45.0800   30.8020 O.2   174  ARG174     -0.2867
     25  CB        38.2720   42.7240   28.8180 C.3   174  ARG174      0.0307
     26  CG        39.3940   41.7400   29.0780 C.3   174  ARG174      0.0489
     27  CD        40.6720   42.1450   28.3480 C.3   174  ARG174      0.2205
     28  NE        40.4460   42.3670   26.9200 N.pl3 174  ARG174     -0.0865
     29  CZ        40.7170   41.4830   25.9710 C.cat 174  ARG174      0.5346
     30  NH1       41.2380   40.3090   26.2850 N.pl3 174  ARG174      0.1354
     31  NH2       40.4650   41.7810   24.7090 N.pl3 174  ARG174      0.1354
     32  N         45.7620   28.4690   22.6620 N.3   233  ASP233     -0.1225
     33  CA        45.4940   29.7230   23.3470 C.3   233  ASP233      0.1805
     34  C         44.9010   29.2100   24.6560 C.2   233  ASP233      0.2598
     35  O         44.6990   28.0000   24.8050 O.2   233  ASP233     -0.2718
     36  CB        44.4490   30.5140   22.5420 C.3   233  ASP233      0.1424
     37  CG        44.2250   31.9360   23.0610 C.2   233  ASP233      0.3668
     38  OD1       43.6750   32.0860   24.1820 O.co2 233  ASP233     -0.2456
     39  OD2       44.5520   32.9040   22.3210 O.co2 233  ASP233     -0.2456
     40  N         44.6210   30.0920   25.6090 N.am  234  TYR234     -0.1962
     41  CA        44.1070   29.6430   26.9110 C.3   234  TYR234      0.1771
     42  C         42.7650   30.2620   27.2650 C.2   234  TYR234      0.2620
     43  O         42.3630   31.2880   26.7170 O.2   234  TYR234     -0.2715
     44  CB        45.0950   29.9570   28.0400 C.3   234  TYR234      0.0574
     45  CG        46.3390   29.0930   28.0820 C.ar  234  TYR234     -0.0198
     46  CD1       47.3370   29.2350   27.1370 C.ar  234  TYR234     -0.0009
     47  CD2       46.5200   28.1580   29.0830 C.ar  234  TYR234     -0.0009
     48  CE1       48.4610   28.4710   27.1810 C.ar  234  TYR234      0.0417
     49  CE2       47.6510   27.3850   29.1350 C.ar  234  TYR234      0.0417
     50  CZ        48.6220   27.5500   28.1830 C.ar  234  TYR234      0.1957
     51  OH        49.7650   26.7850   28.2210 O.3   234  TYR234     -0.2866
     52  N         42.0760   29.6330   28.2000 N.am  235  THR235     -0.1937
     53  CA        40.8120   30.1610   28.6720 C.3   235  THR235      0.2028
     54  C         41.0550   30.9210   29.9850 C.2   235  THR235      0.2643
     55  O         41.6170   30.3740   30.9430 O.2   235  THR235     -0.2714
     56  CB        39.7970   29.0170   28.8670 C.3   235  THR235      0.1808
     57  OG1       38.4650   29.4970   28.6620 O.3   235  THR235     -0.2208
     58  CG2       39.9130   28.4400   30.2480 C.3   235  THR235      0.0379
     59  N         40.6560   32.1900   30.0150 N.am  236  GLY236     -0.1939
     60  CA        40.8690   33.0320   31.1800 C.3   236  GLY236      0.2014
     61  C         42.2380   32.7770   31.7790 C.2   236  GLY236      0.2639
     62  O         42.3560   32.2250   32.8740 O.2   236  GLY236     -0.2714
     63  N         43.2790   33.1650   31.0510 N.am  237  TYR237     -0.1959
     64  CA        44.6500   32.8010   31.4060 C.3   237  TYR237      0.1771
     65  C         45.1240   33.4030   32.7170 C.2   237  TYR237      0.2619
     66  O         45.3310   32.6980   33.7000 O.2   237  TYR237     -0.2715
     67  CB        45.5960   33.2440   30.3020 C.3   237  TYR237      0.0574
     68  CG        47.0350   32.8360   30.4980 C.ar  237  TYR237     -0.0198
     69  CD1       47.4340   31.5300   30.2730 C.ar  237  TYR237     -0.0009
     70  CD2       48.0070   33.7700   30.8810 C.ar  237  TYR237     -0.0009
     71  CE1       48.7450   31.1620   30.4310 C.ar  237  TYR237      0.0417
     72  CE2       49.3270   33.4040   31.0530 C.ar  237  TYR237      0.0417
     73  CZ        49.6870   32.0990   30.8160 C.ar  237  TYR237      0.1957
     74  OH        50.9940   31.6930   30.9460 O.3   237  TYR237     -0.2866
     75  N         45.3160   34.7130   32.7100 N.am  238  ASP238     -0.1971
     76  CA        45.8500   35.3720   33.8710 C.3   238  ASP238      0.1709
     77  C         45.1290   34.8920   35.1480 C.2   238  ASP238      0.2293
     78  O         45.7590   34.7600   36.1970 O.2   238  ASP238     -0.2864
     79  CB        45.8300   36.9030   33.6980 C.3   238  ASP238      0.1436
     80  CG        44.4160   37.4920   33.6710 C.2   238  ASP238      0.3671
     81  OD1       43.4380   36.7200   33.5990 O.co2 238  ASP238     -0.2456
     82  OD2       44.2800   38.7390   33.6960 O.co2 238  ASP238     -0.2456
     83  N         49.4560   33.9520   26.7710 N.3   328  ASP328     -0.1239
     84  CA        48.9760   32.5790   26.5900 C.3   328  ASP328      0.1674
     85  C         49.1490   32.0990   25.1430 C.2   328  ASP328      0.2266
     86  O         49.4690   30.9340   24.8980 O.2   328  ASP328     -0.2867
     87  CB        47.5200   32.4480   27.0270 C.3   328  ASP328      0.1410
     88  CG        46.5950   33.3640   26.2630 C.2   328  ASP328      0.3668
     89  OD1       47.0500   34.4050   25.7510 O.co2 328  ASP328     -0.2456
     90  OD2       45.3950   33.0490   26.1770 O.co2 328  ASP328     -0.2456
     91  N         39.7280   28.1050   18.4930 N.3   359  LYS359     -0.1245
     92  CA        38.4660   27.8910   19.2050 C.3   359  LYS359      0.1561
     93  C         37.6340   26.8300   18.4630 C.2   359  LYS359      0.2260
     94  O         36.4630   26.5920   18.7850 O.2   359  LYS359     -0.2867
     95  CB        37.6940   29.2000   19.4530 C.3   359  LYS359      0.0271
     96  CG        37.3440   29.4050   20.9140 C.3   359  LYS359      0.0035
     97  CD        36.4150   30.5920   21.2060 C.3   359  LYS359      0.0206
     98  CE        36.1370   30.6430   22.7310 C.3   359  LYS359      0.1093
     99  NZ        35.2320   31.7220   23.2340 N.3   359  LYS359     -0.1314
@<TRIPOS>BOND
     1    93    94    2
     2    93    92    1
     3    91    92    1
     4    92    95    1
     5    95    96    1
     6     4     3    2
     7     3     2    1
     8    96    97    1
     9     1     2    1
    10    97    98    1
    11     2     5    1
    12    39    37   ar
    13    36    37    1
    14    36    33    1
    15    32    33    1
    16    98    99    1
    17     5     6    1
    18    37    38   ar
    19    33    34    1
    20    20    19    1
    21    12    13    1
    22     6     7    1
    23    10     9    1
    24    18    19    1
    25    18    17    1
    26    17    16    1
    27    16    13    1
    28     7     8    1
    29    34    35    2
    30    34    40   am
    31    31    29    1
    32    86    85    2
    33    13    14    1
    34    85    84    1
    35     9     8    2
    36     9    11    1
    37    14    15    2
    38    40    41    1
    39    89    88   ar
    40    29    30    1
    41    29    28    2
    42    90    88   ar
    43    88    87    1
    44    84    83    1
    45    84    87    1
    46    43    42    2
    47    41    42    1
    48    41    44    1
    49    28    27    1
    50    46    48   ar
    51    46    45   ar
    52    48    50   ar
    53    42    52   am
    54    44    45    1
    55    45    47   ar
    56    50    51    1
    57    50    49   ar
    58    52    53    1
    59    27    26    1
    60    57    56    1
    61    53    56    1
    62    53    54    1
    63    25    26    1
    64    25    22    1
    65    56    58    1
    66    47    49   ar
    67    21    22    1
    68    22    23    1
    69    54    59   am
    70    54    55    2
    71    59    60    1
    72    69    71   ar
    73    69    68   ar
    74    67    68    1
    75    67    64    1
    76    71    73   ar
    77    68    70   ar
    78    24    23    2
    79    73    74    1
    80    73    72   ar
    81    70    72   ar
    82    63    64    1
    83    63    61   am
    84    60    61    1
    85    64    65    1
    86    61    62    2
    87    75    65   am
    88    75    76    1
    89    65    66    2
    90    81    80   ar
    91    80    82   ar
    92    80    79    1
    93    79    76    1
    94    76    77    1
    95    77    78    2
