@<TRIPOS>MOLECULE
tmp/3olaI00.pdb
 85 82 0 0 0
SMALL
GASTEIGER

@<TRIPOS>ATOM
      1  N         33.9120   54.3190   20.7890 N.3    25  LEU25      -0.1245
      2  CA        33.7410   53.6970   19.4960 C.3    25  LEU25       0.1561
      3  C         32.4690   54.1640   18.7910 C.2    25  LEU25       0.2260
      4  O         31.4030   54.2270   19.3890 O.2    25  LEU25      -0.2867
      5  CB        33.6990   52.1860   19.6690 C.3    25  LEU25       0.0270
      6  CG        35.0090   51.5620   20.1350 C.3    25  LEU25       0.0019
      7  CD1       34.7440   50.1610   20.6370 C.3    25  LEU25       0.0001
      8  CD2       36.0240   51.5510   18.9990 C.3    25  LEU25       0.0001
      9  N         36.1800   46.5580   20.7530 N.3   162  LEU162     -0.1245
     10  CA        35.2190   45.7490   20.0040 C.3   162  LEU162      0.1561
     11  C         35.2250   44.3380   20.5570 C.2   162  LEU162      0.2260
     12  O         36.2830   43.7850   20.8420 O.2   162  LEU162     -0.2867
     13  CB        35.5340   45.7240   18.5050 C.3   162  LEU162      0.0270
     14  CG        35.4050   47.0420   17.7440 C.3   162  LEU162      0.0019
     15  CD1       35.9480   46.8930   16.3280 C.3   162  LEU162      0.0001
     16  CD2       33.9630   47.5680   17.7440 C.3   162  LEU162      0.0001
     17  N         37.6850   45.7190   12.1250 N.3   400  SER400     -0.1217
     18  CA        38.3160   46.9340   12.6050 C.3   400  SER400      0.1889
     19  C         37.8660   48.1890   11.8660 C.2   400  SER400      0.2288
     20  O         37.6650   49.2360   12.4760 O.2   400  SER400     -0.2866
     21  CB        39.8360   46.8090   12.5280 C.3   400  SER400      0.2089
     22  OG        40.4490   48.0860   12.6850 O.3   400  SER400     -0.2183
     23  N         34.6950   50.6280   12.4030 N.3   403  TRP403     -0.1227
     24  CA        34.6120   51.4320   13.6290 C.3   403  TRP403      0.1737
     25  C         35.7310   52.4590   13.7440 C.2   403  TRP403      0.2596
     26  O         36.7780   52.3200   13.1220 O.2   403  TRP403     -0.2718
     27  CB        34.6080   50.5340   14.8670 C.3   403  TRP403      0.0564
     28  CG        33.4420   49.5700   14.9550 C.ar  403  TRP403      0.0003
     29  CD1       33.4150   48.2620   14.5380 C.ar  403  TRP403      0.0946
     30  CD2       32.1490   49.8330   15.5100 C.ar  403  TRP403      0.0152
     31  NE1       32.1850   47.6990   14.8120 N.ar  403  TRP403     -0.2442
     32  CE2       31.3910   48.6480   15.3970 C.ar  403  TRP403      0.0810
     33  CE3       31.5620   50.9500   16.0950 C.ar  403  TRP403      0.0012
     34  CZ2       30.0840   48.5590   15.8350 C.ar  403  TRP403      0.0191
     35  CZ3       30.2690   50.8550   16.5340 C.ar  403  TRP403      0.0001
     36  CH2       29.5400   49.6720   16.3980 C.ar  403  TRP403      0.0015
     37  N         35.5070   53.4850   14.5540 N.am  404  THR404     -0.1939
     38  CA        36.4850   54.5530   14.7430 C.3   404  THR404      0.2028
     39  C         36.2790   55.2130   16.1220 C.2   404  THR404      0.2642
     40  O         35.1840   55.1430   16.6770 O.2   404  THR404     -0.2714
     41  CB        36.3470   55.5850   13.6190 C.3   404  THR404      0.1808
     42  OG1       37.0550   56.7860   13.9550 O.3   404  THR404     -0.2208
     43  CG2       34.8970   55.9340   13.4240 C.3   404  THR404      0.0379
     44  N         37.3200   55.8310   16.6790 N.am  405  LYS405     -0.1963
     45  CA        37.1980   56.5510   17.9460 C.3   405  LYS405      0.1728
     46  C         37.4690   58.0340   17.7660 C.2   405  LYS405      0.2616
     47  O         37.6740   58.7710   18.7310 O.2   405  LYS405     -0.2715
     48  CB        38.1900   56.0140   18.9670 C.3   405  LYS405      0.0311
     49  CG        38.1730   54.5340   19.1070 C.3   405  LYS405      0.0038
     50  CD        39.1990   54.0920   20.1220 C.3   405  LYS405      0.0206
     51  CE        38.5790   54.0070   21.4970 C.3   405  LYS405      0.1093
     52  NZ        39.1170   52.8520   22.2910 N.3   405  LYS405     -0.1314
     53  N         37.5050   58.4580   16.5180 N.am  406  ASP406     -0.1971
     54  CA        37.7430   59.8430   16.1700 C.3   406  ASP406      0.1709
     55  C         38.0530   59.8230   14.6900 C.2   406  ASP406      0.2293
     56  O         39.1310   59.3860   14.2750 O.2   406  ASP406     -0.2864
     57  CB        38.9050   60.4410   16.9630 C.3   406  ASP406      0.1436
     58  CG        39.0360   61.9440   16.7480 C.2   406  ASP406      0.3671
     59  OD1       38.3370   62.4610   15.8440 O.co2 406  ASP406     -0.2456
     60  OD2       39.8340   62.5990   17.4650 O.co2 406  ASP406     -0.2456
     61  N         41.1380   60.3190   12.5230 N.3   409  ASN409     -0.1225
     62  CA        42.1930   59.3020   12.3880 C.3   409  ASN409      0.1785
     63  C         42.0420   58.4130   11.1650 C.2   409  ASN409      0.2597
     64  O         42.8720   57.5330   10.9530 O.2   409  ASN409     -0.2718
     65  CB        42.2060   58.3580   13.5980 C.3   409  ASN409      0.1169
     66  CG        42.7480   59.0040   14.8420 C.2   409  ASN409      0.2627
     67  OD1       43.6330   59.8530   14.7900 O.2   409  ASN409     -0.2716
     68  ND2       42.2110   58.5990   15.9830 N.am  409  ASN409     -0.0877
     69  N         40.9790   58.6220   10.3880 N.am  410  THR410     -0.1953
     70  CA        40.5420   57.6460    9.3990 C.3   410  THR410      0.1897
     71  C         41.6450   57.2260    8.4210 C.2   410  THR410      0.2313
     72  O         41.7730   56.0410    8.0810 O.2   410  THR410     -0.2863
     73  CB        39.2650   58.1180    8.6770 C.3   410  THR410      0.1794
     74  OG1       38.1510   57.8690    9.5370 O.3   410  THR410     -0.2208
     75  CG2       39.0500   57.3470    7.3600 C.3   410  THR410      0.0378
     76  N         44.4000   55.0170   10.4180 N.3   413  HIS413     -0.1241
     77  CA        43.7220   53.7480   10.6050 C.3   413  HIS413      0.1621
     78  C         43.7390   52.8880    9.3400 C.2   413  HIS413      0.2264
     79  O         44.4070   51.8620    9.3120 O.2   413  HIS413     -0.2867
     80  CB        42.2880   54.0120   11.0720 C.3   413  HIS413      0.0745
     81  CG        41.5600   52.7900   11.5410 C.ar  413  HIS413      0.0817
     82  ND1       40.2630   52.8320   11.9940 N.ar  413  HIS413     -0.2268
     83  CD2       41.9480   51.4970   11.6290 C.ar  413  HIS413      0.1154
     84  CE1       39.8750   51.6150   12.3380 C.ar  413  HIS413      0.1986
     85  NE2       40.8810   50.7900   12.1340 N.ar  413  HIS413     -0.2212
@<TRIPOS>BOND
     1    75    73    1
     2    72    71    2
     3    71    70    1
     4    73    70    1
     5    73    74    1
     6    79    78    2
     7    78    77    1
     8    70    69    1
     9    69    63   am
    10    76    77    1
    11    77    80    1
    12    64    63    2
    13    80    81    1
    14    63    62    1
    15    81    83   ar
    16    81    82   ar
    17    83    85   ar
    18    19    20    2
    19    19    18    1
    20    82    84   ar
    21    17    18    1
    22    85    84   ar
    23    62    61    1
    24    62    65    1
    25    23    24    1
    26    21    18    1
    27    21    22    1
    28    26    25    2
    29    43    41    1
    30    65    66    1
    31    41    42    1
    32    41    38    1
    33    24    25    1
    34    24    27    1
    35    25    37   am
    36    56    55    2
    37    29    31   ar
    38    29    28   ar
    39    37    38    1
    40    55    54    1
    41    38    39    1
    42    67    66    2
    43    31    32   ar
    44    66    68   am
    45    27    28    1
    46    28    30   ar
    47    32    30   ar
    48    32    34   ar
    49    30    33   ar
    50    34    36   ar
    51    59    58   ar
    52    33    35   ar
    53    39    40    2
    54    39    44   am
    55    54    53    1
    56    54    57    1
    57    15    14    1
    58    36    35   ar
    59    53    46   am
    60    44    45    1
    61    58    57    1
    62    58    60   ar
    63    14    16    1
    64    14    13    1
    65    46    45    1
    66    46    47    2
    67    45    48    1
    68    13    10    1
    69     3     4    2
    70     3     2    1
    71    48    49    1
    72     8     6    1
    73    49    50    1
    74     2     5    1
    75     2     1    1
    76     5     6    1
    77    10    11    1
    78    10     9    1
    79    50    51    1
    80     6     7    1
    81    11    12    2
    82    51    52    1
