@<TRIPOS>MOLECULE
tmp/3olaA00.pdb
 98 97 0 0 0
SMALL
GASTEIGER

@<TRIPOS>ATOM
      1  N         30.6550    5.6770  100.3980 N.3   379  ARG379     -0.1231
      2  CA        30.4870    5.3580   98.9700 C.3   379  ARG379      0.1694
      3  C         31.6880    5.8480   98.2080 C.2   379  ARG379      0.2592
      4  O         31.9290    7.0430   98.1430 O.2   379  ARG379     -0.2718
      5  CB        29.2510    6.0370   98.3560 C.3   379  ARG379      0.0321
      6  CG        27.9110    5.6140   98.9250 C.3   379  ARG379      0.0489
      7  CD        27.4830    4.1980   98.5180 C.3   379  ARG379      0.2205
      8  NE        26.1250    3.9380   98.9850 N.pl3 379  ARG379     -0.0865
      9  CZ        25.8320    3.3220  100.1280 C.cat 379  ARG379      0.5346
     10  NH1       26.8090    2.8640  100.9090 N.pl3 379  ARG379      0.1354
     11  NH2       24.5650    3.1450  100.4880 N.pl3 379  ARG379      0.1354
     12  N         32.4350    4.9290   97.6160 N.am  380  ALA380     -0.1966
     13  CA        33.5930    5.3020   96.8200 C.3   380  ALA380      0.1728
     14  C         33.1850    6.1860   95.6620 C.2   380  ALA380      0.2616
     15  O         32.1480    5.9860   95.0280 O.2   380  ALA380     -0.2715
     16  CB        34.3150    4.0670   96.2960 C.3   380  ALA380      0.0334
     17  N         34.0190    7.1730   95.3980 N.am  381  ASP381     -0.1957
     18  CA        33.8680    7.9800   94.2150 C.3   381  ASP381      0.1840
     19  C         33.9120    7.0480   93.0150 C.2   381  ASP381      0.2622
     20  O         34.5180    5.9750   93.0840 O.2   381  ASP381     -0.2715
     21  CB        34.9850    9.0060   94.1510 C.3   381  ASP381      0.1450
     22  CG        34.7470   10.0170   93.1030 C.2   381  ASP381      0.3671
     23  OD1       33.7950   10.7980   93.2540 O.co2 381  ASP381     -0.2456
     24  OD2       35.5000   10.0250   92.1110 O.co2 381  ASP381     -0.2456
     25  N         33.2440    7.4400   91.9340 N.am  382  GLU382     -0.1963
     26  CA        33.1340    6.5770   90.7640 C.3   382  GLU382      0.1733
     27  C         34.4320    6.5940   89.9940 C.2   382  GLU382      0.2616
     28  O         34.8060    5.6020   89.3740 O.2   382  GLU382     -0.2715
     29  CB        31.9820    7.0020   89.8500 C.3   382  GLU382      0.0429
     30  CG        30.7470    6.1050   89.9260 C.3   382  GLU382      0.1163
     31  CD        29.5760    6.6390   89.1020 C.2   382  GLU382      0.3649
     32  OE1       29.6460    7.8070   88.6580 O.co2 382  GLU382     -0.2457
     33  OE2       28.5870    5.8950   88.8980 O.co2 382  GLU382     -0.2457
     34  N         35.1300    7.7190   90.0560 N.am  383  LYS383     -0.1977
     35  CA        36.3610    7.8770   89.3030 C.3   383  LYS383      0.1596
     36  C         37.6130    7.5880   90.1310 C.2   383  LYS383      0.2287
     37  O         38.5520    6.9640   89.6480 O.2   383  LYS383     -0.2864
     38  CB        36.4100    9.2760   88.6980 C.3   383  LYS383      0.0298
     39  CG        35.1550    9.6070   87.8910 C.3   383  LYS383      0.0038
     40  CD        35.4600   10.5490   86.7330 C.3   383  LYS383      0.0206
     41  CE        35.4430   11.9960   87.1800 C.3   383  LYS383      0.1093
     42  NZ        34.0650   12.4020   87.5690 N.3   383  LYS383     -0.1314
     43  N         33.0740    9.2290   99.7760 N.3   389  HIS389     -0.1241
     44  CA        32.1480   10.2940  100.1140 C.3   389  HIS389      0.1621
     45  C         31.4450    9.9140  101.3950 C.2   389  HIS389      0.2264
     46  O         31.0270    8.7610  101.5460 O.2   389  HIS389     -0.2867
     47  CB        31.0660   10.4320   99.0390 C.3   389  HIS389      0.0745
     48  CG        31.5700   10.9060   97.7130 C.ar  389  HIS389      0.0817
     49  ND1       31.7930   12.2370   97.4310 N.ar  389  HIS389     -0.2268
     50  CD2       31.8560   10.2280   96.5810 C.ar  389  HIS389      0.1154
     51  CE1       32.2160   12.3540   96.1870 C.ar  389  HIS389      0.1986
     52  NE2       32.2680   11.1500   95.6530 N.ar  389  HIS389     -0.2212
     53  N         27.1480   14.9950   97.8930 N.3   423  HIS423     -0.1226
     54  CA        27.7450   13.6720   97.9900 C.3   423  HIS423      0.1752
     55  C         26.7680   12.6160   97.5220 C.2   423  HIS423      0.2596
     56  O         27.1770   11.5150   97.1630 O.2   423  HIS423     -0.2718
     57  CB        28.2310   13.3910   99.4070 C.3   423  HIS423      0.0759
     58  CG        29.4260   14.1930   99.7900 C.ar  423  HIS423      0.0818
     59  ND1       30.6710   13.9690   99.2460 N.ar  423  HIS423     -0.2268
     60  CD2       29.5710   15.2340  100.6430 C.ar  423  HIS423      0.1154
     61  CE1       31.5380   14.8220   99.7640 C.ar  423  HIS423      0.1986
     62  NE2       30.8960   15.6040  100.6100 N.ar  423  HIS423     -0.2212
     63  N         25.4770   12.9530   97.5210 N.am  424  ASN424     -0.1960
     64  CA        24.4440   12.0640   96.9840 C.3   424  ASN424      0.1819
     65  C         24.5560   11.9330   95.4690 C.2   424  ASN424      0.2621
     66  O         23.9120   11.0920   94.8660 O.2   424  ASN424     -0.2715
     67  CB        23.0520   12.5830   97.3140 C.3   424  ASN424      0.1195
     68  CG        22.6670   12.3540   98.7560 C.2   424  ASN424      0.2630
     69  OD1       22.4450   11.2220   99.1800 O.2   424  ASN424     -0.2716
     70  ND2       22.5440   13.4390   99.5110 N.am  424  ASN424     -0.0877
     71  N         25.3580   12.7890   94.8530 N.am  425  GLY425     -0.1954
     72  CA        25.6000   12.7040   93.4310 C.3   425  GLY425      0.1869
     73  C         24.9710   13.7860   92.5740 C.2   425  GLY425      0.2309
     74  O         23.9190   14.3410   92.9030 O.2   425  GLY425     -0.2863
     75  N         27.5840   21.3820   91.2540 N.3   450  TYR450     -0.1241
     76  CA        28.1920   20.0820   91.5320 C.3   450  TYR450      0.1605
     77  C         29.6840   20.0400   91.2120 C.2   450  TYR450      0.2264
     78  O         30.4950   19.5410   91.9960 O.2   450  TYR450     -0.2867
     79  CB        27.5010   18.9530   90.7750 C.3   450  TYR450      0.0534
     80  CG        28.0750   17.6240   91.1690 C.ar  450  TYR450     -0.0201
     81  CD1       27.5380   16.8910   92.2390 C.ar  450  TYR450     -0.0009
     82  CD2       29.1880   17.1180   90.5120 C.ar  450  TYR450     -0.0009
     83  CE1       28.0800   15.6810   92.6030 C.ar  450  TYR450      0.0417
     84  CE2       29.7420   15.9120   90.8790 C.ar  450  TYR450      0.0417
     85  CZ        29.1910   15.2010   91.9200 C.ar  450  TYR450      0.1957
     86  OH        29.7580   13.9990   92.2480 O.3   450  TYR450     -0.2866
     87  N         32.7630   19.3870   93.5540 N.3   454  TYR454     -0.1241
     88  CA        33.5540   18.1960   93.2310 C.3   454  TYR454      0.1605
     89  C         35.0650   18.4900   93.1050 C.2   454  TYR454      0.2264
     90  O         35.9080   17.7120   93.5660 O.2   454  TYR454     -0.2867
     91  CB        32.9950   17.5310   91.9600 C.3   454  TYR454      0.0534
     92  CG        33.5080   16.1340   91.6990 C.ar  454  TYR454     -0.0201
     93  CD1       33.2570   15.0990   92.5940 C.ar  454  TYR454     -0.0009
     94  CD2       34.2290   15.8380   90.5530 C.ar  454  TYR454     -0.0009
     95  CE1       33.7250   13.8150   92.3620 C.ar  454  TYR454      0.0417
     96  CE2       34.6950   14.5550   90.3160 C.ar  454  TYR454      0.0417
     97  CZ        34.4400   13.5590   91.2260 C.ar  454  TYR454      0.1957
     98  OH        34.8940   12.2900   91.0020 O.3   454  TYR454     -0.2866
@<TRIPOS>BOND
     1    40    41    1
     2    40    39    1
     3    41    42    1
     4    39    38    1
     5    32    31   ar
     6    38    35    1
     7    33    31   ar
     8    31    30    1
     9    35    34    1
    10    35    36    1
    11    28    27    2
    12    37    36    2
    13    29    30    1
    14    29    26    1
    15    27    34   am
    16    27    26    1
    17    96    94   ar
    18    96    97   ar
    19    82    84   ar
    20    82    80   ar
    21    94    92   ar
    22    26    25    1
    23    79    80    1
    24    79    76    1
    25    84    85   ar
    26    98    97    1
    27    80    81   ar
    28    77    76    1
    29    77    78    2
    30    97    95   ar
    31    75    76    1
    32    92    91    1
    33    92    93   ar
    34    85    86    1
    35    85    83   ar
    36    25    19   am
    37    91    88    1
    38    24    22   ar
    39    81    83   ar
    40    95    93   ar
    41    73    74    2
    42    73    72    1
    43    19    20    2
    44    19    18    1
    45    22    23   ar
    46    22    21    1
    47    89    88    1
    48    89    90    2
    49    88    87    1
    50    72    71    1
    51    21    18    1
    52    18    17    1
    53    71    65   am
    54    66    65    2
    55    15    14    2
    56    17    14   am
    57    65    64    1
    58    52    51   ar
    59    52    50   ar
    60    14    13    1
    61    51    49   ar
    62    16    13    1
    63    50    48   ar
    64    13    12    1
    65    64    67    1
    66    64    63    1
    67    56    55    2
    68    67    68    1
    69    49    48   ar
    70    63    55   am
    71    55    54    1
    72    12     3   am
    73    48    47    1
    74    53    54    1
    75    54    57    1
    76     4     3    2
    77     3     2    1
    78     5     6    1
    79     5     2    1
    80     7     6    1
    81     7     8    1
    82    68    69    2
    83    68    70   am
    84     2     1    1
    85     8     9    2
    86    47    44    1
    87    59    61   ar
    88    59    58   ar
    89    57    58    1
    90    61    62   ar
    91    43    44    1
    92    58    60   ar
    93    44    45    1
    94     9    11    1
    95     9    10    1
    96    62    60   ar
    97    45    46    2
