@<TRIPOS>MOLECULE
tmp/3olaI01.pdb
 124 116 0 0 0
SMALL
GASTEIGER

@<TRIPOS>ATOM
      1  N         37.4590   47.6830   29.7570 N.3   159  LYS159     -0.1245
      2  CA        38.1350   48.0790   28.5240 C.3   159  LYS159      0.1561
      3  C         37.1850   48.3800   27.3760 C.2   159  LYS159      0.2260
      4  O         36.4460   47.5080   26.8990 O.2   159  LYS159     -0.2867
      5  CB        39.1400   47.0040   28.0840 C.3   159  LYS159      0.0271
      6  CG        40.1690   47.5070   27.1100 C.3   159  LYS159      0.0035
      7  CD        40.9570   46.3740   26.5210 C.3   159  LYS159      0.0206
      8  CE        41.8200   46.8550   25.3550 C.3   159  LYS159      0.1093
      9  NZ        42.7970   47.9210   25.7170 N.3   159  LYS159     -0.1314
     10  N         34.0420   43.7550   20.6950 N.3   163  ARG163     -0.1245
     11  CA        33.8860   42.4600   21.3280 C.3   163  ARG163      0.1563
     12  C         32.7870   41.7240   20.5660 C.2   163  ARG163      0.2260
     13  O         31.8690   42.3710   20.0410 O.2   163  ARG163     -0.2867
     14  CB        33.4820   42.6800   22.7880 C.3   163  ARG163      0.0307
     15  CG        34.0910   41.7240   23.7830 C.3   163  ARG163      0.0489
     16  CD        35.5450   42.0740   24.1050 C.3   163  ARG163      0.2205
     17  NE        36.0090   41.2480   25.2180 N.pl3 163  ARG163     -0.0865
     18  CZ        36.2630   39.9470   25.1210 C.cat 163  ARG163      0.5346
     19  NH1       36.1120   39.3350   23.9630 N.pl3 163  ARG163      0.1354
     20  NH2       36.6770   39.2560   26.1730 N.pl3 163  ARG163      0.1354
     21  N         29.5090   37.7970   23.6670 N.3   167  LYS167     -0.1245
     22  CA        30.2030   38.3340   24.8400 C.3   167  LYS167      0.1561
     23  C         29.6990   39.7220   25.2060 C.2   167  LYS167      0.2260
     24  O         30.1260   40.3150   26.1960 O.2   167  LYS167     -0.2867
     25  CB        31.7130   38.3730   24.6040 C.3   167  LYS167      0.0271
     26  CG        32.3140   37.0210   24.3230 C.3   167  LYS167      0.0035
     27  CD        33.8100   37.0470   24.4990 C.3   167  LYS167      0.0206
     28  CE        34.3830   35.6630   24.3130 C.3   167  LYS167      0.1093
     29  NZ        34.1090   35.1760   22.9320 N.3   167  LYS167     -0.1314
     30  N         36.1510   42.9550   29.1330 N.3   174  ARG174     -0.1245
     31  CA        37.4450   42.6650   29.7430 C.3   174  ARG174      0.1563
     32  C         37.8650   43.7390   30.7220 C.2   174  ARG174      0.2260
     33  O         37.5670   44.9230   30.5290 O.2   174  ARG174     -0.2867
     34  CB        38.5410   42.4780   28.6940 C.3   174  ARG174      0.0307
     35  CG        38.9890   41.0270   28.4930 C.3   174  ARG174      0.0489
     36  CD        40.3880   41.0090   27.8960 C.3   174  ARG174      0.2205
     37  NE        40.4400   41.8400   26.7090 N.pl3 174  ARG174     -0.0865
     38  CZ        40.5630   41.3640   25.4760 C.cat 174  ARG174      0.5346
     39  NH1       40.6910   40.0650   25.2720 N.pl3 174  ARG174      0.1354
     40  NH2       40.5820   42.1940   24.4480 N.pl3 174  ARG174      0.1354
     41  N         40.6380   45.7950   33.3780 N.3   176  ILE176     -0.1245
     42  CA        41.9520   46.4100   33.3840 C.3   176  ILE176      0.1561
     43  C         42.3700   46.8540   34.7950 C.2   176  ILE176      0.2260
     44  O         41.6100   47.4860   35.5260 O.2   176  ILE176     -0.2867
     45  CB        41.9440   47.5850   32.3920 C.3   176  ILE176      0.0252
     46  CG1       42.1360   47.0500   30.9730 C.3   176  ILE176      0.0019
     47  CG2       42.9880   48.6470   32.7200 C.3   176  ILE176      0.0019
     48  CD1       41.7010   48.0190   29.9300 C.3   176  ILE176      0.0001
     49  N         44.2570   28.3600   25.5210 N.3   234  TYR234     -0.1227
     50  CA        43.9010   28.2780   26.9440 C.3   234  TYR234      0.1736
     51  C         42.6150   29.0560   27.1240 C.2   234  TYR234      0.2596
     52  O         42.3350   29.9780   26.3620 O.2   234  TYR234     -0.2718
     53  CB        44.9210   28.9570   27.8690 C.3   234  TYR234      0.0548
     54  CG        46.3260   28.3940   27.9130 C.ar  234  TYR234     -0.0200
     55  CD1       47.2860   28.8140   27.0060 C.ar  234  TYR234     -0.0009
     56  CD2       46.7080   27.4950   28.8970 C.ar  234  TYR234     -0.0009
     57  CE1       48.5600   28.3330   27.0550 C.ar  234  TYR234      0.0417
     58  CE2       47.9870   27.0020   28.9500 C.ar  234  TYR234      0.0417
     59  CZ        48.9100   27.4260   28.0260 C.ar  234  TYR234      0.1957
     60  OH        50.1970   26.9480   28.0590 O.3   234  TYR234     -0.2866
     61  N         41.8540   28.7140   28.1570 N.am  235  THR235     -0.1939
     62  CA        40.7060   29.5120   28.5550 C.3   235  THR235      0.2028
     63  C         41.0360   30.2300   29.8420 C.2   235  THR235      0.2643
     64  O         41.3500   29.5980   30.8430 O.2   235  THR235     -0.2714
     65  CB        39.4990   28.6300   28.8200 C.3   235  THR235      0.1808
     66  OG1       39.3190   27.7360   27.7120 O.3   235  THR235     -0.2208
     67  CG2       38.2380   29.4850   29.0480 C.3   235  THR235      0.0379
     68  N         40.9750   31.5530   29.8160 N.am  236  GLY236     -0.1939
     69  CA        41.2840   32.3440   30.9920 C.3   236  GLY236      0.2014
     70  C         42.6560   32.0370   31.5610 C.2   236  GLY236      0.2639
     71  O         42.7820   31.7790   32.7630 O.2   236  GLY236     -0.2714
     72  N         43.6800   32.0860   30.7060 N.am  237  TYR237     -0.1959
     73  CA        45.0470   31.7140   31.0920 C.3   237  TYR237      0.1771
     74  C         45.4720   32.3240   32.4210 C.2   237  TYR237      0.2619
     75  O         45.8940   31.6260   33.3630 O.2   237  TYR237     -0.2715
     76  CB        45.9970   32.1730   30.0160 C.3   237  TYR237      0.0574
     77  CG        47.4610   31.9230   30.2600 C.ar  237  TYR237     -0.0198
     78  CD1       48.0420   30.7300   29.8830 C.ar  237  TYR237     -0.0009
     79  CD2       48.2770   32.9100   30.7880 C.ar  237  TYR237     -0.0009
     80  CE1       49.3750   30.5020   30.0590 C.ar  237  TYR237      0.0417
     81  CE2       49.6230   32.6880   30.9890 C.ar  237  TYR237      0.0417
     82  CZ        50.1720   31.4760   30.6100 C.ar  237  TYR237      0.1957
     83  OH        51.5240   31.2130   30.7560 O.3   237  TYR237     -0.2866
     84  N         45.3710   33.6420   32.4710 N.am  238  ASP238     -0.1971
     85  CA        45.6400   34.3900   33.6790 C.3   238  ASP238      0.1709
     86  C         44.8920   33.8250   34.8670 C.2   238  ASP238      0.2293
     87  O         45.5030   33.3670   35.8360 O.2   238  ASP238     -0.2864
     88  CB        45.2560   35.8550   33.4780 C.3   238  ASP238      0.1436
     89  CG        46.3530   36.6450   32.8060 C.2   238  ASP238      0.3671
     90  OD1       47.5400   36.3380   33.0780 O.co2 238  ASP238     -0.2456
     91  OD2       46.0330   37.5570   32.0060 O.co2 238  ASP238     -0.2456
     92  N         47.1060   42.0280   34.9610 N.3   288  SER288     -0.1217
     93  CA        47.6660   42.2570   33.6290 C.3   288  SER288      0.1889
     94  C         48.2090   43.6830   33.4400 C.2   288  SER288      0.2288
     95  O         49.0590   43.9260   32.5810 O.2   288  SER288     -0.2866
     96  CB        46.5880   41.9640   32.6000 C.3   288  SER288      0.2089
     97  OG        45.4640   42.7910   32.8770 O.3   288  SER288     -0.2183
     98  N         54.1700   41.9000   32.9210 N.3   293  THR293     -0.1218
     99  CA        53.2030   40.8050   32.8600 C.3   293  THR293      0.1862
    100  C         53.3990   40.0420   31.5840 C.2   293  THR293      0.2287
    101  O         53.5580   38.8380   31.6150 O.2   293  THR293     -0.2866
    102  CB        51.7460   41.2480   32.9550 C.3   293  THR293      0.1770
    103  OG1       51.4630   42.2180   31.9430 O.3   293  THR293     -0.2211
    104  CG2       51.4600   41.8300   34.3320 C.3   293  THR293      0.0375
    105  N         54.2490   36.0540   31.9280 N.3   297  ASN297     -0.1240
    106  CA        53.3080   35.1150   31.3310 C.3   297  ASN297      0.1653
    107  C         53.9060   34.3170   30.1900 C.2   297  ASN297      0.2266
    108  O         53.4450   33.2220   29.9140 O.2   297  ASN297     -0.2867
    109  CB        52.0780   35.8350   30.8280 C.3   297  ASN297      0.1155
    110  CG        51.0890   36.0920   31.9190 C.2   297  ASN297      0.2627
    111  OD1       50.9910   35.3150   32.8660 O.2   297  ASN297     -0.2716
    112  ND2       50.3510   37.1880   31.8090 N.am  297  ASN297     -0.0877
    113  N         52.8450   35.6860   25.6720 N.3   327  GLY327     -0.1210
    114  CA        51.8210   35.5180   26.6960 C.3   327  GLY327      0.1956
    115  C         51.2890   34.1010   26.6300 C.2   327  GLY327      0.2611
    116  O         52.0680   33.1510   26.5120 O.2   327  GLY327     -0.2717
    117  N         49.9700   33.9500   26.6630 N.am  328  ASP328     -0.1973
    118  CA        49.3430   32.6320   26.5220 C.3   328  ASP328      0.1709
    119  C         49.3840   32.0970   25.0820 C.2   328  ASP328      0.2293
    120  O         49.3140   30.8890   24.8560 O.2   328  ASP328     -0.2864
    121  CB        47.9010   32.6860   27.0050 C.3   328  ASP328      0.1436
    122  CG        46.9840   33.4110   26.0340 C.2   328  ASP328      0.3671
    123  OD1       47.1080   34.6490   25.8880 O.co2 328  ASP328     -0.2456
    124  OD2       46.1210   32.7380   25.4280 O.co2 328  ASP328     -0.2456
@<TRIPOS>BOND
     1    13    12    2
     2    12    11    1
     3    10    11    1
     4    11    14    1
     5    14    15    1
     6    29    28    1
     7    21    22    1
     8    15    16    1
     9    19    18    1
    10    16    17    1
    11    28    27    1
    12    26    27    1
    13    26    25    1
    14    40    38    1
    15    25    22    1
    16    22    23    1
    17   120   119    2
    18   119   118    1
    19    18    17    2
    20    18    20    1
    21    23    24    2
    22    39    38    1
    23     8     9    1
    24     8     7    1
    25   124   122   ar
    26    38    37    2
    27    49    50    1
    28   113   114    1
    29   123   122   ar
    30   122   121    1
    31    52    51    2
    32   116   115    2
    33     7     6    1
    34   118   117    1
    35   118   121    1
    36   115   117   am
    37   115   114    1
    38    37    36    1
    39     4     3    2
    40    50    51    1
    41    50    53    1
    42    55    57   ar
    43    55    54   ar
    44    57    59   ar
    45     6     5    1
    46    51    61   am
    47     3     2    1
    48    66    65    1
    49    53    54    1
    50    36    35    1
    51    54    56   ar
    52    59    60    1
    53    59    58   ar
    54     5     2    1
    55    61    62    1
    56    35    34    1
    57     2     1    1
    58    62    65    1
    59    62    63    1
    60    34    31    1
    61    65    67    1
    62    56    58   ar
    63    30    31    1
    64    31    32    1
    65    68    63   am
    66    68    69    1
    67    63    64    2
    68    78    80   ar
    69    78    77   ar
    70   108   107    2
    71    48    46    1
    72    76    77    1
    73    76    73    1
    74    80    82   ar
    75   107   106    1
    76    77    79   ar
    77    33    32    2
    78    82    83    1
    79    82    81   ar
    80    72    73    1
    81    72    70   am
    82    79    81   ar
    83   109   106    1
    84   109   110    1
    85    46    45    1
    86    69    70    1
    87    73    74    1
    88   106   105    1
    89    70    71    2
    90   100   101    2
    91   100    99    1
    92   112   110   am
    93   110   111    2
    94   103   102    1
    95    91    89   ar
    96    45    47    1
    97    45    42    1
    98    74    84   am
    99    74    75    2
   100    84    85    1
   101    95    94    2
   102    96    97    1
   103    96    93    1
   104    89    90   ar
   105    89    88    1
   106    99    98    1
   107    99   102    1
   108   102   104    1
   109    41    42    1
   110    42    43    1
   111    94    93    1
   112    88    85    1
   113    93    92    1
   114    85    86    1
   115    43    44    2
   116    86    87    2
