@<TRIPOS>MOLECULE
tmp/3olbA00.pdb
 142 132 0 0 0
SMALL
GASTEIGER

@<TRIPOS>ATOM
      1  N         15.0760   20.8870  125.2770 N.3   159  LYS159     -0.1245
      2  CA        15.7030   21.3930  124.0700 C.3   159  LYS159      0.1561
      3  C         14.6950   21.7630  122.9840 C.2   159  LYS159      0.2260
      4  O         13.8370   20.9740  122.6030 O.2   159  LYS159     -0.2867
      5  CB        16.7590   20.4280  123.5100 C.3   159  LYS159      0.0271
      6  CG        17.5210   21.0460  122.3310 C.3   159  LYS159      0.0035
      7  CD        18.7670   20.2800  121.9420 C.3   159  LYS159      0.0206
      8  CE        19.5990   21.0840  120.9160 C.3   159  LYS159      0.1093
      9  NZ        19.9300   22.4760  121.4170 N.3   159  LYS159     -0.1314
     10  N         11.4130   17.2390  116.0630 N.3   163  ARG163     -0.1245
     11  CA        11.1930   15.9270  116.6140 C.3   163  ARG163      0.1563
     12  C         10.1830   15.2030  115.7420 C.2   163  ARG163      0.2260
     13  O          9.2720   15.8280  115.2050 O.2   163  ARG163     -0.2867
     14  CB        10.6530   16.0940  118.0280 C.3   163  ARG163      0.0307
     15  CG        11.1560   15.0790  118.9990 C.3   163  ARG163      0.0489
     16  CD        12.6080   15.3040  119.3700 C.3   163  ARG163      0.2205
     17  NE        12.9490   14.4370  120.4910 N.pl3 163  ARG163     -0.0865
     18  CZ        13.8070   13.4290  120.4420 C.cat 163  ARG163      0.5346
     19  NH1       14.4600   13.1500  119.3280 N.pl3 163  ARG163      0.1354
     20  NH2       14.0220   12.7070  121.5280 N.pl3 163  ARG163      0.1354
     21  N          7.3580   11.1450  118.6640 N.3   167  LYS167     -0.1245
     22  CA         8.1130   11.7050  119.7830 C.3   167  LYS167      0.1561
     23  C          7.4360   12.9590  120.3280 C.2   167  LYS167      0.2260
     24  O          7.5990   13.3120  121.4960 O.2   167  LYS167     -0.2867
     25  CB         9.5390   12.0330  119.3490 C.3   167  LYS167      0.0271
     26  CG        10.3610   10.8310  118.8890 C.3   167  LYS167      0.0035
     27  CD        10.8620   10.0160  120.0710 C.3   167  LYS167      0.0206
     28  CE        12.0000    9.0960  119.6600 C.3   167  LYS167      0.1093
     29  NZ        13.1060    9.8480  118.9900 N.3   167  LYS167     -0.1314
     30  N          8.2780   12.8070  124.2840 N.3   172  LYS172     -0.1245
     31  CA         9.7020   12.4850  124.3620 C.3   172  LYS172      0.1561
     32  C         10.5910   13.6540  123.9120 C.2   172  LYS172      0.2260
     33  O         11.3030   13.5590  122.9120 O.2   172  LYS172     -0.2867
     34  CB        10.0160   11.2550  123.5120 C.3   172  LYS172      0.0271
     35  CG         9.0230   10.1080  123.6500 C.3   172  LYS172      0.0035
     36  CD         9.5710    8.9390  124.4660 C.3   172  LYS172      0.0206
     37  CE         9.5570    9.2400  125.9560 C.3   172  LYS172      0.1093
     38  NZ         9.7720    8.0010  126.7540 N.3   172  LYS172     -0.1314
     39  N         13.8540   15.9070  124.5190 N.3   174  ARG174     -0.1245
     40  CA        15.1370   15.7040  125.1720 C.3   174  ARG174      0.1563
     41  C         15.3710   16.8330  126.1430 C.2   174  ARG174      0.2260
     42  O         14.9640   17.9730  125.8930 O.2   174  ARG174     -0.2867
     43  CB        16.2860   15.6020  124.1590 C.3   174  ARG174      0.0307
     44  CG        16.0960   14.4520  123.1980 C.3   174  ARG174      0.0489
     45  CD        17.3690   14.0760  122.4800 C.3   174  ARG174      0.2205
     46  NE        17.9060   15.1890  121.7090 N.pl3 174  ARG174     -0.0865
     47  CZ        18.7320   15.0440  120.6840 C.cat 174  ARG174      0.5346
     48  NH1       19.1040   13.8300  120.3010 N.pl3 174  ARG174      0.1354
     49  NH2       19.1830   16.1110  120.0380 N.pl3 174  ARG174      0.1354
     50  N         18.0070   19.1780  128.4950 N.3   176  ILE176     -0.1245
     51  CA        19.3610   19.7070  128.5260 C.3   176  ILE176      0.1561
     52  C         19.7350   20.1030  129.9520 C.2   176  ILE176      0.2260
     53  O         18.8870   20.5570  130.7100 O.2   176  ILE176     -0.2867
     54  CB        19.4430   20.9340  127.6170 C.3   176  ILE176      0.0252
     55  CG1       19.7180   20.4930  126.1940 C.3   176  ILE176      0.0019
     56  CG2       20.5390   21.8760  128.0500 C.3   176  ILE176      0.0019
     57  CD1       19.5310   21.6290  125.1960 C.3   176  ILE176      0.0001
     58  N         22.3500    2.0270  120.8400 N.3   234  TYR234     -0.1227
     59  CA        21.9160    1.9560  122.2210 C.3   234  TYR234      0.1736
     60  C         20.5610    2.6190  122.3240 C.2   234  TYR234      0.2596
     61  O         20.2630    3.5490  121.5740 O.2   234  TYR234     -0.2718
     62  CB        22.8660    2.7310  123.1230 C.3   234  TYR234      0.0548
     63  CG        24.2530    2.1790  123.1910 C.ar  234  TYR234     -0.0200
     64  CD1       25.2620    2.6690  122.3690 C.ar  234  TYR234     -0.0009
     65  CD2       24.5560    1.1660  124.0650 C.ar  234  TYR234     -0.0009
     66  CE1       26.5390    2.1620  122.4300 C.ar  234  TYR234      0.0417
     67  CE2       25.8280    0.6400  124.1270 C.ar  234  TYR234      0.0417
     68  CZ        26.8190    1.1460  123.3160 C.ar  234  TYR234      0.1957
     69  OH        28.0860    0.6240  123.4120 O.3   234  TYR234     -0.2866
     70  N         19.7430    2.1610  123.2640 N.am  235  THR235     -0.1939
     71  CA        18.5910    2.9520  123.6790 C.3   235  THR235      0.2028
     72  C         18.9410    3.6650  124.9840 C.2   235  THR235      0.2643
     73  O         19.2850    3.0310  125.9800 O.2   235  THR235     -0.2714
     74  CB        17.3190    2.1010  123.8470 C.3   235  THR235      0.1808
     75  OG1       17.1030    1.3220  122.6660 O.3   235  THR235     -0.2208
     76  CG2       16.1190    2.9930  124.0530 C.3   235  THR235      0.0379
     77  N         18.8780    4.9900  124.9570 N.am  236  GLY236     -0.1939
     78  CA        19.1230    5.8050  126.1360 C.3   236  GLY236      0.2014
     79  C         20.4850    5.5560  126.7360 C.2   236  GLY236      0.2639
     80  O         20.5960    5.0200  127.8290 O.2   236  GLY236     -0.2714
     81  N         21.5230    5.9570  126.0140 N.am  237  TYR237     -0.1959
     82  CA        22.8930    5.5780  126.3400 C.3   237  TYR237      0.1771
     83  C         23.3350    6.0960  127.6860 C.2   237  TYR237      0.2619
     84  O         23.7050    5.3220  128.5730 O.2   237  TYR237     -0.2715
     85  CB        23.8280    6.1240  125.2790 C.3   237  TYR237      0.0574
     86  CG        25.2900    5.8250  125.4870 C.ar  237  TYR237     -0.0198
     87  CD1       25.7760    4.5340  125.3660 C.ar  237  TYR237     -0.0009
     88  CD2       26.1910    6.8410  125.7580 C.ar  237  TYR237     -0.0009
     89  CE1       27.1210    4.2590  125.5170 C.ar  237  TYR237      0.0417
     90  CE2       27.5290    6.5750  125.9200 C.ar  237  TYR237      0.0417
     91  CZ        27.9930    5.2780  125.7880 C.ar  237  TYR237      0.1957
     92  OH        29.3310    5.0080  125.9360 O.3   237  TYR237     -0.2866
     93  N         23.3020    7.4150  127.8220 N.am  238  ASP238     -0.1971
     94  CA        23.8280    8.0940  128.9970 C.3   238  ASP238      0.1709
     95  C         23.0380    7.7410  130.2310 C.2   238  ASP238      0.2293
     96  O         23.6050    7.4140  131.2640 O.2   238  ASP238     -0.2864
     97  CB        23.7920    9.6010  128.7810 C.3   238  ASP238      0.1436
     98  CG        24.4150   10.0150  127.4570 C.2   238  ASP238      0.3671
     99  OD1       24.0230    9.4450  126.4080 O.co2 238  ASP238     -0.2456
    100  OD2       25.2960   10.9090  127.4710 O.co2 238  ASP238     -0.2456
    101  N         24.5140   15.5840  130.3670 N.3   288  SER288     -0.1217
    102  CA        24.9150   15.8610  128.9900 C.3   288  SER288      0.1889
    103  C         25.5680   17.2470  128.8150 C.2   288  SER288      0.2288
    104  O         26.5720   17.3900  128.1070 O.2   288  SER288     -0.2866
    105  CB        23.6920   15.7550  128.0950 C.3   288  SER288      0.2089
    106  OG        22.6680   16.5990  128.6080 O.3   288  SER288     -0.2183
    107  N         31.7390   15.7050  128.3700 N.3   293  THR293     -0.1218
    108  CA        30.8180   14.6100  128.1100 C.3   293  THR293      0.1862
    109  C         31.0760   13.9000  126.7770 C.2   293  THR293      0.2287
    110  O         31.0110   12.6720  126.7110 O.2   293  THR293     -0.2866
    111  CB        29.3400   15.0310  128.2620 C.3   293  THR293      0.1770
    112  OG1       29.0380   16.1370  127.3920 O.3   293  THR293     -0.2211
    113  CG2       29.0930   15.4260  129.6930 C.3   293  THR293      0.0375
    114  N         31.9280   10.1210  127.0830 N.3   297  ASN297     -0.1240
    115  CA        31.0020    9.1730  126.4800 C.3   297  ASN297      0.1653
    116  C         31.6710    8.2490  125.4410 C.2   297  ASN297      0.2266
    117  O         31.4260    7.0450  125.4160 O.2   297  ASN297     -0.2867
    118  CB        29.8290    9.9090  125.8580 C.3   297  ASN297      0.1155
    119  CG        28.7230   10.1490  126.8400 C.2   297  ASN297      0.2627
    120  OD1       28.5540    9.3900  127.8030 O.2   297  ASN297     -0.2716
    121  ND2       27.9490   11.2030  126.6040 N.am  297  ASN297     -0.0877
    122  N         30.6700    9.6100  121.0040 N.3   327  GLY327     -0.1210
    123  CA        29.6860    9.4050  122.0470 C.3   327  GLY327      0.1956
    124  C         29.1400    7.9970  121.9570 C.2   327  GLY327      0.2611
    125  O         29.8920    7.0270  122.0260 O.2   327  GLY327     -0.2717
    126  N         27.8360    7.8570  121.7940 N.am  328  ASP328     -0.1973
    127  CA        27.2830    6.5140  121.7500 C.3   328  ASP328      0.1709
    128  C         27.3280    5.9160  120.3370 C.2   328  ASP328      0.2293
    129  O         27.2160    4.7010  120.1640 O.2   328  ASP328     -0.2864
    130  CB        25.8690    6.4650  122.3430 C.3   328  ASP328      0.1436
    131  CG        24.8790    7.2850  121.5550 C.2   328  ASP328      0.3671
    132  OD1       25.1260    8.4880  121.3600 O.co2 328  ASP328     -0.2456
    133  OD2       23.8550    6.7250  121.1210 O.co2 328  ASP328     -0.2456
    134  N         25.3550    9.5340  111.0070 N.3   375  LYS375     -0.1245
    135  CA        24.1980    9.5900  110.1280 C.3   375  LYS375      0.1561
    136  C         24.5440    9.5250  108.6450 C.2   375  LYS375      0.2260
    137  O         23.6580    9.6280  107.8010 O.2   375  LYS375     -0.2867
    138  CB        23.3240   10.8060  110.4500 C.3   375  LYS375      0.0271
    139  CG        22.3930   10.5330  111.6010 C.3   375  LYS375      0.0035
    140  CD        21.2980   11.5580  111.6770 C.3   375  LYS375      0.0206
    141  CE        20.0780   10.9620  112.3550 C.3   375  LYS375      0.1093
    142  NZ        20.4450   10.0890  113.5060 N.3   375  LYS375     -0.1314
@<TRIPOS>BOND
     1   137   136    2
     2   136   135    1
     3   135   138    1
     4   135   134    1
     5   138   139    1
     6   139   140    1
     7   140   141    1
     8   141   142    1
     9    13    12    2
    10    12    11    1
    11    10    11    1
    12    11    14    1
    13    14    15    1
    14    21    22    1
    15    26    25    1
    16    26    27    1
    17    29    28    1
    18    15    16    1
    19    19    18    1
    20    25    22    1
    21    16    17    1
    22    28    27    1
    23    22    23    1
    24    49    47    1
    25   129   128    2
    26    48    47    1
    27    23    24    2
    28   128   127    1
    29    18    17    2
    30    18    20    1
    31    47    46    2
    32    58    59    1
    33     8     9    1
    34     8     7    1
    35   122   123    1
    36   133   131   ar
    37   132   131   ar
    38   131   130    1
    39    61    60    2
    40    46    45    1
    41   127   126    1
    42   127   130    1
    43   126   124   am
    44     7     6    1
    45   124   125    2
    46   124   123    1
    47    59    60    1
    48    59    62    1
    49    60    70   am
    50     6     5    1
    51    64    66   ar
    52    64    63   ar
    53    66    68   ar
    54    45    44    1
    55     4     3    2
    56    75    74    1
    57    33    32    2
    58     3     2    1
    59    62    63    1
    60    63    65   ar
    61    44    43    1
    62    70    71    1
    63    68    69    1
    64    68    67   ar
    65     5     2    1
    66    34    35    1
    67    34    31    1
    68    35    36    1
    69    71    74    1
    70    71    72    1
    71    74    76    1
    72    32    31    1
    73    65    67   ar
    74     2     1    1
    75    43    40    1
    76    30    31    1
    77    36    37    1
    78    39    40    1
    79    77    72   am
    80    77    78    1
    81    72    73    2
    82    40    41    1
    83    57    55    1
    84    85    86    1
    85    85    82    1
    86    87    86   ar
    87    87    89   ar
    88   117   116    2
    89   116   115    1
    90    86    88   ar
    91    89    91   ar
    92    88    90   ar
    93    91    90   ar
    94    91    92    1
    95   118   115    1
    96   118   119    1
    97    42    41    2
    98    37    38    1
    99    81    82    1
   100    81    79   am
   101    78    79    1
   102    55    54    1
   103    82    83    1
   104    99    98   ar
   105   115   114    1
   106   121   119   am
   107   110   109    2
   108    79    80    2
   109   109   108    1
   110   119   120    2
   111   112   111    1
   112    98   100   ar
   113    98    97    1
   114    54    56    1
   115    54    51    1
   116    83    93   am
   117    83    84    2
   118    93    94    1
   119   105   106    1
   120   105   102    1
   121   104   103    2
   122   108   111    1
   123   108   107    1
   124   111   113    1
   125    50    51    1
   126    51    52    1
   127    97    94    1
   128   103   102    1
   129   102   101    1
   130    94    95    1
   131    52    53    2
   132    95    96    2
