@<TRIPOS>MOLECULE
tmp/3oldA04.pdb
 155 151 0 0 0
SMALL
GASTEIGER

@<TRIPOS>ATOM
      1  N          7.1020    1.8110  -25.9700 N.3   314  PHE314     -0.1227
      2  CA         7.6540    3.1510  -26.1400 C.3   314  PHE314      0.1736
      3  C          7.5690    3.6000  -27.6010 C.2   314  PHE314      0.2595
      4  O          7.6070    4.7970  -27.8830 O.2   314  PHE314     -0.2718
      5  CB         9.1080    3.1950  -25.6470 C.3   314  PHE314      0.0547
      6  CG        10.0620    2.3780  -26.4730 C.ar  314  PHE314     -0.0202
      7  CD1       10.6120    2.8970  -27.6420 C.ar  314  PHE314     -0.0042
      8  CD2       10.3980    1.0830  -26.0930 C.ar  314  PHE314     -0.0042
      9  CE1       11.4860    2.1410  -28.4230 C.ar  314  PHE314     -0.0003
     10  CE2       11.2700    0.3140  -26.8680 C.ar  314  PHE314     -0.0003
     11  CZ        11.8150    0.8480  -28.0370 C.ar  314  PHE314     -0.0000
     12  N          7.4530    2.6430  -28.5210 N.am  315  TRP315     -0.1976
     13  CA         7.3410    2.9590  -29.9490 C.3   315  TRP315      0.1640
     14  C          6.0460    3.7240  -30.1950 C.2   315  TRP315      0.2290
     15  O          5.9460    4.5040  -31.1400 O.2   315  TRP315     -0.2864
     16  CB         7.3220    1.6890  -30.8080 C.3   315  TRP315      0.0576
     17  CG         8.6110    0.9310  -30.8590 C.ar  315  TRP315      0.0006
     18  CD1        8.8650   -0.2910  -30.2990 C.ar  315  TRP315      0.0946
     19  CD2        9.8160    1.3210  -31.5340 C.ar  315  TRP315      0.0152
     20  NE1       10.1490   -0.6860  -30.5850 N.ar  315  TRP315     -0.2442
     21  CE2       10.7570    0.2830  -31.3410 C.ar  315  TRP315      0.0810
     22  CE3       10.1920    2.4470  -32.2820 C.ar  315  TRP315      0.0012
     23  CZ2       12.0550    0.3360  -31.8700 C.ar  315  TRP315      0.0191
     24  CZ3       11.4840    2.5020  -32.8100 C.ar  315  TRP315      0.0001
     25  CH2       12.4000    1.4480  -32.5980 C.ar  315  TRP315      0.0015
     26  N          4.7060    5.8910  -28.1090 N.3   317  ALA317     -0.1231
     27  CA         4.8710    6.8460  -27.0190 C.3   317  ALA317      0.1694
     28  C          3.6420    7.5500  -26.4410 C.2   317  ALA317      0.2591
     29  O          3.3940    7.4590  -25.2380 O.2   317  ALA317     -0.2718
     30  CB         5.9140    7.8850  -27.4190 C.3   317  ALA317      0.0304
     31  N          2.8810    8.2560  -27.2690 N.am  318  ARG318     -0.1980
     32  CA         1.7190    8.9840  -26.7580 C.3   318  ARG318      0.1597
     33  C          0.7070    8.0790  -26.0580 C.2   318  ARG318      0.2287
     34  O          0.3350    8.3370  -24.9140 O.2   318  ARG318     -0.2864
     35  CB         1.0450    9.7730  -27.8860 C.3   318  ARG318      0.0334
     36  CG        -0.0340   10.7490  -27.4270 C.3   318  ARG318      0.0492
     37  CD        -0.2410   11.8480  -28.4710 C.3   318  ARG318      0.2205
     38  NE        -1.3100   12.7810  -28.1280 N.pl3 318  ARG318     -0.0865
     39  CZ        -2.6020   12.5500  -28.3430 C.cat 318  ARG318      0.5346
     40  NH1       -2.9870   11.4120  -28.9010 N.pl3 318  ARG318      0.1354
     41  NH2       -3.5060   13.4650  -28.0160 N.pl3 318  ARG318      0.1354
     42  N          2.2630    6.2780  -22.7900 N.3   321  LYS321     -0.1245
     43  CA         2.2880    7.0820  -21.5730 C.3   321  LYS321      0.1561
     44  C          0.9300    7.0700  -20.8830 C.2   321  LYS321      0.2260
     45  O          0.8490    7.0720  -19.6510 O.2   321  LYS321     -0.2867
     46  CB         2.6980    8.5210  -21.8990 C.3   321  LYS321      0.0271
     47  CG         4.1960    8.6830  -22.1260 C.3   321  LYS321      0.0035
     48  CD         4.5700   10.1140  -22.5080 C.3   321  LYS321      0.0206
     49  CE         4.1330   10.4430  -23.9260 C.3   321  LYS321      0.1093
     50  NZ         4.4620   11.8600  -24.2720 N.3   321  LYS321     -0.1314
     51  N         16.4010    0.9900  -27.6820 N.3   342  ARG342     -0.1245
     52  CA        15.9270    1.1500  -29.0370 C.3   342  ARG342      0.1563
     53  C         16.7070    0.1900  -29.9330 C.2   342  ARG342      0.2260
     54  O         17.9200    0.0410  -29.7890 O.2   342  ARG342     -0.2867
     55  CB        16.1730    2.6030  -29.4450 C.3   342  ARG342      0.0307
     56  CG        15.1320    3.2440  -30.3370 C.3   342  ARG342      0.0489
     57  CD        15.2620    4.7710  -30.2650 C.3   342  ARG342      0.2205
     58  NE        14.3840    5.3660  -29.2550 N.pl3 342  ARG342     -0.0865
     59  CZ        14.7890    6.1020  -28.2210 C.cat 342  ARG342      0.5346
     60  NH1       16.0790    6.3480  -28.0350 N.pl3 342  ARG342      0.1354
     61  NH2       13.8950    6.6110  -27.3800 N.pl3 342  ARG342      0.1354
     62  N         18.8170   17.0390  -20.0180 N.3   374  ASP374     -0.1225
     63  CA        17.3620   17.1220  -19.8520 C.3   374  ASP374      0.1805
     64  C         16.8120   15.8920  -19.1190 C.2   374  ASP374      0.2598
     65  O         15.6000   15.6970  -19.0260 O.2   374  ASP374     -0.2718
     66  CB        16.6630   17.2890  -21.2120 C.3   374  ASP374      0.1424
     67  CG        16.9030   16.1200  -22.1500 C.2   374  ASP374      0.3668
     68  OD1       17.5130   15.1150  -21.7260 O.co2 374  ASP374     -0.2456
     69  OD2       16.4710   16.2070  -23.3200 O.co2 374  ASP374     -0.2456
     70  N         17.7400   15.0900  -18.5980 N.am  375  THR375     -0.1939
     71  CA        17.4990   13.8550  -17.8410 C.3   375  THR375      0.2028
     72  C         17.1460   12.6100  -18.6570 C.2   375  THR375      0.2642
     73  O         16.9120   11.5420  -18.0850 O.2   375  THR375     -0.2714
     74  CB        16.4360   14.0290  -16.7120 C.3   375  THR375      0.1808
     75  OG1       15.1230   14.0940  -17.2770 O.3   375  THR375     -0.2208
     76  CG2       16.7120   15.2900  -15.9030 C.3   375  THR375      0.0379
     77  N         17.1110   12.7330  -19.9830 N.am  376  THR376     -0.1950
     78  CA        16.8350   11.5740  -20.8310 C.3   376  THR376      0.1897
     79  C         18.1490   10.8000  -20.9200 C.2   376  THR376      0.2313
     80  O         19.1570   11.2150  -20.3440 O.2   376  THR376     -0.2863
     81  CB        16.4170   11.9690  -22.2690 C.3   376  THR376      0.1794
     82  OG1       17.4290   12.7970  -22.8530 O.3   376  THR376     -0.2208
     83  CG2       15.0920   12.7100  -22.2710 C.3   376  THR376      0.0378
     84  N         16.1950    3.8490  -24.0370 N.3   382  VAL382     -0.1245
     85  CA        14.9740    4.6450  -24.0480 C.3   382  VAL382      0.1561
     86  C         14.6970    5.3100  -22.7010 C.2   382  VAL382      0.2260
     87  O         14.2460    6.4580  -22.6490 O.2   382  VAL382     -0.2867
     88  CB        13.7640    3.7800  -24.4610 C.3   382  VAL382      0.0252
     89  CG1       12.4940    4.6200  -24.4830 C.3   382  VAL382      0.0019
     90  CG2       14.0160    3.1750  -25.8330 C.3   382  VAL382      0.0019
     91  N         12.3270    7.4660  -17.0260 N.3   386  ARG386     -0.1231
     92  CA        12.7870    8.8400  -16.8670 C.3   386  ARG386      0.1694
     93  C         11.9020    9.8530  -17.5880 C.2   386  ARG386      0.2592
     94  O         12.1470   11.0560  -17.5050 O.2   386  ARG386     -0.2718
     95  CB        14.2330    8.9770  -17.3400 C.3   386  ARG386      0.0321
     96  CG        15.2590    8.6630  -16.2600 C.3   386  ARG386      0.0489
     97  CD        16.6510    8.5260  -16.8470 C.3   386  ARG386      0.2205
     98  NE        17.6750    8.3840  -15.8140 N.pl3 386  ARG386     -0.0865
     99  CZ        18.3260    9.4010  -15.2600 C.cat 386  ARG386      0.5346
    100  NH1       18.0650   10.6450  -15.6410 N.pl3 386  ARG386      0.1354
    101  NH2       19.2430    9.1750  -14.3260 N.pl3 386  ARG386      0.1354
    102  N         10.8850    9.3740  -18.3000 N.am  387  TRP387     -0.1962
    103  CA         9.9530   10.2700  -18.9820 C.3   387  TRP387      0.1771
    104  C          9.1790   10.9570  -17.8630 C.2   387  TRP387      0.2619
    105  O          8.7240   10.2960  -16.9300 O.2   387  TRP387     -0.2715
    106  CB         8.9860    9.4830  -19.8770 C.3   387  TRP387      0.0590
    107  CG         9.6370    8.8300  -21.0760 C.ar  387  TRP387      0.0006
    108  CD1       10.9750    8.7650  -21.3520 C.ar  387  TRP387      0.0946
    109  CD2        8.9750    8.1370  -22.1430 C.ar  387  TRP387      0.0152
    110  NE1       11.1860    8.0770  -22.5210 N.ar  387  TRP387     -0.2442
    111  CE2        9.9770    7.6790  -23.0280 C.ar  387  TRP387      0.0810
    112  CE3        7.6320    7.8570  -22.4370 C.ar  387  TRP387      0.0012
    113  CZ2        9.6780    6.9550  -24.1910 C.ar  387  TRP387      0.0191
    114  CZ3        7.3340    7.1350  -23.5950 C.ar  387  TRP387      0.0001
    115  CH2        8.3540    6.6930  -24.4560 C.ar  387  TRP387      0.0015
    116  N          9.0300   12.2760  -17.9470 N.am  388  ARG388     -0.1963
    117  CA         8.3250   13.0170  -16.9030 C.3   388  ARG388      0.1729
    118  C          6.9410   12.4540  -16.6030 C.2   388  ARG388      0.2616
    119  O          6.5580   12.3170  -15.4430 O.2   388  ARG388     -0.2715
    120  CB         8.1870   14.4990  -17.2810 C.3   388  ARG388      0.0348
    121  CG         7.4720   15.3230  -16.2110 C.3   388  ARG388      0.0492
    122  CD         7.1300   16.7390  -16.6870 C.3   388  ARG388      0.2205
    123  NE         6.1760   16.7410  -17.7920 N.pl3 388  ARG388     -0.0865
    124  CZ         6.4930   17.0150  -19.0530 C.cat 388  ARG388      0.5346
    125  NH1        7.7450   17.3180  -19.3730 N.pl3 388  ARG388      0.1354
    126  NH2        5.5630   16.9790  -19.9960 N.pl3 388  ARG388      0.1354
    127  N          6.1960   12.1300  -17.6540 N.am  389  GLN389     -0.1977
    128  CA         4.8420   11.6020  -17.5200 C.3   389  GLN389      0.1601
    129  C          4.7730   10.2650  -16.7740 C.2   389  GLN389      0.2287
    130  O          3.7820    9.9640  -16.1030 O.2   389  GLN389     -0.2864
    131  CB         4.2070   11.4650  -18.9100 C.3   389  GLN389      0.0394
    132  CG         4.1280   12.7850  -19.6790 C.3   389  GLN389      0.0908
    133  CD         5.3710   13.0870  -20.5090 C.2   389  GLN389      0.2608
    134  OE1        6.4810   12.6690  -20.1760 O.2   389  GLN389     -0.2717
    135  NE2        5.1880   13.8350  -21.5920 N.am  389  GLN389     -0.0878
    136  N          7.5710    9.0370  -14.7570 N.3   391  ARG391     -0.1245
    137  CA         8.2210    9.2680  -13.4830 C.3   391  ARG391      0.1563
    138  C          7.2650    9.9160  -12.4830 C.2   391  ARG391      0.2260
    139  O          7.2230    9.5210  -11.3180 O.2   391  ARG391     -0.2867
    140  CB         9.4470   10.1540  -13.6720 C.3   391  ARG391      0.0307
    141  CG        10.2250   10.3830  -12.3990 C.3   391  ARG391      0.0489
    142  CD        10.2810   11.8580  -12.0830 C.3   391  ARG391      0.2205
    143  NE        10.9390   12.6070  -13.1480 N.pl3 391  ARG391     -0.0865
    144  CZ        10.6490   13.8640  -13.4640 C.cat 391  ARG391      0.5346
    145  NH1        9.7050   14.5200  -12.7990 N.pl3 391  ARG391      0.1354
    146  NH2       11.3090   14.4710  -14.4390 N.pl3 391  ARG391      0.1354
    147  N         -0.4970   17.0750  -26.4350 N.3   483  GLU483     -0.1245
    148  CA         0.7270   16.2730  -26.4620 C.3   483  GLU483      0.1567
    149  C          0.4900   14.9980  -25.6570 C.2   483  GLU483      0.2260
    150  O          0.7830   13.8920  -26.1130 O.2   483  GLU483     -0.2867
    151  CB         1.8860   17.0470  -25.8360 C.3   483  GLU483      0.0388
    152  CG         3.2250   16.3380  -25.9630 C.3   483  GLU483      0.1160
    153  CD         4.1870   16.6900  -24.8430 C.2   483  GLU483      0.3649
    154  OE1        4.4010   17.8970  -24.5930 O.co2 483  GLU483     -0.2457
    155  OE2        4.7330   15.7540  -24.2170 O.co2 483  GLU483     -0.2457
@<TRIPOS>BOND
     1    24    25   ar
     2    24    22   ar
     3    25    23   ar
     4    22    19   ar
     5    23    21   ar
     6    19    21   ar
     7    19    17   ar
     8    21    20   ar
     9    15    14    2
    10    17    16    1
    11    17    18   ar
    12    16    13    1
    13    20    18   ar
    14    56    57    1
    15    56    55    1
    16    57    58    1
    17    14    13    1
    18    13    12    1
    19    53    54    2
    20    53    52    1
    21    55    52    1
    22    58    59    2
    23    52    51    1
    24    40    39    1
    25    12     3   am
    26    37    38    1
    27    37    36    1
    28     9    11   ar
    29     9     7   ar
    30    39    38    2
    31    39    41    1
    32    59    60    1
    33    59    61    1
    34    26    27    1
    35    11    10   ar
    36    35    36    1
    37    35    32    1
    38     4     3    2
    39     7     6   ar
    40     3     2    1
    41    30    27    1
    42    31    32    1
    43    31    28   am
    44    27    28    1
    45    10     8   ar
    46    32    33    1
    47     6     8   ar
    48     6     5    1
    49   148   147    1
    50   148   151    1
    51   148   149    1
    52    28    29    2
    53     2     1    1
    54     2     5    1
    55   150   149    2
    56    33    34    2
    57   152   151    1
    58   152   153    1
    59    90    88    1
    60   153   154   ar
    61   153   155   ar
    62    89    88    1
    63    88    85    1
    64   115   113   ar
    65   115   114   ar
    66    50    49    1
    67   113   111   ar
    68    85    84    1
    69    85    86    1
    70    49    48    1
    71   114   112   ar
    72    69    67   ar
    73   111   110   ar
    74   111   109   ar
    75    82    81    1
    76    42    43    1
    77    86    87    2
    78   110   108   ar
    79    48    47    1
    80   112   109   ar
    81    83    81    1
    82    81    78    1
    83    67    68   ar
    84    67    66    1
    85   109   107   ar
    86    47    46    1
    87    46    43    1
    88   135   133   am
    89    43    44    1
    90   108   107   ar
    91    66    63    1
    92   107   106    1
    93    79    78    1
    94    79    80    2
    95    44    45    2
    96    78    77    1
    97   133   134    2
    98   133   132    1
    99    62    63    1
   100   126   124    1
   101    77    72   am
   102   106   103    1
   103    63    64    1
   104   132   131    1
   105   125   124    1
   106    64    65    2
   107    64    70   am
   108   124   123    2
   109   103   102    1
   110   103   104    1
   111   131   128    1
   112    72    73    2
   113    72    71    1
   114    70    71    1
   115   102    93   am
   116   116   104   am
   117   116   117    1
   118   104   105    2
   119    71    74    1
   120   123   122    1
   121   127   128    1
   122   127   118   am
   123    93    94    2
   124    93    92    1
   125   128   129    1
   126    95    92    1
   127    95    96    1
   128   120   117    1
   129   120   121    1
   130    75    74    1
   131    91    92    1
   132   117   118    1
   133    97    96    1
   134    97    98    1
   135   129   130    2
   136    74    76    1
   137   122   121    1
   138   118   119    2
   139    98    99    2
   140   100    99    1
   141    99   101    1
   142   136   137    1
   143   146   144    1
   144   140   137    1
   145   140   141    1
   146   137   138    1
   147   144   143    2
   148   144   145    1
   149   143   142    1
   150   138   139    2
   151   141   142    1
