@<TRIPOS>MOLECULE
tmp/3olgA01.pdb
 170 166 0 0 0
SMALL
GASTEIGER

@<TRIPOS>ATOM
      1  N          2.5020  -10.9670   26.2960 N.3    57  TRP57      -0.1227
      2  CA         2.1020  -11.7910   25.1670 C.3    57  TRP57       0.1737
      3  C          1.6220  -10.9050   24.0220 C.2    57  TRP57       0.2595
      4  O          1.9350  -11.1580   22.8610 O.2    57  TRP57      -0.2718
      5  CB         0.9870  -12.7690   25.5570 C.3    57  TRP57       0.0564
      6  CG        -0.2500  -12.0990   26.0800 C.ar   57  TRP57       0.0003
      7  CD1       -0.5180  -11.7740   27.3790 C.ar   57  TRP57       0.0946
      8  CD2       -1.3550  -11.6110   25.3070 C.ar   57  TRP57       0.0152
      9  NE1       -1.7160  -11.1130   27.4650 N.ar   57  TRP57      -0.2442
     10  CE2       -2.2540  -10.9970   26.2100 C.ar   57  TRP57       0.0810
     11  CE3       -1.6710  -11.6290   23.9400 C.ar   57  TRP57       0.0012
     12  CZ2       -3.4550  -10.4060   25.7920 C.ar   57  TRP57       0.0191
     13  CZ3       -2.8650  -11.0390   23.5190 C.ar   57  TRP57       0.0001
     14  CH2       -3.7430  -10.4350   24.4470 C.ar   57  TRP57       0.0015
     15  N          0.8940   -9.8410   24.3500 N.am   58  TRP58      -0.1976
     16  CA         0.3580   -8.9770   23.3130 C.3    58  TRP58       0.1640
     17  C          1.3210   -8.1670   22.4340 C.2    58  TRP58       0.2290
     18  O          0.8800   -7.5180   21.4830 O.2    58  TRP58      -0.2864
     19  CB        -0.7260   -8.0570   23.8930 C.3    58  TRP58       0.0576
     20  CG        -0.4360   -7.3960   25.2270 C.ar   58  TRP58       0.0006
     21  CD1       -0.9530   -7.7510   26.4450 C.ar   58  TRP58       0.0946
     22  CD2        0.3250   -6.2000   25.4500 C.ar   58  TRP58       0.0152
     23  NE1       -0.5700   -6.8450   27.4070 N.ar   58  TRP58      -0.2442
     24  CE2        0.2140   -5.8840   26.8260 C.ar   58  TRP58       0.0810
     25  CE3        1.0850   -5.3640   24.6210 C.ar   58  TRP58       0.0012
     26  CZ2        0.8380   -4.7640   27.3940 C.ar   58  TRP58       0.0191
     27  CZ3        1.7050   -4.2470   25.1850 C.ar   58  TRP58       0.0001
     28  CH2        1.5750   -3.9600   26.5630 C.ar   58  TRP58       0.0015
     29  N          1.1570   -8.6530   18.7010 N.3    61  TYR61      -0.1227
     30  CA         0.0810   -8.0950   17.8890 C.3    61  TYR61       0.1736
     31  C          0.4140   -6.6500   17.4890 C.2    61  TYR61       0.2595
     32  O         -0.4670   -5.8350   17.1740 O.2    61  TYR61      -0.2718
     33  CB        -1.2570   -8.2130   18.6360 C.3    61  TYR61       0.0548
     34  CG        -1.7010   -9.6630   18.7390 C.ar   61  TYR61      -0.0200
     35  CD1       -2.3250  -10.3020   17.6650 C.ar   61  TYR61      -0.0009
     36  CD2       -1.3900  -10.4290   19.8620 C.ar   61  TYR61      -0.0009
     37  CE1       -2.6200  -11.6670   17.7050 C.ar   61  TYR61       0.0417
     38  CE2       -1.6760  -11.7970   19.9130 C.ar   61  TYR61       0.0417
     39  CZ        -2.2890  -12.4100   18.8340 C.ar   61  TYR61       0.1957
     40  OH        -2.5500  -13.7670   18.8820 O.3    61  TYR61      -0.2866
     41  N          1.7110   -6.3510   17.4970 N.am   62  GLN62      -0.1979
     42  CA         2.2160   -5.0430   17.0950 C.3    62  GLN62       0.1601
     43  C          3.3430   -5.2920   16.0810 C.2    62  GLN62       0.2287
     44  O          4.5350   -5.2980   16.4180 O.2    62  GLN62      -0.2864
     45  CB         2.7160   -4.2520   18.3130 C.3    62  GLN62       0.0394
     46  CG         1.5830   -3.8250   19.2530 C.3    62  GLN62       0.0908
     47  CD         2.0210   -2.8370   20.3210 C.2    62  GLN62       0.2608
     48  OE1        2.7350   -1.8760   20.0360 O.2    62  GLN62      -0.2717
     49  NE2        1.5750   -3.0550   21.5580 N.am   62  GLN62      -0.0878
     50  N         -3.0080   -3.8000   11.1750 N.3   100  HIS100     -0.1241
     51  CA        -2.2030   -2.7000   11.6700 C.3   100  HIS100      0.1621
     52  C         -0.7300   -3.0100   11.8900 C.2   100  HIS100      0.2264
     53  O         -0.2580   -4.1230   11.6570 O.2   100  HIS100     -0.2867
     54  CB        -2.7960   -2.2540   13.0000 C.3   100  HIS100      0.0745
     55  CG        -3.0840   -3.3980   13.9200 C.ar  100  HIS100      0.0817
     56  ND1       -4.2920   -4.0640   13.9230 N.ar  100  HIS100     -0.2268
     57  CD2       -2.2870   -4.0590   14.7970 C.ar  100  HIS100      0.1154
     58  CE1       -4.2260   -5.0870   14.7600 C.ar  100  HIS100      0.1986
     59  NE2       -3.0200   -5.1060   15.3020 N.ar  100  HIS100     -0.2212
     60  N          1.8090    0.2140   18.0890 N.3   103  GLY103     -0.1225
     61  CA         1.1390    1.2810   18.8060 C.3   103  GLY103      0.1811
     62  C          1.7450    2.5850   18.3160 C.2   103  GLY103      0.2280
     63  O          2.9610    2.6830   18.1550 O.2   103  GLY103     -0.2866
     64  N          4.5950    3.9810   20.6170 N.3   106  VAL106     -0.1245
     65  CA         5.8020    3.2150   20.9120 C.3   106  VAL106      0.1561
     66  C          7.0150    4.0140   20.4320 C.2   106  VAL106      0.2260
     67  O          6.9480    4.6700   19.4000 O.2   106  VAL106     -0.2867
     68  CB         5.7810    1.8430   20.1940 C.3   106  VAL106      0.0252
     69  CG1        7.1480    1.1770   20.2950 C.3   106  VAL106      0.0019
     70  CG2        4.7030    0.9500   20.8040 C.3   106  VAL106      0.0019
     71  N         -7.4140    0.8250   16.5480 N.3   161  LEU161     -0.1231
     72  CA        -7.8530   -0.0850   17.6010 C.3   161  LEU161      0.1693
     73  C         -6.8150    0.1070   18.7130 C.2   161  LEU161      0.2593
     74  O         -5.6390   -0.2250   18.5400 O.2   161  LEU161     -0.2718
     75  CB        -7.8410   -1.5280   17.0800 C.3   161  LEU161      0.0284
     76  CG        -7.9750   -2.6890   18.0730 C.3   161  LEU161      0.0019
     77  CD1       -9.1510   -2.4510   19.0210 C.3   161  LEU161      0.0001
     78  CD2       -8.1500   -3.9910   17.2990 C.3   161  LEU161      0.0001
     79  N         -7.2670    0.6510   19.8400 N.am  162  THR162     -0.1939
     80  CA        -6.4190    0.9710   20.9820 C.3   162  THR162      0.2028
     81  C         -5.0730    1.5850   20.5790 C.2   162  THR162      0.2643
     82  O         -4.0210    1.2490   21.1250 O.2   162  THR162     -0.2714
     83  CB        -6.2080   -0.2410   21.9120 C.3   162  THR162      0.1808
     84  OG1       -5.6180   -1.3270   21.1910 O.3   162  THR162     -0.2208
     85  CG2       -7.5430   -0.6700   22.5070 C.3   162  THR162      0.0379
     86  N         -5.1330    2.4910   19.6060 N.am  163  GLY163     -0.1939
     87  CA        -3.9460    3.1930   19.1490 C.3   163  GLY163      0.2014
     88  C         -3.0420    2.5170   18.1400 C.2   163  GLY163      0.2638
     89  O         -2.0250    3.0960   17.7380 O.2   163  GLY163     -0.2714
     90  N         -3.3860    1.3020   17.7260 N.am  164  LEU164     -0.1977
     91  CA        -2.5580    0.5960   16.7560 C.3   164  LEU164      0.1596
     92  C         -2.6500    1.2850   15.3960 C.2   164  LEU164      0.2287
     93  O         -3.7460    1.4880   14.8630 O.2   164  LEU164     -0.2864
     94  CB        -3.0050   -0.8640   16.6480 C.3   164  LEU164      0.0297
     95  CG        -2.9040   -1.6720   17.9480 C.3   164  LEU164      0.0022
     96  CD1       -3.6930   -2.9670   17.8300 C.3   164  LEU164      0.0001
     97  CD2       -1.4410   -1.9550   18.2530 C.3   164  LEU164      0.0001
     98  N         -5.7710  -17.2440   10.4640 N.3   194  ARG194     -0.1245
     99  CA        -6.7260  -16.7060   11.4160 C.3   194  ARG194      0.1563
    100  C         -6.5490  -15.2270   11.0960 C.2   194  ARG194      0.2260
    101  O         -5.4510  -14.6970   11.2840 O.2   194  ARG194     -0.2867
    102  CB        -6.2950  -16.9270   12.8680 C.3   194  ARG194      0.0307
    103  CG        -7.1250  -16.0770   13.8260 C.3   194  ARG194      0.0489
    104  CD        -6.4960  -15.9230   15.1960 C.3   194  ARG194      0.2205
    105  NE        -7.3470  -15.1480   16.0990 N.pl3 194  ARG194     -0.0865
    106  CZ        -7.0990  -13.9040   16.5030 C.cat 194  ARG194      0.5346
    107  NH1       -6.0100  -13.2610   16.0870 N.pl3 194  ARG194      0.1354
    108  NH2       -7.9390  -13.3040   17.3410 N.pl3 194  ARG194      0.1354
    109  N         -6.6530  -11.8420   12.1640 N.3   196  ASP196     -0.1225
    110  CA        -6.7450  -11.0390   13.3730 C.3   196  ASP196      0.1805
    111  C         -7.4850   -9.7240   13.1250 C.2   196  ASP196      0.2597
    112  O         -7.3700   -9.1220   12.0510 O.2   196  ASP196     -0.2718
    113  CB        -5.3370  -10.7420   13.8990 C.3   196  ASP196      0.1424
    114  CG        -5.3470   -9.8280   15.1130 C.2   196  ASP196      0.3668
    115  OD1       -5.7880  -10.2840   16.1910 O.co2 196  ASP196     -0.2456
    116  OD2       -4.9190   -8.6540   14.9830 O.co2 196  ASP196     -0.2456
    117  N         -8.2490   -9.2940   14.1270 N.am  197  ALA197     -0.1979
    118  CA        -9.0110   -8.0470   14.0720 C.3   197  ALA197      0.1597
    119  C         -9.8080   -7.8200   12.7830 C.2   197  ALA197      0.2287
    120  O         -9.8990   -6.6910   12.2940 O.2   197  ALA197     -0.2864
    121  CB        -8.0710   -6.8620   14.3130 C.3   197  ALA197      0.0319
    122  N        -11.4650  -13.2320   12.8040 N.3   232  GLU232     -0.1245
    123  CA       -11.8340  -12.9510   14.1780 C.3   232  GLU232      0.1567
    124  C        -12.7570  -11.7410   14.2200 C.2   232  GLU232      0.2260
    125  O        -12.3330  -10.5990   14.0110 O.2   232  GLU232     -0.2867
    126  CB       -10.6190  -12.6670   15.0530 C.3   232  GLU232      0.0388
    127  CG       -11.0430  -12.3820   16.4900 C.3   232  GLU232      0.1160
    128  CD       -10.2920  -11.2310   17.1260 C.2   232  GLU232      0.3649
    129  OE1       -9.7280  -10.3920   16.3900 O.co2 232  GLU232     -0.2457
    130  OE2      -10.2800  -11.1620   18.3720 O.co2 232  GLU232     -0.2457
    131  N        -15.7300  -10.3970   16.8260 N.3   234  ILE234     -0.1245
    132  CA       -16.4510  -10.5730   18.0810 C.3   234  ILE234      0.1561
    133  C        -17.8310   -9.9460   17.9180 C.2   234  ILE234      0.2260
    134  O        -17.9770   -8.7240   17.9770 O.2   234  ILE234     -0.2867
    135  CB       -15.7150   -9.8900   19.2430 C.3   234  ILE234      0.0252
    136  CG1      -14.3200  -10.5000   19.4100 C.3   234  ILE234      0.0019
    137  CG2      -16.5080  -10.0540   20.5290 C.3   234  ILE234      0.0019
    138  CD1      -13.4760   -9.8020   20.4740 C.3   234  ILE234      0.0001
    139  N         -7.1550  -17.1360   23.3900 N.3   298  HIS298     -0.1226
    140  CA        -6.0810  -16.4670   24.1210 C.3   298  HIS298      0.1752
    141  C         -6.4720  -15.1440   24.7620 C.2   298  HIS298      0.2596
    142  O         -5.8870  -14.7500   25.7780 O.2   298  HIS298     -0.2718
    143  CB        -4.8480  -16.2660   23.2330 C.3   298  HIS298      0.0759
    144  CG        -5.0070  -15.1980   22.1990 C.ar  298  HIS298      0.0818
    145  ND1       -5.6530  -15.4110   21.0000 N.ar  298  HIS298     -0.2268
    146  CD2       -4.5750  -13.9160   22.1740 C.ar  298  HIS298      0.1154
    147  CE1       -5.6030  -14.3070   20.2750 C.ar  298  HIS298      0.1986
    148  NE2       -4.9540  -13.3850   20.9660 N.ar  298  HIS298     -0.2212
    149  N         -7.4590  -14.4630   24.1830 N.am  299  ASP299     -0.1974
    150  CA        -7.9020  -13.1870   24.7410 C.3   299  ASP299      0.1709
    151  C         -8.8020  -13.3290   25.9630 C.2   299  ASP299      0.2293
    152  O         -8.4600  -12.8750   27.0550 O.2   299  ASP299     -0.2864
    153  CB        -8.6720  -12.3580   23.7100 C.3   299  ASP299      0.1436
    154  CG        -7.7730  -11.5550   22.7940 C.2   299  ASP299      0.3671
    155  OD1       -6.6370  -11.1950   23.1830 O.co2 299  ASP299     -0.2456
    156  OD2       -8.2340  -11.2630   21.6750 O.co2 299  ASP299     -0.2456
    157  N         -9.1790  -10.4210   28.1920 N.3   304  HIS304     -0.1226
    158  CA        -9.0640   -9.5060   27.0620 C.3   304  HIS304      0.1752
    159  C        -10.1940   -9.7520   26.0630 C.2   304  HIS304      0.2596
    160  O        -10.8320  -10.8040   26.0850 O.2   304  HIS304     -0.2718
    161  CB        -7.7110   -9.6690   26.3700 C.3   304  HIS304      0.0759
    162  CG        -6.5970   -8.9240   27.0410 C.ar  304  HIS304      0.0818
    163  ND1       -5.8540   -7.9600   26.3940 N.ar  304  HIS304     -0.2268
    164  CD2       -6.1020   -8.9990   28.3000 C.ar  304  HIS304      0.1154
    165  CE1       -4.9490   -7.4740   27.2250 C.ar  304  HIS304      0.1986
    166  NE2       -5.0780   -8.0870   28.3870 N.ar  304  HIS304     -0.2212
    167  N        -10.4460   -8.7690   25.2060 N.am  305  GLY305     -0.1957
    168  CA       -11.4870   -8.8930   24.1990 C.3   305  GLY305      0.1869
    169  C        -12.8990   -8.8800   24.7350 C.2   305  GLY305      0.2309
    170  O        -13.3450   -7.8960   25.3130 O.2   305  GLY305     -0.2863
@<TRIPOS>BOND
     1    98    99    1
     2   100   101    2
     3   100    99    1
     4    50    51    1
     5    99   102    1
     6    53    52    2
     7    51    52    1
     8    51    54    1
     9   112   111    2
    10   109   110    1
    11   120   119    2
    12   119   118    1
    13   122   123    1
    14   102   103    1
    15    54    55    1
    16   111   110    1
    17   111   117   am
    18   110   113    1
    19   103   104    1
    20   113   114    1
    21    55    56   ar
    22    55    57   ar
    23    56    58   ar
    24   125   124    2
    25   118   117    1
    26   118   121    1
    27   123   124    1
    28   123   126    1
    29    58    59   ar
    30    57    59   ar
    31    93    92    2
    32   116   114   ar
    33   126   127    1
    34   114   115   ar
    35   104   105    1
    36    92    91    1
    37    43    44    2
    38    43    42    1
    39   107   106    1
    40   105   106    2
    41   129   128   ar
    42   127   128    1
    43   106   108    1
    44    71    72    1
    45    94    91    1
    46    94    95    1
    47    91    90    1
    48   131   132    1
    49    75    72    1
    50    75    76    1
    51    42    41    1
    52    42    45    1
    53   128   130   ar
    54    32    31    2
    55    78    76    1
    56    31    41   am
    57    31    30    1
    58    72    73    1
    59    35    37   ar
    60    35    34   ar
    61    37    39   ar
    62    90    88   am
    63    89    88    2
    64    96    95    1
    65    30    33    1
    66    30    29    1
    67   133   134    2
    68   133   132    1
    69    95    97    1
    70    76    77    1
    71   132   135    1
    72    60    61    1
    73    88    87    1
    74    63    62    2
    75    45    46    1
    76    62    61    1
    77    74    73    2
    78    33    34    1
    79    73    79   am
    80    34    36   ar
    81    39    40    1
    82    39    38   ar
    83    87    86    1
    84   135   136    1
    85   135   137    1
    86    46    47    1
    87    67    66    2
    88   136   138    1
    89    86    81   am
    90    79    80    1
    91    36    38   ar
    92    48    47    2
    93    68    69    1
    94    68    70    1
    95    68    65    1
    96   147   148   ar
    97   147   145   ar
    98    47    49   am
    99    66    65    1
   100    81    80    1
   101    81    82    2
   102    64    65    1
   103   148   146   ar
   104    80    83    1
   105   145   144   ar
   106    84    83    1
   107    18    17    2
   108   156   154   ar
   109    83    85    1
   110   146   144   ar
   111   144   143    1
   112    17    16    1
   113   154   155   ar
   114   154   153    1
   115     4     3    2
   116   143   140    1
   117    16    19    1
   118    16    15    1
   119   139   140    1
   120    13    11   ar
   121    13    14   ar
   122   153   150    1
   123    19    20    1
   124    11     8   ar
   125     3    15   am
   126     3     2    1
   127   140   141    1
   128   149   150    1
   129   149   141   am
   130   168   169    1
   131   168   167    1
   132    14    12   ar
   133    25    27   ar
   134    25    22   ar
   135   169   170    2
   136   150   151    1
   137   141   142    2
   138     2     5    1
   139     2     1    1
   140    27    28   ar
   141   167   159   am
   142    20    22   ar
   143    20    21   ar
   144     8     6   ar
   145     8    10   ar
   146    22    24   ar
   147     5     6    1
   148    12    10   ar
   149   151   152    2
   150   159   160    2
   151   159   158    1
   152     6     7   ar
   153    10     9   ar
   154   161   162    1
   155   161   158    1
   156   163   162   ar
   157   163   165   ar
   158    21    23   ar
   159    28    26   ar
   160    24    26   ar
   161    24    23   ar
   162   162   164   ar
   163   158   157    1
   164   165   166   ar
   165     7     9   ar
   166   164   166   ar
