@<TRIPOS>MOLECULE
tmp/3olgA02.pdb
 142 136 0 0 0
SMALL
GASTEIGER

@<TRIPOS>ATOM
      1  N          2.5020  -10.9670   26.2960 N.3    57  TRP57      -0.1241
      2  CA         2.1020  -11.7910   25.1670 C.3    57  TRP57       0.1605
      3  C          1.6220  -10.9050   24.0220 C.2    57  TRP57       0.2264
      4  O          1.9350  -11.1580   22.8610 O.2    57  TRP57      -0.2867
      5  CB         0.9870  -12.7690   25.5570 C.3    57  TRP57       0.0550
      6  CG        -0.2500  -12.0990   26.0800 C.ar   57  TRP57       0.0003
      7  CD1       -0.5180  -11.7740   27.3790 C.ar   57  TRP57       0.0946
      8  CD2       -1.3550  -11.6110   25.3070 C.ar   57  TRP57       0.0152
      9  NE1       -1.7160  -11.1130   27.4650 N.ar   57  TRP57      -0.2442
     10  CE2       -2.2540  -10.9970   26.2100 C.ar   57  TRP57       0.0810
     11  CE3       -1.6710  -11.6290   23.9400 C.ar   57  TRP57       0.0012
     12  CZ2       -3.4550  -10.4060   25.7920 C.ar   57  TRP57       0.0191
     13  CZ3       -2.8650  -11.0390   23.5190 C.ar   57  TRP57       0.0001
     14  CH2       -3.7430  -10.4350   24.4470 C.ar   57  TRP57       0.0015
     15  N        -18.1470    1.7030   19.1560 N.3   150  TYR150     -0.1241
     16  CA       -18.4040    0.5300   18.3190 C.3   150  TYR150      0.1605
     17  C        -19.7720    0.5460   17.6460 C.2   150  TYR150      0.2264
     18  O        -20.1130   -0.3760   16.9020 O.2   150  TYR150     -0.2867
     19  CB       -18.2360   -0.7540   19.1350 C.3   150  TYR150      0.0534
     20  CG       -16.7960   -1.1990   19.2370 C.ar  150  TYR150     -0.0201
     21  CD1      -16.2660   -2.1270   18.3380 C.ar  150  TYR150     -0.0009
     22  CD2      -15.9480   -0.6630   20.2070 C.ar  150  TYR150     -0.0009
     23  CE1      -14.9250   -2.5110   18.4050 C.ar  150  TYR150      0.0417
     24  CE2      -14.6060   -1.0350   20.2830 C.ar  150  TYR150      0.0417
     25  CZ       -14.1000   -1.9600   19.3790 C.ar  150  TYR150      0.1957
     26  OH       -12.7700   -2.3240   19.4450 O.3   150  TYR150     -0.2866
     27  N         -7.4140    0.8250   16.5480 N.3   161  LEU161     -0.1231
     28  CA        -7.8530   -0.0850   17.6010 C.3   161  LEU161      0.1693
     29  C         -6.8150    0.1070   18.7130 C.2   161  LEU161      0.2592
     30  O         -5.6390   -0.2250   18.5400 O.2   161  LEU161     -0.2718
     31  CB        -7.8410   -1.5280   17.0800 C.3   161  LEU161      0.0284
     32  CG        -7.9750   -2.6890   18.0730 C.3   161  LEU161      0.0019
     33  CD1       -9.1510   -2.4510   19.0210 C.3   161  LEU161      0.0001
     34  CD2       -8.1500   -3.9910   17.2990 C.3   161  LEU161      0.0001
     35  N         -7.2670    0.6510   19.8400 N.am  162  THR162     -0.1953
     36  CA        -6.4190    0.9710   20.9820 C.3   162  THR162      0.1897
     37  C         -5.0730    1.5850   20.5790 C.2   162  THR162      0.2313
     38  O         -4.0210    1.2490   21.1250 O.2   162  THR162     -0.2863
     39  CB        -6.2080   -0.2410   21.9120 C.3   162  THR162      0.1794
     40  OG1       -5.6180   -1.3270   21.1910 O.3   162  THR162     -0.2208
     41  CG2       -7.5430   -0.6700   22.5070 C.3   162  THR162      0.0378
     42  N         -6.6530  -11.8420   12.1640 N.3   196  ASP196     -0.1225
     43  CA        -6.7450  -11.0390   13.3730 C.3   196  ASP196      0.1805
     44  C         -7.4850   -9.7240   13.1250 C.2   196  ASP196      0.2597
     45  O         -7.3700   -9.1220   12.0510 O.2   196  ASP196     -0.2718
     46  CB        -5.3370  -10.7420   13.8990 C.3   196  ASP196      0.1424
     47  CG        -5.3470   -9.8280   15.1130 C.2   196  ASP196      0.3668
     48  OD1       -5.7880  -10.2840   16.1910 O.co2 196  ASP196     -0.2456
     49  OD2       -4.9190   -8.6540   14.9830 O.co2 196  ASP196     -0.2456
     50  N         -8.2490   -9.2940   14.1270 N.am  197  ALA197     -0.1979
     51  CA        -9.0110   -8.0470   14.0720 C.3   197  ALA197      0.1597
     52  C         -9.8080   -7.8200   12.7830 C.2   197  ALA197      0.2287
     53  O         -9.8990   -6.6910   12.2940 O.2   197  ALA197     -0.2864
     54  CB        -8.0710   -6.8620   14.3130 C.3   197  ALA197      0.0319
     55  N        -12.9150   -7.5630   12.3040 N.3   199  LYS199     -0.1231
     56  CA       -14.0090   -6.6070   12.4570 C.3   199  LYS199      0.1693
     57  C        -13.5290   -5.2000   12.1140 C.2   199  LYS199      0.2592
     58  O        -14.3100   -4.3370   11.7060 O.2   199  LYS199     -0.2718
     59  CB       -14.5510   -6.6050   13.8930 C.3   199  LYS199      0.0285
     60  CG       -15.6350   -5.5400   14.1160 C.3   199  LYS199      0.0035
     61  CD       -15.9780   -5.3230   15.5900 C.3   199  LYS199      0.0206
     62  CE       -16.8230   -6.4530   16.1530 C.3   199  LYS199      0.1093
     63  NZ       -17.2240   -6.1720   17.5640 N.3   199  LYS199     -0.1314
     64  N        -12.2310   -4.9740   12.2750 N.am  200  HIS200     -0.1976
     65  CA       -11.6790   -3.6630   11.9990 C.3   200  HIS200      0.1656
     66  C        -11.2850   -3.4450   10.5470 C.2   200  HIS200      0.2291
     67  O        -10.7560   -2.4100   10.2060 O.2   200  HIS200     -0.2864
     68  CB       -10.5090   -3.4160   12.9480 C.3   200  HIS200      0.0771
     69  CG       -10.9110   -3.4850   14.3880 C.ar  200  HIS200      0.0820
     70  ND1      -11.6330   -2.4840   15.0010 N.ar  200  HIS200     -0.2267
     71  CD2      -10.8300   -4.4940   15.2870 C.ar  200  HIS200      0.1154
     72  CE1      -11.9870   -2.8760   16.2120 C.ar  200  HIS200      0.1986
     73  NE2      -11.5130   -4.0920   16.4110 N.ar  200  HIS200     -0.2212
     74  N        -11.4650  -13.2320   12.8040 N.3   232  GLU232     -0.1245
     75  CA       -11.8340  -12.9510   14.1780 C.3   232  GLU232      0.1567
     76  C        -12.7570  -11.7410   14.2200 C.2   232  GLU232      0.2260
     77  O        -12.3330  -10.5990   14.0110 O.2   232  GLU232     -0.2867
     78  CB       -10.6190  -12.6670   15.0530 C.3   232  GLU232      0.0388
     79  CG       -11.0430  -12.3820   16.4900 C.3   232  GLU232      0.1160
     80  CD       -10.2920  -11.2310   17.1260 C.2   232  GLU232      0.3649
     81  OE1       -9.7280  -10.3920   16.3900 O.co2 232  GLU232     -0.2457
     82  OE2      -10.2800  -11.1620   18.3720 O.co2 232  GLU232     -0.2457
     83  N        -15.7300  -10.3970   16.8260 N.3   234  ILE234     -0.1245
     84  CA       -16.4510  -10.5730   18.0810 C.3   234  ILE234      0.1561
     85  C        -17.8310   -9.9460   17.9180 C.2   234  ILE234      0.2260
     86  O        -17.9770   -8.7240   17.9770 O.2   234  ILE234     -0.2867
     87  CB       -15.7150   -9.8900   19.2430 C.3   234  ILE234      0.0252
     88  CG1      -14.3200  -10.5000   19.4100 C.3   234  ILE234      0.0019
     89  CG2      -16.5080  -10.0540   20.5290 C.3   234  ILE234      0.0019
     90  CD1      -13.4760   -9.8020   20.4740 C.3   234  ILE234      0.0001
     91  N        -21.4980  -10.3550   19.5240 N.3   236  LEU236     -0.1231
     92  CA       -22.4280  -10.9020   20.4970 C.3   236  LEU236      0.1693
     93  C        -23.7940  -10.2290   20.3690 C.2   236  LEU236      0.2592
     94  O        -24.6600  -10.3800   21.2290 O.2   236  LEU236     -0.2718
     95  CB       -21.8400  -10.7010   21.8960 C.3   236  LEU236      0.0284
     96  CG       -20.4600  -11.3670   21.9930 C.3   236  LEU236      0.0019
     97  CD1      -19.6400  -10.7470   23.0990 C.3   236  LEU236      0.0001
     98  CD2      -20.6320  -12.8610   22.2140 C.3   236  LEU236      0.0001
     99  N        -23.9830   -9.5150   19.2600 N.am  237  GLY237     -0.1957
    100  CA       -25.2240   -8.7980   19.0300 C.3   237  GLY237      0.1869
    101  C        -25.0610   -7.4120   19.6290 C.2   237  GLY237      0.2309
    102  O        -24.1090   -7.1680   20.3660 O.2   237  GLY237     -0.2863
    103  N        -24.3040   -4.6160   18.0750 N.3   239  GLU239     -0.1245
    104  CA       -23.4860   -3.7170   17.2750 C.3   239  GLU239      0.1567
    105  C        -23.8890   -3.7430   15.8010 C.2   239  GLU239      0.2260
    106  O        -24.5200   -4.6930   15.3360 O.2   239  GLU239     -0.2867
    107  CB       -22.0070   -4.0840   17.4210 C.3   239  GLU239      0.0388
    108  CG       -21.3570   -3.5820   18.7050 C.3   239  GLU239      0.1160
    109  CD       -19.9190   -4.0610   18.8650 C.2   239  GLU239      0.3649
    110  OE1      -19.2290   -4.2340   17.8350 O.co2 239  GLU239     -0.2457
    111  OE2      -19.4740   -4.2520   20.0190 O.co2 239  GLU239     -0.2457
    112  N         -7.4590  -14.4630   24.1830 N.3   299  ASP299     -0.1239
    113  CA        -7.9020  -13.1870   24.7410 C.3   299  ASP299      0.1674
    114  C         -8.8020  -13.3290   25.9630 C.2   299  ASP299      0.2266
    115  O         -8.4600  -12.8750   27.0550 O.2   299  ASP299     -0.2867
    116  CB        -8.6720  -12.3580   23.7100 C.3   299  ASP299      0.1410
    117  CG        -7.7730  -11.5550   22.7940 C.2   299  ASP299      0.3668
    118  OD1       -6.6370  -11.1950   23.1830 O.co2 299  ASP299     -0.2456
    119  OD2       -8.2340  -11.2630   21.6750 O.co2 299  ASP299     -0.2456
    120  N         -9.1790  -10.4210   28.1920 N.3   304  HIS304     -0.1226
    121  CA        -9.0640   -9.5060   27.0620 C.3   304  HIS304      0.1752
    122  C        -10.1940   -9.7520   26.0630 C.2   304  HIS304      0.2597
    123  O        -10.8320  -10.8040   26.0850 O.2   304  HIS304     -0.2718
    124  CB        -7.7110   -9.6690   26.3700 C.3   304  HIS304      0.0759
    125  CG        -6.5970   -8.9240   27.0410 C.ar  304  HIS304      0.0818
    126  ND1       -5.8540   -7.9600   26.3940 N.ar  304  HIS304     -0.2268
    127  CD2       -6.1020   -8.9990   28.3000 C.ar  304  HIS304      0.1154
    128  CE1       -4.9490   -7.4740   27.2250 C.ar  304  HIS304      0.1986
    129  NE2       -5.0780   -8.0870   28.3870 N.ar  304  HIS304     -0.2212
    130  N        -10.4460   -8.7690   25.2060 N.am  305  GLY305     -0.1942
    131  CA       -11.4870   -8.8930   24.1990 C.3   305  GLY305      0.2014
    132  C        -12.8990   -8.8800   24.7350 C.2   305  GLY305      0.2639
    133  O        -13.3450   -7.8960   25.3130 O.2   305  GLY305     -0.2714
    134  N        -13.6070   -9.9820   24.5110 N.am  306  ALA306     -0.1963
    135  CA       -14.9770  -10.1490   24.9650 C.3   306  ALA306      0.1728
    136  C        -15.1130  -11.5850   25.4540 C.2   306  ALA306      0.2616
    137  O        -15.1210  -12.5480   24.6680 O.2   306  ALA306     -0.2715
    138  CB       -15.9470   -9.8940   23.8290 C.3   306  ALA306      0.0334
    139  N        -15.1790  -11.7250   26.7680 N.am  307  GLY307     -0.1955
    140  CA       -15.3280  -13.0360   27.3480 C.3   307  GLY307      0.1869
    141  C        -16.3710  -12.8970   28.4240 C.2   307  GLY307      0.2309
    142  O        -17.4640  -13.4650   28.3410 O.2   307  GLY307     -0.2863
@<TRIPOS>BOND
     1    67    66    2
     2    66    65    1
     3    58    57    2
     4    65    64    1
     5    65    68    1
     6    45    44    2
     7    57    64   am
     8    57    56    1
     9    42    43    1
    10    53    52    2
    11    55    56    1
    12    56    59    1
    13    52    51    1
    14    74    75    1
    15    68    69    1
    16    44    43    1
    17    44    50   am
    18    43    46    1
    19    59    60    1
    20    46    47    1
    21    77    76    2
    22    51    50    1
    23    51    54    1
    24    60    61    1
    25    75    76    1
    26    75    78    1
    27    69    70   ar
    28    69    71   ar
    29    49    47   ar
    30    70    72   ar
    31    78    79    1
    32    47    48   ar
    33    71    73   ar
    34   106   105    2
    35    61    62    1
    36   105   104    1
    37    62    63    1
    38    72    73   ar
    39    81    80   ar
    40    79    80    1
    41    27    28    1
    42    83    84    1
    43    18    17    2
    44    31    28    1
    45    31    32    1
    46    80    82   ar
    47   104   107    1
    48   104   103    1
    49    34    32    1
    50   107   108    1
    51    28    29    1
    52    17    16    1
    53   110   109   ar
    54    85    86    2
    55    85    84    1
    56    32    33    1
    57    84    87    1
    58    16    19    1
    59    16    15    1
    60    21    23   ar
    61    21    20   ar
    62    23    25   ar
    63    30    29    2
    64   108   109    1
    65    29    35   am
    66   109   111   ar
    67   100    99    1
    68   100   101    1
    69    19    20    1
    70    20    22   ar
    71    87    88    1
    72    87    89    1
    73    99    93   am
    74    25    26    1
    75    25    24   ar
    76    88    90    1
    77    91    92    1
    78   101   102    2
    79    35    36    1
    80    22    24   ar
    81    93    92    1
    82    93    94    2
    83    92    95    1
    84    37    36    1
    85    37    38    2
    86    36    39    1
    87    40    39    1
    88   119   117   ar
    89    95    96    1
    90    39    41    1
    91    96    98    1
    92    96    97    1
    93   117   118   ar
    94   117   116    1
    95     4     3    2
    96    13    11   ar
    97    13    14   ar
    98   116   113    1
    99   138   135    1
   100    11     8   ar
   101     3     2    1
   102   112   113    1
   103   131   132    1
   104   131   130    1
   105    14    12   ar
   106   134   132   am
   107   134   135    1
   108   137   136    2
   109   132   133    2
   110   113   114    1
   111   135   136    1
   112     2     5    1
   113     2     1    1
   114   130   122   am
   115     8     6   ar
   116     8    10   ar
   117   136   139   am
   118     5     6    1
   119    12    10   ar
   120   114   115    2
   121   122   123    2
   122   122   121    1
   123     6     7   ar
   124    10     9   ar
   125   124   125    1
   126   124   121    1
   127   126   125   ar
   128   126   128   ar
   129   139   140    1
   130   125   127   ar
   131   121   120    1
   132   128   129   ar
   133   140   141    1
   134     7     9   ar
   135   127   129   ar
   136   142   141    2
