@<TRIPOS>MOLECULE
tmp/3olgA04.pdb
 77 76 0 0 0
SMALL
GASTEIGER

@<TRIPOS>ATOM
      1  N        -13.4210  -22.0570    2.9500 N.3     1  TYR1       -0.1227
      2  CA       -14.2670  -22.4640    4.1120 C.3     1  TYR1        0.1736
      3  C        -13.7920  -23.8150    4.6100 C.2     1  TYR1        0.2596
      4  O        -14.1550  -24.2530    5.7040 O.2     1  TYR1       -0.2718
      5  CB       -15.7330  -22.5700    3.6890 C.3     1  TYR1        0.0548
      6  CG       -16.2600  -21.3130    3.0440 C.ar    1  TYR1       -0.0200
      7  CD1      -16.5160  -20.1720    3.8030 C.ar    1  TYR1       -0.0009
      8  CD2      -16.4470  -21.2450    1.6630 C.ar    1  TYR1       -0.0009
      9  CE1      -16.9380  -18.9910    3.1980 C.ar    1  TYR1        0.0417
     10  CE2      -16.8650  -20.0780    1.0510 C.ar    1  TYR1        0.0417
     11  CZ       -17.1060  -18.9540    1.8190 C.ar    1  TYR1        0.1957
     12  OH       -17.4950  -17.7920    1.1980 O.3     1  TYR1       -0.2866
     13  N        -12.9800  -24.4680    3.7850 N.am    2  SER2       -0.1952
     14  CA       -12.4230  -25.7790    4.0950 C.3     2  SER2        0.1924
     15  C        -11.1280  -25.6930    4.8680 C.2     2  SER2        0.2314
     16  O        -10.2290  -24.9480    4.5020 O.2     2  SER2       -0.2863
     17  CB       -12.1540  -26.5620    2.8150 C.3     2  SER2        0.2116
     18  OG       -13.3010  -27.2850    2.4220 O.3     2  SER2       -0.2180
     19  N         -7.3920  -11.3190   -0.3100 N.3   210  LEU210     -0.1245
     20  CA        -7.4710  -12.7390   -0.5990 C.3   210  LEU210      0.1561
     21  C         -7.4270  -13.0000   -2.1110 C.2   210  LEU210      0.2260
     22  O         -6.9710  -14.0530   -2.5470 O.2   210  LEU210     -0.2867
     23  CB        -8.7410  -13.3240    0.0390 C.3   210  LEU210      0.0270
     24  CG        -8.8160  -13.1290    1.5640 C.3   210  LEU210      0.0019
     25  CD1      -10.0880  -13.7690    2.1140 C.3   210  LEU210      0.0001
     26  CD2       -7.5800  -13.7320    2.2320 C.3   210  LEU210      0.0001
     27  N         -7.8060  -23.7960   -1.8650 N.3   226  LYS226     -0.1231
     28  CA        -7.8840  -22.4220   -1.3860 C.3   226  LYS226      0.1678
     29  C         -7.5320  -22.4740    0.1010 C.2   226  LYS226      0.2434
     30  O         -7.9280  -23.4030    0.8100 O.2   226  LYS226     -0.2733
     31  CB        -9.3110  -21.8680   -1.5540 C.3   226  LYS226      0.0284
     32  CG        -9.6140  -21.2250   -2.9100 C.3   226  LYS226      0.0035
     33  CD        -9.7370  -19.6960   -2.7880 C.3   226  LYS226      0.0206
     34  CE       -11.1820  -19.2040   -2.9550 C.3   226  LYS226      0.1093
     35  NZ       -11.3450  -17.7640   -2.5590 N.3   226  LYS226     -0.1314
     36  N         -6.7650  -21.4940    0.5920 N.am  227  PRO227     -0.2718
     37  CA        -6.4150  -21.5150    2.0120 C.3   227  PRO227      0.1535
     38  C         -7.6200  -21.3160    2.9250 C.2   227  PRO227      0.2599
     39  O         -8.5440  -20.5710    2.6040 O.2   227  PRO227     -0.2715
     40  CB        -5.3910  -20.3860    2.1360 C.3   227  PRO227      0.0310
     41  CG        -5.7170  -19.4820    0.9870 C.3   227  PRO227      0.0237
     42  CD        -6.0090  -20.4500   -0.1190 C.3   227  PRO227      0.0939
     43  N         -7.6020  -22.0030    4.0620 N.am  228  PHE228     -0.1960
     44  CA        -8.6730  -21.9080    5.0390 C.3   228  PHE228      0.1771
     45  C         -8.6240  -20.5120    5.6450 C.2   228  PHE228      0.2619
     46  O         -7.5550  -20.0160    6.0070 O.2   228  PHE228     -0.2715
     47  CB        -8.4790  -22.9770    6.1240 C.3   228  PHE228      0.0574
     48  CG        -9.5460  -22.9770    7.1840 C.ar  228  PHE228     -0.0200
     49  CD1      -10.8930  -22.8830    6.8410 C.ar  228  PHE228     -0.0042
     50  CD2       -9.2010  -23.1090    8.5310 C.ar  228  PHE228     -0.0042
     51  CE1      -11.8830  -22.9220    7.8250 C.ar  228  PHE228     -0.0003
     52  CE2      -10.1810  -23.1490    9.5240 C.ar  228  PHE228     -0.0003
     53  CZ       -11.5240  -23.0560    9.1730 C.ar  228  PHE228     -0.0000
     54  N         -9.7810  -19.8700    5.7370 N.am  229  ILE229     -0.1977
     55  CA        -9.8460  -18.5280    6.2930 C.3   229  ILE229      0.1596
     56  C        -10.8680  -18.4130    7.4180 C.2   229  ILE229      0.2287
     57  O        -12.0550  -18.6810    7.2130 O.2   229  ILE229     -0.2864
     58  CB       -10.2420  -17.4750    5.2080 C.3   229  ILE229      0.0276
     59  CG1       -9.2160  -17.4470    4.0630 C.3   229  ILE229      0.0022
     60  CG2      -10.3910  -16.0950    5.8570 C.3   229  ILE229      0.0022
     61  CD1       -7.8710  -16.8360    4.4300 C.3   229  ILE229      0.0001
     62  N        -18.4380  -13.9640    2.9810 N.3   248  GLY248     -0.1210
     63  CA       -17.9130  -14.0170    1.6360 C.3   248  GLY248      0.1956
     64  C        -16.4340  -14.3430    1.6080 C.2   248  GLY248      0.2612
     65  O        -15.9370  -14.8830    0.6240 O.2   248  GLY248     -0.2717
     66  N        -15.7310  -14.0350    2.6940 N.am  249  ASN249     -0.1960
     67  CA       -14.2890  -14.2680    2.7550 C.3   249  ASN249      0.1819
     68  C        -13.8690  -15.5910    3.3740 C.2   249  ASN249      0.2621
     69  O        -12.7440  -16.0380    3.1810 O.2   249  ASN249     -0.2715
     70  CB       -13.6050  -13.1290    3.5130 C.3   249  ASN249      0.1195
     71  CG       -13.8360  -11.7840    2.8680 C.2   249  ASN249      0.2630
     72  OD1      -13.7150  -11.6370    1.6530 O.2   249  ASN249     -0.2716
     73  ND2      -14.1580  -10.7880    3.6780 N.am  249  ASN249     -0.0877
     74  N        -14.7730  -16.2070    4.1220 N.am  250  GLY250     -0.1954
     75  CA       -14.4580  -17.4690    4.7620 C.3   250  GLY250      0.1869
     76  C        -15.2410  -17.6170    6.0500 C.2   250  GLY250      0.2309
     77  O        -16.2590  -16.9510    6.2390 O.2   250  GLY250     -0.2863
@<TRIPOS>BOND
     1    34    33    1
     2    34    35    1
     3    32    33    1
     4    32    31    1
     5    22    21    2
     6    21    20    1
     7    27    28    1
     8    31    28    1
     9    28    29    1
    10    20    19    1
    11    20    23    1
    12    42    36    1
    13    42    41    1
    14    23    24    1
    15    29    36   am
    16    29    30    2
    17    36    37    1
    18    65    64    2
    19    41    40    1
    20    10     8   ar
    21    10    11   ar
    22    12    11    1
    23    24    25    1
    24    24    26    1
    25    64    63    1
    26    64    66   am
    27    63    62    1
    28    72    71    2
    29     8     6   ar
    30    11     9   ar
    31    37    40    1
    32    37    38    1
    33    18    17    1
    34    39    38    2
    35    66    67    1
    36    67    68    1
    37    67    70    1
    38    17    14    1
    39    71    70    1
    40    71    73   am
    41    38    43   am
    42     1     2    1
    43     6     5    1
    44     6     7   ar
    45    69    68    2
    46     9     7   ar
    47    68    74   am
    48     5     2    1
    49    13    14    1
    50    13     3   am
    51    43    44    1
    52    59    61    1
    53    59    58    1
    54    14    15    1
    55     2     3    1
    56    74    75    1
    57    16    15    2
    58     3     4    2
    59    75    76    1
    60    44    45    1
    61    44    47    1
    62    58    60    1
    63    58    55    1
    64    45    54   am
    65    45    46    2
    66    54    55    1
    67    76    77    2
    68    47    48    1
    69    55    56    1
    70    49    48   ar
    71    49    51   ar
    72    48    50   ar
    73    57    56    2
    74    51    53   ar
    75    50    52   ar
    76    53    52   ar
