@<TRIPOS>MOLECULE
tmp/3ollA00.pdb
 156 145 0 0 0
SMALL
GASTEIGER

@<TRIPOS>ATOM
      1  N        -15.1750   43.6510   17.0910 N.3    34  MET34      -0.1245
      2  CA       -14.6720   43.7100   15.6750 C.3    34  MET34       0.1570
      3  C        -13.2850   44.4640   15.6010 C.2    34  MET34       0.2261
      4  O        -12.4030   44.0370   14.8120 O.2    34  MET34      -0.2867
      5  CB       -15.7390   44.3190   14.7620 C.3    34  MET34       0.0387
      6  CG       -16.9370   43.3790   14.3570 C.3    34  MET34       0.0595
      7  SD       -16.4450   41.7580   13.6890 S.3    34  MET34      -0.1393
      8  CE       -15.4510   42.2870   12.2440 C.3    34  MET34       0.0692
      9  N        -10.5050   41.8900   16.8030 N.3    37  LEU37      -0.1231
     10  CA       -10.2650   40.7900   15.8490 C.3    37  LEU37       0.1693
     11  C         -9.5840   41.2840   14.5450 C.2    37  LEU37       0.2592
     12  O         -8.6530   40.5700   13.9890 O.2    37  LEU37      -0.2718
     13  CB       -11.5720   40.0040   15.5040 C.3    37  LEU37       0.0284
     14  CG       -12.2330   39.2950   16.7410 C.3    37  LEU37       0.0019
     15  CD1      -13.6230   38.6670   16.2650 C.3    37  LEU37       0.0001
     16  CD2      -11.3090   38.1670   17.3420 C.3    37  LEU37       0.0001
     17  N         -9.9900   42.4690   14.0590 N.am   38  THR38      -0.1953
     18  CA        -9.3410   42.9790   12.8080 C.3    38  THR38       0.1897
     19  C         -7.8850   43.5390   13.0280 C.2    38  THR38       0.2313
     20  O         -7.0260   43.3490   12.1180 O.2    38  THR38      -0.2863
     21  CB       -10.2320   44.0840   12.0770 C.3    38  THR38       0.1794
     22  OG1      -10.4930   45.1900   12.9700 O.3    38  THR38      -0.2208
     23  CG2      -11.5390   43.4180   11.5480 C.3    38  THR38       0.0378
     24  N         -5.7570   42.2450   15.1550 N.3    40  LEU40      -0.1231
     25  CA        -4.9630   40.9730   15.1770 C.3    40  LEU40       0.1693
     26  C         -4.7500   40.4120   13.7450 C.2    40  LEU40       0.2591
     27  O         -3.6090   40.0780   13.3560 O.2    40  LEU40      -0.2718
     28  CB        -5.6900   39.9330   16.0840 C.3    40  LEU40       0.0284
     29  CG        -5.0600   38.4910   16.1310 C.3    40  LEU40       0.0019
     30  CD1       -3.6020   38.5130   16.6480 C.3    40  LEU40       0.0001
     31  CD2       -5.9810   37.4610   16.9420 C.3    40  LEU40       0.0001
     32  N         -5.8370   40.3330   12.9450 N.am   41  ALA41      -0.1980
     33  CA        -5.7260   39.8200   11.5410 C.3    41  ALA41       0.1597
     34  C         -4.7380   40.6200   10.6790 C.2    41  ALA41       0.2287
     35  O         -3.9570   40.0090    9.9190 O.2    41  ALA41      -0.2864
     36  CB        -7.1200   39.7550   10.8750 C.3    41  ALA41       0.0319
     37  N         -1.1710   39.6640   11.7340 N.3    44  GLU44      -0.1245
     38  CA        -0.8880   38.2890   11.2350 C.3    44  GLU44       0.1567
     39  C         -0.6660   38.2320    9.6810 C.2    44  GLU44       0.2260
     40  O          0.1910   37.4000    9.2080 O.2    44  GLU44      -0.2867
     41  CB        -2.0240   37.3410   11.6540 C.3    44  GLU44       0.0388
     42  CG        -2.0520   37.0040   13.1700 C.3    44  GLU44       0.1160
     43  CD        -3.0610   35.9200   13.4740 C.2    44  GLU44       0.3649
     44  OE1       -4.2930   36.2370   13.4400 O.co2  44  GLU44      -0.2457
     45  OE2       -2.6730   34.7320   13.6340 O.co2  44  GLU44      -0.2457
     46  N         -7.6020   34.2300    4.1120 N.3    75  MET75      -0.1301
     47  CA        -8.5620   33.9850    5.1860 C.3    75  MET75       0.1256
     48  C         -8.5450   32.4850    5.6360 C.3    75  MET75       0.2010
     49  O         -8.6540   32.1600    6.8760 O.3    75  MET75      -0.2188
     50  CB       -10.0270   34.4750    4.7820 C.3    75  MET75       0.0333
     51  CG       -11.0230   34.2510    5.9290 C.3    75  MET75       0.0592
     52  SD       -10.9590   35.4970    7.2180 S.3    75  MET75      -0.1393
     53  CE       -11.6390   36.9880    6.3580 C.3    75  MET75       0.0692
     54  N         -5.4300   32.0900    7.9150 N.3    78  LEU78      -0.1231
     55  CA        -5.6930   32.6600    9.3110 C.3    78  LEU78       0.1693
     56  C         -6.5550   31.6400   10.1110 C.2    78  LEU78       0.2591
     57  O         -6.2850   31.2990   11.2830 O.2    78  LEU78      -0.2718
     58  CB        -6.4490   34.0140    9.2610 C.3    78  LEU78       0.0284
     59  CG        -5.6620   35.2080    8.7120 C.3    78  LEU78       0.0019
     60  CD1       -6.6040   36.4420    8.8070 C.3    78  LEU78       0.0001
     61  CD2       -4.4600   35.4820    9.6200 C.3    78  LEU78       0.0001
     62  N         -7.6070   31.0780    9.4660 N.am   79  MET79      -0.1979
     63  CA        -8.5310   30.0820   10.1690 C.3    79  MET79       0.1605
     64  C         -7.8160   28.7540   10.4790 C.2    79  MET79       0.2287
     65  O         -8.0600   28.2090   11.6010 O.2    79  MET79      -0.2864
     66  CB        -9.7980   29.8310    9.2730 C.3    79  MET79       0.0413
     67  CG       -10.7350   31.0890    9.2950 C.3    79  MET79       0.0598
     68  SD       -12.1790   30.8840    8.1830 S.3    79  MET79      -0.1393
     69  CE       -13.2290   32.3170    8.7180 C.3    79  MET79       0.0692
     70  N         -5.7450   29.3680   13.6250 N.3    82  LEU82      -0.1245
     71  CA        -6.6340   29.4570   14.8160 C.3    82  LEU82       0.1561
     72  C         -7.0960   28.0570   15.3020 C.2    82  LEU82       0.2260
     73  O         -7.1280   27.7410   16.5160 O.2    82  LEU82      -0.2867
     74  CB        -7.8730   30.3700   14.4790 C.3    82  LEU82       0.0270
     75  CG        -8.9620   30.4200   15.5610 C.3    82  LEU82       0.0019
     76  CD1       -8.4240   31.1350   16.8590 C.3    82  LEU82       0.0001
     77  CD2      -10.1910   31.1770   14.8520 C.3    82  LEU82       0.0001
     78  N         -4.2620   26.2340   17.1430 N.3    85  ARG85      -0.1245
     79  CA        -4.0540   26.8020   18.5100 C.3    85  ARG85       0.1563
     80  C         -5.1840   26.3310   19.4570 C.2    85  ARG85       0.2260
     81  O         -4.9450   26.2300   20.6640 O.2    85  ARG85      -0.2867
     82  CB        -4.0630   28.3650   18.4750 C.3    85  ARG85       0.0307
     83  CG        -2.8400   28.9300   17.7810 C.3    85  ARG85       0.0489
     84  CD        -2.6990   30.4870   17.9950 C.3    85  ARG85       0.2205
     85  NE        -3.7760   31.3540   17.5090 N.pl3  85  ARG85      -0.0865
     86  CZ        -3.8860   31.8350   16.2490 C.cat  85  ARG85       0.5346
     87  NH1       -3.0880   31.4130   15.2200 N.pl3  85  ARG85       0.1354
     88  NH2       -4.8790   32.7090   15.9870 N.pl3  85  ARG85       0.1354
     89  N         -7.5970   32.8910   20.1240 N.3    95  PHE95      -0.1241
     90  CA        -7.0930   33.9170   19.1420 C.3    95  PHE95       0.1605
     91  C         -5.6290   34.3420   19.4860 C.2    95  PHE95       0.2264
     92  O         -4.8300   34.4930   18.5450 O.2    95  PHE95      -0.2867
     93  CB        -8.0420   35.1440   19.1060 C.3    95  PHE95       0.0534
     94  CG        -9.3180   34.8550   18.2870 C.ar   95  PHE95      -0.0203
     95  CD1      -10.4660   34.4550   18.9790 C.ar   95  PHE95      -0.0042
     96  CD2       -9.3600   35.0060   16.8970 C.ar   95  PHE95      -0.0042
     97  CE1      -11.6740   34.1460   18.2600 C.ar   95  PHE95      -0.0003
     98  CE2      -10.5410   34.7380   16.1520 C.ar   95  PHE95      -0.0003
     99  CZ       -11.7300   34.3050   16.8330 C.ar   95  PHE95      -0.0000
    100  N        -21.7800   36.5780   13.6450 N.3   112  ILE112     -0.1245
    101  CA       -20.5000   35.8450   13.8670 C.3   112  ILE112      0.1561
    102  C        -20.6890   34.4620   14.5760 C.2   112  ILE112      0.2260
    103  O        -19.8220   33.5510   14.4110 O.2   112  ILE112     -0.2867
    104  CB       -19.4000   36.7290   14.5830 C.3   112  ILE112      0.0252
    105  CG1      -18.0190   36.4710   13.9360 C.3   112  ILE112      0.0019
    106  CG2      -19.3710   36.4610   16.1240 C.3   112  ILE112      0.0019
    107  CD1      -16.9220   37.4510   14.4430 C.3   112  ILE112      0.0001
    108  N        -20.3390   31.4800   12.2930 N.3   115  ILE115     -0.1231
    109  CA       -18.9430   31.2560   11.8390 C.3   115  ILE115      0.1692
    110  C        -18.1120   30.5860   12.9850 C.2   115  ILE115      0.2592
    111  O        -17.3000   29.6510   12.7430 O.2   115  ILE115     -0.2718
    112  CB       -18.2880   32.6060   11.3760 C.3   115  ILE115      0.0266
    113  CG1      -19.0960   33.1120   10.1650 C.3   115  ILE115      0.0019
    114  CG2      -16.7960   32.3290   11.0090 C.3   115  ILE115      0.0020
    115  CD1      -18.8270   34.5400    9.7120 C.3   115  ILE115      0.0001
    116  N        -18.2670   31.0480   14.2550 N.am  116  PHE116     -0.1976
    117  CA       -17.5910   30.4260   15.3890 C.3   116  PHE116      0.1639
    118  C        -18.0210   28.9400   15.4680 C.2   116  PHE116      0.2290
    119  O        -17.1460   28.0840   15.7370 O.2   116  PHE116     -0.2864
    120  CB       -17.9430   31.0810   16.7750 C.3   116  PHE116      0.0560
    121  CG       -17.2300   32.4360   17.0630 C.ar  116  PHE116     -0.0200
    122  CD1      -16.4850   33.1310   16.0850 C.ar  116  PHE116     -0.0042
    123  CD2      -17.2870   32.9760   18.4050 C.ar  116  PHE116     -0.0042
    124  CE1      -15.7990   34.3320   16.3640 C.ar  116  PHE116     -0.0003
    125  CE2      -16.5850   34.1920   18.7250 C.ar  116  PHE116     -0.0003
    126  CZ       -15.9000   34.8820   17.6980 C.ar  116  PHE116     -0.0000
    127  N        -16.1260   26.9320   12.8310 N.3   119  LEU119     -0.1245
    128  CA       -14.6850   26.7990   13.1930 C.3   119  LEU119      0.1561
    129  C        -14.5210   25.7610   14.3260 C.2   119  LEU119      0.2260
    130  O        -13.5670   24.9270   14.3170 O.2   119  LEU119     -0.2867
    131  CB       -14.0910   28.1740   13.6010 C.3   119  LEU119      0.0270
    132  CG       -13.9510   29.2150   12.4730 C.3   119  LEU119      0.0019
    133  CD1      -13.7460   30.7240   13.0990 C.3   119  LEU119      0.0001
    134  CD2      -12.8200   28.8370   11.4840 C.3   119  LEU119      0.0001
    135  N        -16.7490   33.9340    6.3430 N.3   209  GLY209     -0.1225
    136  CA       -16.0260   35.0460    7.0360 C.3   209  GLY209      0.1811
    137  C        -15.7330   36.2800    6.1530 C.2   209  GLY209      0.2280
    138  O        -15.8450   37.4060    6.6640 O.2   209  GLY209     -0.2866
    139  N        -18.8810   38.3060    5.8000 N.3   212  HIS212     -0.1226
    140  CA       -19.1960   38.9850    7.0860 C.3   212  HIS212      0.1752
    141  C        -18.3330   40.2470    7.2620 C.2   212  HIS212      0.2595
    142  O        -18.8840   41.3380    7.6180 O.2   212  HIS212     -0.2718
    143  CB       -18.9740   37.9660    8.2910 C.3   212  HIS212      0.0759
    144  CG       -19.3160   38.5310    9.6350 C.ar  212  HIS212      0.0818
    145  ND1      -18.4330   39.3210   10.3700 N.ar  212  HIS212     -0.2268
    146  CD2      -20.4810   38.5050   10.3310 C.ar  212  HIS212      0.1154
    147  CE1      -19.0450   39.6970   11.5010 C.ar  212  HIS212      0.1986
    148  NE2      -20.2880   39.2510   11.4860 N.ar  212  HIS212     -0.2212
    149  N        -17.0080   40.0990    7.0340 N.am  213  LEU213     -0.1980
    150  CA       -16.1050   41.2430    7.1700 C.3   213  LEU213      0.1596
    151  C        -16.4590   42.3890    6.1430 C.2   213  LEU213      0.2287
    152  O        -16.4950   43.5750    6.5110 O.2   213  LEU213     -0.2864
    153  CB       -14.6090   40.8620    7.0730 C.3   213  LEU213      0.0297
    154  CG       -13.5780   42.0020    7.3130 C.3   213  LEU213      0.0022
    155  CD1      -13.7420   42.8240    8.6220 C.3   213  LEU213      0.0001
    156  CD2      -12.1970   41.3150    7.3150 C.3   213  LEU213      0.0001
@<TRIPOS>BOND
     1    46    47    1
     2    50    47    1
     3    50    51    1
     4    47    48    1
     5    48    49    1
     6   139   140    1
     7    51    52    1
     8   151   152    2
     9   151   150    1
    10   137   138    2
    11   137   136    1
    12   135   136    1
    13    53    52    1
    14   149   150    1
    15   149   141   am
    16   153   150    1
    17   153   154    1
    18   140   141    1
    19   140   143    1
    20   141   142    2
    21   154   156    1
    22   154   155    1
    23    54    55    1
    24    68    69    1
    25    68    67    1
    26   143   144    1
    27    59    60    1
    28    59    58    1
    29    59    61    1
    30    40    39    2
    31    58    55    1
    32    66    67    1
    33    66    63    1
    34    55    56    1
    35    62    56   am
    36    62    63    1
    37   144   146   ar
    38   144   145   ar
    39    39    38    1
    40   115   113    1
    41    35    34    2
    42    56    57    2
    43   113   112    1
    44    63    64    1
    45   146   148   ar
    46   145   147   ar
    47    64    65    2
    48    34    33    1
    49    36    33    1
    50   114   112    1
    51    38    41    1
    52    38    37    1
    53   112   109    1
    54   134   132    1
    55   148   147   ar
    56    33    32    1
    57    23    21    1
    58    41    42    1
    59   109   108    1
    60   109   110    1
    61    21    18    1
    62    21    22    1
    63    20    19    2
    64     8     7    1
    65   132   133    1
    66   132   131    1
    67   111   110    2
    68    18    19    1
    69    18    17    1
    70   127   128    1
    71    32    26   am
    72   110   116   am
    73    42    43    1
    74   128   131    1
    75   128   129    1
    76    27    26    2
    77    44    43   ar
    78    43    45   ar
    79    70    71    1
    80   100   101    1
    81     7     6    1
    82    26    25    1
    83   101   102    1
    84   101   104    1
    85   105   107    1
    86   105   104    1
    87    12    11    2
    88    17    11   am
    89   116   117    1
    90   130   129    2
    91     6     5    1
    92   103   102    2
    93    74    71    1
    94    74    75    1
    95    11    10    1
    96   104   106    1
    97     5     2    1
    98     4     3    2
    99    71    72    1
   100    77    75    1
   101    24    25    1
   102    25    28    1
   103    87    86    1
   104    72    73    2
   105   117   118    1
   106   117   120    1
   107   118   119    2
   108    13    10    1
   109    13    14    1
   110    75    76    1
   111     3     2    1
   112     2     1    1
   113    10     9    1
   114    88    86    1
   115    28    29    1
   116   122   124   ar
   117   122   121   ar
   118    29    30    1
   119    29    31    1
   120    98    99   ar
   121    98    96   ar
   122    86    85    2
   123    15    14    1
   124   124   126   ar
   125    14    16    1
   126   120   121    1
   127    99    97   ar
   128    96    94   ar
   129   121   123   ar
   130    78    79    1
   131    85    84    1
   132   126   125   ar
   133    83    84    1
   134    83    82    1
   135    97    95   ar
   136    94    95   ar
   137    94    93    1
   138   123   125   ar
   139    82    79    1
   140    79    80    1
   141    92    91    2
   142    93    90    1
   143    90    91    1
   144    90    89    1
   145    80    81    2
