@<TRIPOS>MOLECULE
tmp/3olqA01.pdb
 242 234 0 0 0
SMALL
GASTEIGER

@<TRIPOS>ATOM
      1  N          1.6140   26.4140    8.7170 N.3    15  ASP15      -0.1225
      2  CA         1.1700   27.0150    9.9740 C.3    15  ASP15       0.1805
      3  C          1.9100   26.4540   11.1850 C.2    15  ASP15       0.2598
      4  O          2.5610   27.1910   11.9260 O.2    15  ASP15      -0.2718
      5  CB        -0.3360   26.8270   10.1580 C.3    15  ASP15       0.1424
      6  CG        -1.1610   27.7550    9.2620 C.2    15  ASP15       0.3668
      7  OD1       -0.6280   28.7820    8.7860 O.co2  15  ASP15      -0.2456
      8  OD2       -2.3550   27.4550    9.0440 O.co2  15  ASP15      -0.2456
      9  N          1.7970   25.1470   11.3900 N.am   16  ASP16      -0.1960
     10  CA         2.4140   24.5070   12.5460 C.3    16  ASP16       0.1840
     11  C          3.9390   24.6640   12.5490 C.2    16  ASP16       0.2621
     12  O          4.5930   24.5140   11.5160 O.2    16  ASP16      -0.2715
     13  CB         2.0510   23.0280   12.6040 C.3    16  ASP16       0.1450
     14  CG         2.5280   22.3770   13.8750 C.2    16  ASP16       0.3671
     15  OD1        2.0320   22.7830   14.9480 O.co2  16  ASP16      -0.2456
     16  OD2        3.4020   21.4830   13.8050 O.co2  16  ASP16      -0.2456
     17  N          4.4970   24.9450   13.7240 N.am   17  GLN17      -0.1977
     18  CA         5.9180   25.2660   13.8490 C.3    17  GLN17       0.1601
     19  C          6.6160   24.3220   14.8290 C.2    17  GLN17       0.2287
     20  O          6.7300   24.6240   16.0170 O.2    17  GLN17      -0.2864
     21  CB         6.0720   26.7190   14.3150 C.3    17  GLN17       0.0394
     22  CG         5.4650   27.7420   13.3500 C.3    17  GLN17       0.0908
     23  CD         6.2100   27.7960   12.0450 C.2    17  GLN17       0.2608
     24  OE1        7.4350   27.6790   12.0210 O.2    17  GLN17      -0.2717
     25  NE2        5.4800   27.9690   10.9390 N.am   17  GLN17      -0.0878
     26  N          9.1920   25.9470   17.0460 N.3    20  LEU20      -0.1231
     27  CA         8.6460   26.6970   18.1720 C.3    20  LEU20       0.1693
     28  C          8.2290   25.7470   19.3010 C.2    20  LEU20       0.2592
     29  O          8.4860   26.0010   20.4830 O.2    20  LEU20      -0.2718
     30  CB         7.4390   27.5460   17.7310 C.3    20  LEU20       0.0284
     31  CG         6.8070   28.4490   18.7930 C.3    20  LEU20       0.0019
     32  CD1        7.8470   29.3870   19.3890 C.3    20  LEU20       0.0001
     33  CD2        5.6420   29.2370   18.1970 C.3    20  LEU20       0.0001
     34  N          7.5590   24.6620   18.9330 N.am   21  ARG21      -0.1966
     35  CA         7.1470   23.6500   19.9070 C.3    21  ARG21       0.1729
     36  C          8.3340   23.0810   20.6940 C.2    21  ARG21       0.2616
     37  O          8.2590   22.8920   21.9230 O.2    21  ARG21      -0.2715
     38  CB         6.3880   22.5220   19.1960 C.3    21  ARG21       0.0348
     39  CG         6.0120   21.3460   20.0900 C.3    21  ARG21       0.0492
     40  CD         5.1330   20.3630   19.3360 C.3    21  ARG21       0.2205
     41  NE         3.8610   20.9700   18.9420 N.pl3  21  ARG21      -0.0865
     42  CZ         3.5310   21.3180   17.7000 C.cat  21  ARG21       0.5346
     43  NH1        2.3430   21.8630   17.4630 N.pl3  21  ARG21       0.1354
     44  NH2        4.3740   21.1250   16.6930 N.pl3  21  ARG21       0.1354
     45  N          9.4280   22.7910   19.9970 N.am   22  ARG22      -0.1977
     46  CA        10.6030   22.2620   20.6820 C.3    22  ARG22       0.1597
     47  C         11.1810   23.3270   21.6240 C.2    22  ARG22       0.2287
     48  O         11.5350   23.0300   22.7660 O.2    22  ARG22      -0.2864
     49  CB        11.6560   21.7510   19.6890 C.3    22  ARG22       0.0334
     50  CG        12.9270   21.2050   20.3480 C.3    22  ARG22       0.0492
     51  CD        12.6410   20.0090   21.2580 C.3    22  ARG22       0.2205
     52  NE        11.8160   19.0190   20.5750 N.pl3  22  ARG22      -0.0865
     53  CZ        12.2600   18.1860   19.6410 C.cat  22  ARG22       0.5346
     54  NH1       11.4180   17.3340   19.0670 N.pl3  22  ARG22       0.1354
     55  NH2       13.5440   18.1990   19.2780 N.pl3  22  ARG22       0.1354
     56  N          9.5640   25.7420   23.1220 N.3    24  VAL24      -0.1231
     57  CA         8.6460   25.8280   24.2520 C.3    24  VAL24       0.1692
     58  C          8.9020   24.6810   25.2250 C.2    24  VAL24       0.2592
     59  O          8.9250   24.8750   26.4430 O.2    24  VAL24      -0.2718
     60  CB         7.1720   25.8020   23.7870 C.3    24  VAL24       0.0266
     61  CG1        6.2320   25.5890   24.9750 C.3    24  VAL24       0.0020
     62  CG2        6.8330   27.0760   23.0440 C.3    24  VAL24       0.0020
     63  N          9.1020   23.4840   24.6820 N.am   25  TYR25      -0.1976
     64  CA         9.3790   22.3190   25.5030 C.3    25  TYR25       0.1639
     65  C         10.6090   22.5800   26.3610 C.2    25  TYR25       0.2290
     66  O         10.6380   22.2550   27.5550 O.2    25  TYR25      -0.2864
     67  CB         9.6030   21.0950   24.6140 C.3    25  TYR25       0.0560
     68  CG         9.7680   19.8040   25.3780 C.ar   25  TYR25      -0.0198
     69  CD1        8.6610   19.0400   25.7390 C.ar   25  TYR25      -0.0009
     70  CD2       11.0310   19.3410   25.7320 C.ar   25  TYR25      -0.0009
     71  CE1        8.8090   17.8470   26.4420 C.ar   25  TYR25       0.0417
     72  CE2       11.1870   18.1540   26.4380 C.ar   25  TYR25       0.0417
     73  CZ        10.0730   17.4130   26.7830 C.ar   25  TYR25       0.1957
     74  OH        10.2270   16.2290   27.4760 O.3    25  TYR25      -0.2866
     75  N          9.8720   25.4380   29.1090 N.3    28  GLN28      -0.1231
     76  CA         9.0550   24.9220   30.2030 C.3    28  GLN28       0.1698
     77  C          9.9210   24.2240   31.2460 C.2    28  GLN28       0.2592
     78  O          9.6250   24.2520   32.4400 O.2    28  GLN28      -0.2718
     79  CB         8.0230   23.9270   29.6770 C.3    28  GLN28       0.0381
     80  CG         6.9600   24.5310   28.7870 C.3    28  GLN28       0.0905
     81  CD         6.0650   23.4760   28.1620 C.2    28  GLN28       0.2608
     82  OE1        6.5070   22.3610   27.8680 O.2    28  GLN28      -0.2717
     83  NE2        4.7990   23.8230   27.9540 N.am   28  GLN28      -0.0878
     84  N         10.9940   23.5890   30.7930 N.am   29  ARG29      -0.1980
     85  CA        11.8070   22.7700   31.6800 C.3    29  ARG29       0.1597
     86  C         13.0450   23.4830   32.2090 C.2    29  ARG29       0.2287
     87  O         13.5610   23.1360   33.2720 O.2    29  ARG29      -0.2864
     88  CB        12.1790   21.4570   30.9820 C.3    29  ARG29       0.0334
     89  CG        11.0230   20.4740   30.9940 C.3    29  ARG29       0.0492
     90  CD        11.0720   19.4380   29.8910 C.3    29  ARG29       0.2205
     91  NE         9.8080   18.7080   29.8730 N.pl3  29  ARG29      -0.0865
     92  CZ         8.6730   19.2130   29.3970 C.cat  29  ARG29       0.5346
     93  NH1        8.6590   20.4390   28.8850 N.pl3  29  ARG29       0.1354
     94  NH2        7.5540   18.4990   29.4300 N.pl3  29  ARG29       0.1354
     95  N         -0.6670   34.1860   15.9030 N.3    71  GLN71      -0.1231
     96  CA        -1.7550   33.2000   15.8430 C.3    71  GLN71       0.1698
     97  C         -1.2460   31.7960   16.1810 C.2    71  GLN71       0.2592
     98  O         -1.8700   31.0630   16.9510 O.2    71  GLN71      -0.2718
     99  CB        -2.4310   33.2170   14.4640 C.3    71  GLN71       0.0381
    100  CG        -3.2870   34.4710   14.1990 C.3    71  GLN71       0.0905
    101  CD        -3.4240   34.8380   12.7050 C.2    71  GLN71       0.2608
    102  OE1       -3.2250   34.0040   11.8110 O.2    71  GLN71      -0.2717
    103  NE2       -3.7690   36.1020   12.4400 N.am   71  GLN71      -0.0878
    104  N         -0.1040   31.4250   15.6190 N.am   72  GLN72      -0.1979
    105  CA         0.4910   30.1260   15.9090 C.3    72  GLN72       0.1601
    106  C          1.0140   30.0190   17.3400 C.2    72  GLN72       0.2287
    107  O          0.9940   28.9420   17.9350 O.2    72  GLN72      -0.2864
    108  CB         1.6060   29.8170   14.9190 C.3    72  GLN72       0.0394
    109  CG         1.1960   29.9760   13.4750 C.3    72  GLN72       0.0908
    110  CD        -0.0350   29.1700   13.1300 C.2    72  GLN72       0.2608
    111  OE1       -0.1800   28.0250   13.5560 O.2    72  GLN72      -0.2717
    112  NE2       -0.9310   29.7620   12.3500 N.am   72  GLN72      -0.0878
    113  N         -1.4240   29.8540   22.0950 N.3    75  TYR75      -0.1227
    114  CA        -1.6130   29.0210   23.2820 C.3    75  TYR75       0.1736
    115  C         -0.3890   29.0500   24.2020 C.2    75  TYR75       0.2595
    116  O         -0.5180   29.0620   25.4330 O.2    75  TYR75      -0.2718
    117  CB        -1.9790   27.5890   22.8810 C.3    75  TYR75       0.0548
    118  CG        -3.2960   27.4980   22.1400 C.ar   75  TYR75      -0.0200
    119  CD1       -3.3700   27.7620   20.7770 C.ar   75  TYR75      -0.0009
    120  CD2       -4.4680   27.1600   22.8060 C.ar   75  TYR75      -0.0009
    121  CE1       -4.5740   27.6860   20.0960 C.ar   75  TYR75       0.0417
    122  CE2       -5.6780   27.0820   22.1340 C.ar   75  TYR75       0.0417
    123  CZ        -5.7250   27.3460   20.7800 C.ar   75  TYR75       0.1957
    124  OH        -6.9250   27.2670   20.1100 O.3    75  TYR75      -0.2866
    125  N          0.7960   29.0720   23.6010 N.am   76  TYR76      -0.1976
    126  CA         2.0380   29.1840   24.3620 C.3    76  TYR76       0.1639
    127  C          2.0690   30.4890   25.1440 C.2    76  TYR76       0.2290
    128  O          2.4330   30.5200   26.3190 O.2    76  TYR76      -0.2864
    129  CB         3.2530   29.1320   23.4250 C.3    76  TYR76       0.0560
    130  CG         3.3690   27.8520   22.6340 C.ar   76  TYR76      -0.0198
    131  CD1        3.0770   26.6280   23.2200 C.ar   76  TYR76      -0.0009
    132  CD2        3.7870   27.8670   21.3060 C.ar   76  TYR76      -0.0009
    133  CE1        3.1830   25.4540   22.5090 C.ar   76  TYR76       0.0417
    134  CE2        3.9010   26.6970   20.5850 C.ar   76  TYR76       0.0417
    135  CZ         3.5940   25.4940   21.1890 C.ar   76  TYR76       0.1957
    136  OH         3.7090   24.3190   20.4810 O.3    76  TYR76      -0.2866
    137  N         20.1590   23.3440   15.9780 N.3   137  TRP137     -0.1241
    138  CA        19.3380   22.1590   16.2740 C.3   137  TRP137      0.1605
    139  C         18.2770   22.0130   15.1830 C.2   137  TRP137      0.2264
    140  O         17.3300   22.8040   15.1100 O.2   137  TRP137     -0.2867
    141  CB        18.6870   22.3120   17.6460 C.3   137  TRP137      0.0550
    142  CG        17.9450   21.1050   18.1850 C.ar  137  TRP137      0.0003
    143  CD1       17.3850   20.0810   17.4680 C.ar  137  TRP137      0.0946
    144  CD2       17.6570   20.8290   19.5660 C.ar  137  TRP137      0.0152
    145  NE1       16.7790   19.1830   18.3260 N.ar  137  TRP137     -0.2442
    146  CE2       16.9300   19.6250   19.6130 C.ar  137  TRP137      0.0810
    147  CE3       17.9580   21.4800   20.7670 C.ar  137  TRP137      0.0012
    148  CZ2       16.4990   19.0560   20.8140 C.ar  137  TRP137      0.0191
    149  CZ3       17.5190   20.9240   21.9530 C.ar  137  TRP137      0.0001
    150  CH2       16.7990   19.7230   21.9690 C.ar  137  TRP137      0.0015
    151  N          7.2740   12.8910   15.7260 N.3   142  GLU142     -0.1231
    152  CA         7.3180   12.6580   17.1600 C.3   142  GLU142      0.1699
    153  C          8.7070   12.2040   17.6210 C.2   142  GLU142      0.2592
    154  O          9.3780   11.4240   16.9450 O.2   142  GLU142     -0.2718
    155  CB         6.2640   11.6150   17.5480 C.3   142  GLU142      0.0402
    156  CG         6.2550   11.2410   19.0140 C.3   142  GLU142      0.1161
    157  CD         5.1380   10.2680   19.3500 C.2   142  GLU142      0.3649
    158  OE1        5.1240    9.1510   18.7830 O.co2 142  GLU142     -0.2457
    159  OE2        4.2730   10.6250   20.1780 O.co2 142  GLU142     -0.2457
    160  N          9.1320   12.7050   18.7750 N.am  143  TRP143     -0.1976
    161  CA        10.3730   12.2710   19.4000 C.3   143  TRP143      0.1640
    162  C         10.2080   10.8290   19.8710 C.2   143  TRP143      0.2290
    163  O          9.2340   10.5100   20.5520 O.2   143  TRP143     -0.2864
    164  CB        10.6830   13.1890   20.5820 C.3   143  TRP143      0.0576
    165  CG        11.9310   12.8480   21.3470 C.ar  143  TRP143      0.0006
    166  CD1       12.0270   12.0040   22.4160 C.ar  143  TRP143      0.0946
    167  CD2       13.2490   13.3760   21.1310 C.ar  143  TRP143      0.0152
    168  NE1       13.3270   11.9570   22.8690 N.ar  143  TRP143     -0.2442
    169  CE2       14.0950   12.7940   22.0960 C.ar  143  TRP143      0.0810
    170  CE3       13.7980   14.2790   20.2080 C.ar  143  TRP143      0.0012
    171  CZ2       15.4590   13.0830   22.1690 C.ar  143  TRP143      0.0191
    172  CZ3       15.1500   14.5660   20.2830 C.ar  143  TRP143      0.0001
    173  CH2       15.9660   13.9710   21.2570 C.ar  143  TRP143      0.0015
    174  N         20.4520    9.9150   23.1780 N.3   149  ILE149     -0.1245
    175  CA        21.1980   11.0810   22.7320 C.3   149  ILE149      0.1561
    176  C         22.5960   10.6030   22.3540 C.2   149  ILE149      0.2260
    177  O         23.3610   10.1690   23.2180 O.2   149  ILE149     -0.2867
    178  CB        21.3000   12.1090   23.8640 C.3   149  ILE149      0.0252
    179  CG1       19.8970   12.5060   24.3320 C.3   149  ILE149      0.0019
    180  CG2       22.1200   13.3210   23.4150 C.3   149  ILE149      0.0019
    181  CD1       19.8550   13.1150   25.7090 C.3   149  ILE149      0.0001
    182  N         26.3320   18.5250   25.6920 N.3   173  THR173     -0.1218
    183  CA        25.3150   17.4890   25.6510 C.3   173  THR173      0.1862
    184  C         24.9000   17.0880   27.0580 C.2   173  THR173      0.2287
    185  O         23.7140   16.9870   27.3470 O.2   173  THR173     -0.2866
    186  CB        25.8150   16.2520   24.8800 C.3   173  THR173      0.1770
    187  OG1       26.0270   16.6090   23.5070 O.3   173  THR173     -0.2211
    188  CG2       24.8100   15.1110   24.9600 C.3   173  THR173      0.0375
    189  N         23.0300   20.4010   28.7190 N.3   176  LEU176     -0.1231
    190  CA        21.7300   20.6690   28.1310 C.3   176  LEU176      0.1693
    191  C         20.7560   19.5170   28.3510 C.2   176  LEU176      0.2592
    192  O         19.5910   19.7520   28.6790 O.2   176  LEU176     -0.2718
    193  CB        21.8730   20.9580   26.6330 C.3   176  LEU176      0.0284
    194  CG        20.6080   21.3560   25.8810 C.3   176  LEU176      0.0019
    195  CD1       19.9530   22.5480   26.5450 C.3   176  LEU176      0.0001
    196  CD2       20.9580   21.6630   24.4200 C.3   176  LEU176      0.0001
    197  N         21.2230   18.2770   28.1750 N.am  177  SER177     -0.1952
    198  CA        20.3230   17.1280   28.2770 C.3   177  SER177      0.1924
    199  C         19.7590   16.9660   29.6850 C.2   177  SER177      0.2314
    200  O         18.6050   16.5810   29.8570 O.2   177  SER177     -0.2863
    201  CB        20.9850   15.8250   27.7880 C.3   177  SER177      0.2116
    202  OG        22.0120   15.3810   28.6550 O.3   177  SER177     -0.2180
    203  N         16.8870   19.3630   30.4290 N.3   180  ILE180     -0.1231
    204  CA        15.6500   19.1270   29.6910 C.3   180  ILE180      0.1692
    205  C         14.9720   17.8230   30.0810 C.2   180  ILE180      0.2591
    206  O         13.7480   17.7600   30.1730 O.2   180  ILE180     -0.2718
    207  CB        15.8980   19.0920   28.1730 C.3   180  ILE180      0.0266
    208  CG1       16.4250   20.4380   27.6850 C.3   180  ILE180      0.0019
    209  CG2       14.6220   18.7100   27.4360 C.3   180  ILE180      0.0020
    210  CD1       16.7530   20.4430   26.2100 C.3   180  ILE180      0.0001
    211  N         15.7720   16.7840   30.3000 N.am  181  GLN181     -0.1979
    212  CA        15.2460   15.4550   30.5810 C.3   181  GLN181      0.1601
    213  C         15.5630   15.0260   32.0060 C.2   181  GLN181      0.2287
    214  O         16.6160   15.3730   32.5430 O.2   181  GLN181     -0.2864
    215  CB        15.8250   14.4360   29.5990 C.3   181  GLN181      0.0394
    216  CG        15.4390   14.6690   28.1500 C.3   181  GLN181      0.0908
    217  CD        15.6140   13.4210   27.3150 C.2   181  GLN181      0.2608
    218  OE1       16.7050   12.8470   27.2590 O.2   181  GLN181     -0.2717
    219  NE2       14.5350   12.9810   26.6710 N.am  181  GLN181     -0.0878
    220  N         18.3570   12.1200   18.8130 N.3   258  ILE258     -0.1245
    221  CA        19.2170   13.1790   18.2770 C.3   258  ILE258      0.1561
    222  C         20.6600   12.7040   18.1880 C.2   258  ILE258      0.2260
    223  O         21.0820   11.8490   18.9720 O.2   258  ILE258     -0.2867
    224  CB        19.1380   14.4540   19.1670 C.3   258  ILE258      0.0252
    225  CG1       19.8320   15.6460   18.5040 C.3   258  ILE258      0.0019
    226  CG2       19.7270   14.1730   20.5620 C.3   258  ILE258      0.0019
    227  CD1       19.4040   16.9890   19.0890 C.3   258  ILE258      0.0001
    228  N         24.5800   14.4430   18.0610 N.3   260  VAL260     -0.1245
    229  CA        25.3410   15.6610   18.2840 C.3   260  VAL260      0.1561
    230  C         26.6800   15.5210   17.5540 C.2   260  VAL260      0.2260
    231  O         27.4010   14.5310   17.7400 O.2   260  VAL260     -0.2867
    232  CB        25.5710   15.8940   19.7920 C.3   260  VAL260      0.0252
    233  CG1       26.2780   17.2150   20.0110 C.3   260  VAL260      0.0019
    234  CG2       24.2460   15.8730   20.5420 C.3   260  VAL260      0.0019
    235  N         22.0670   18.0720   16.1990 N.3   290  LEU290     -0.1245
    236  CA        22.5830   19.2430   16.8890 C.3   290  LEU290      0.1561
    237  C         24.0270   19.4320   16.4420 C.2   290  LEU290      0.2260
    238  O         24.9190   18.6560   16.8320 O.2   290  LEU290     -0.2867
    239  CB        22.5240   19.0620   18.4190 C.3   290  LEU290      0.0270
    240  CG        22.9750   20.2650   19.2520 C.3   290  LEU290      0.0019
    241  CD1       22.0860   21.5050   18.9920 C.3   290  LEU290      0.0001
    242  CD2       22.9860   19.9390   20.7450 C.3   290  LEU290      0.0001
@<TRIPOS>BOND
     1     1     2    1
     2     7     6   ar
     3     8     6   ar
     4     6     5    1
     5     2     5    1
     6     2     3    1
     7    25    23   am
     8     3     9   am
     9     3     4    2
    10     9    10    1
    11    12    11    2
    12   102   101    2
    13    24    23    2
    14    23    22    1
    15   112   110   am
    16   103   101   am
    17    10    11    1
    18    10    13    1
    19    11    17   am
    20    13    14    1
    21   101   100    1
    22   110   109    1
    23   110   111    2
    24    22    21    1
    25   109   108    1
    26    17    18    1
    27    16    14   ar
    28    18    21    1
    29    18    19    1
    30    14    15   ar
    31   100    99    1
    32    99    96    1
    33    19    20    2
    34   108   105    1
    35   140   139    2
    36   139   138    1
    37   104   105    1
    38   104    97   am
    39   151   152    1
    40    96    95    1
    41    96    97    1
    42   105   106    1
    43   137   138    1
    44    97    98    2
    45   235   236    1
    46   138   141    1
    47   237   238    2
    48   237   236    1
    49    44    42    1
    50   236   239    1
    51   154   153    2
    52    26    27    1
    53   152   155    1
    54   152   153    1
    55   106   107    2
    56    43    42    1
    57   143   142   ar
    58   143   145   ar
    59   155   156    1
    60   230   231    2
    61   230   229    1
    62   153   160   am
    63   141   142    1
    64    42    41    2
    65    30    27    1
    66    30    31    1
    67   228   229    1
    68    27    28    1
    69   142   144   ar
    70   222   221    1
    71   222   223    2
    72    33    31    1
    73   221   220    1
    74   221   224    1
    75   229   232    1
    76   145   146   ar
    77   239   240    1
    78   225   227    1
    79   225   224    1
    80   160   161    1
    81   158   157   ar
    82    31    32    1
    83    34    28   am
    84    34    35    1
    85    41    40    1
    86   241   240    1
    87   156   157    1
    88    54    53    1
    89   224   226    1
    90    38    35    1
    91    38    39    1
    92   240   242    1
    93    55    53    1
    94    28    29    2
    95    40    39    1
    96   157   159   ar
    97   161   162    1
    98   161   164    1
    99   144   146   ar
   100   144   147   ar
   101   146   148   ar
   102    53    52    2
   103    49    50    1
   104    49    46    1
   105   232   233    1
   106   232   234    1
   107   162   163    2
   108    35    36    1
   109    45    46    1
   110    45    36   am
   111   121   119   ar
   112   121   123   ar
   113   124   123    1
   114   170   172   ar
   115   170   167   ar
   116   172   173   ar
   117    50    51    1
   118   136   135    1
   119    52    51    1
   120   164   165    1
   121   134   135   ar
   122   134   132   ar
   123    46    47    1
   124    36    37    2
   125   147   149   ar
   126   119   118   ar
   127   123   122   ar
   128   148   150   ar
   129   167   165   ar
   130   167   169   ar
   131   135   133   ar
   132   173   171   ar
   133   132   130   ar
   134   165   166   ar
   135    47    48    2
   136   149   150   ar
   137   113   114    1
   138   169   171   ar
   139   169   168   ar
   140   122   120   ar
   141   118   120   ar
   142   118   117    1
   143   176   175    1
   144   176   177    2
   145   166   168   ar
   146   133   131   ar
   147   130   131   ar
   148   130   129    1
   149   175   174    1
   150   175   178    1
   151   117   114    1
   152    62    60    1
   153    56    57    1
   154   114   115    1
   155   180   178    1
   156   129   126    1
   157   187   186    1
   158   125   115   am
   159   125   126    1
   160    60    57    1
   161    60    61    1
   162   178   179    1
   163   115   116    2
   164    57    58    1
   165   179   181    1
   166   126   127    1
   167   196   194    1
   168    67    68    1
   169    67    64    1
   170    63    58   am
   171    63    64    1
   172   186   188    1
   173   186   183    1
   174   127   128    2
   175    58    59    2
   176    68    70   ar
   177    68    69   ar
   178    64    65    1
   179   183   182    1
   180   183   184    1
   181    70    72   ar
   182    69    71   ar
   183   194   195    1
   184   194   193    1
   185   210   208    1
   186    65    66    2
   187    72    73   ar
   188    71    73   ar
   189   193   190    1
   190   219   217   am
   191    73    74    1
   192   184   185    2
   193   218   217    2
   194   217   216    1
   195   209   207    1
   196   208   207    1
   197   201   198    1
   198   201   202    1
   199    82    81    2
   200    83    81   am
   201   190   191    1
   202   190   189    1
   203   216   215    1
   204    81    80    1
   205   207   204    1
   206   197   198    1
   207   197   191   am
   208   198   199    1
   209   191   192    2
   210    80    79    1
   211    93    92    1
   212    75    76    1
   213    92    94    1
   214    92    91    2
   215   215   212    1
   216    79    76    1
   217   199   200    2
   218   204   205    1
   219   204   203    1
   220    91    90    1
   221    90    89    1
   222   205   206    2
   223   205   211   am
   224    76    77    1
   225   211   212    1
   226   212   213    1
   227    84    77   am
   228    84    85    1
   229    88    89    1
   230    88    85    1
   231    77    78    2
   232    85    86    1
   233   213   214    2
   234    86    87    2
