@<TRIPOS>MOLECULE
tmp/3olrD00.pdb
 181 173 0 0 0
SMALL
GASTEIGER

@<TRIPOS>ATOM
      1  N          0.2210    2.9520   12.1910 N.3    35  LYS35      -0.1245
      2  CA         0.0480    2.5740   13.5910 C.3    35  LYS35       0.1561
      3  C         -0.0350    1.0600   13.7680 C.2    35  LYS35       0.2260
      4  O          0.4720    0.5140   14.7500 O.2    35  LYS35      -0.2867
      5  CB        -1.2090    3.2380   14.1650 C.3    35  LYS35       0.0271
      6  CG        -1.2250    4.7540   13.9860 C.3    35  LYS35       0.0035
      7  CD        -1.3510    5.4920   15.3080 C.3    35  LYS35       0.0206
      8  CE        -2.7110    5.2550   15.9500 C.3    35  LYS35       0.1093
      9  NZ        -2.9060    6.0780   17.1880 N.3    35  LYS35      -0.1314
     10  N         14.2810    9.5320   30.3640 N.3    61  ASN61      -0.1225
     11  CA        13.2810    9.5490   29.2980 C.3    61  ASN61       0.1785
     12  C         12.1870   10.5470   29.6480 C.2    61  ASN61       0.2597
     13  O         11.5900   10.4710   30.7180 O.2    61  ASN61      -0.2718
     14  CB        12.6790    8.1630   29.1140 C.3    61  ASN61       0.1169
     15  CG        13.7050    7.1430   28.6820 C.2    61  ASN61       0.2627
     16  OD1       14.3600    7.3040   27.6570 O.2    61  ASN61      -0.2716
     17  ND2       13.8520    6.0870   29.4620 N.am   61  ASN61      -0.0877
     18  N         11.9350   11.4910   28.7500 N.am   62  ARG62      -0.1966
     19  CA        10.9170   12.5050   28.9920 C.3    62  ARG62       0.1729
     20  C          9.5210   11.8940   29.0400 C.2    62  ARG62       0.2616
     21  O          8.7190   12.2250   29.9080 O.2    62  ARG62      -0.2715
     22  CB        10.9780   13.5850   27.9070 C.3    62  ARG62       0.0348
     23  CG         9.9300   14.6760   28.0660 C.3    62  ARG62       0.0492
     24  CD        10.1740   15.8440   27.1180 C.3    62  ARG62       0.2205
     25  NE        11.3960   16.5770   27.4520 N.pl3  62  ARG62      -0.0865
     26  CZ        11.4460   17.6210   28.2730 C.cat  62  ARG62       0.5346
     27  NH1       10.3440   18.0780   28.8530 N.pl3  62  ARG62       0.1354
     28  NH2       12.6060   18.2090   28.5210 N.pl3  62  ARG62       0.1354
     29  N          9.2390   10.9990   28.1030 N.am   63  TYR63      -0.1960
     30  CA         7.9390   10.3360   28.0330 C.3    63  TYR63       0.1771
     31  C          8.1210    8.8260   28.2060 C.2    63  TYR63       0.2619
     32  O          8.9040    8.2010   27.4920 O.2    63  TYR63      -0.2715
     33  CB         7.2670   10.6680   26.6920 C.3    63  TYR63       0.0574
     34  CG         6.9830   12.1480   26.5220 C.ar   63  TYR63      -0.0198
     35  CD1        6.0760   12.8030   27.3540 C.ar   63  TYR63      -0.0009
     36  CD2        7.6540   12.9050   25.5610 C.ar   63  TYR63      -0.0009
     37  CE1        5.8480   14.1680   27.2350 C.ar   63  TYR63       0.0417
     38  CE2        7.4330   14.2730   25.4370 C.ar   63  TYR63       0.0417
     39  CZ         6.5310   14.8960   26.2780 C.ar   63  TYR63       0.1957
     40  OH         6.3220   16.2510   26.1700 O.3    63  TYR63      -0.2866
     41  N          7.4020    8.2410   29.1580 N.am   64  LYS64      -0.1963
     42  CA         7.5390    6.8130   29.4250 C.3    64  LYS64       0.1728
     43  C          7.1040    5.9230   28.2840 C.2    64  LYS64       0.2616
     44  O          7.3160    4.7120   28.3320 O.2    64  LYS64      -0.2715
     45  CB         6.7650    6.4130   30.6850 C.3    64  LYS64       0.0311
     46  CG         5.2580    6.4980   30.5650 C.3    64  LYS64       0.0038
     47  CD         4.5840    5.8590   31.7770 C.3    64  LYS64       0.0206
     48  CE         4.8900    6.6080   33.0690 C.3    64  LYS64       0.1093
     49  NZ         4.2540    7.9550   33.0800 N.3    64  LYS64      -0.1314
     50  N          6.5010    6.5150   27.2590 N.am   65  ASP65      -0.1957
     51  CA         6.0360    5.7370   26.1200 C.3    65  ASP65       0.1840
     52  C          6.9300    5.8860   24.8940 C.2    65  ASP65       0.2621
     53  O          6.8690    5.0750   23.9700 O.2    65  ASP65      -0.2715
     54  CB         4.5920    6.1110   25.7860 C.3    65  ASP65       0.1450
     55  CG         4.4180    7.5910   25.5340 C.2    65  ASP65       0.3671
     56  OD1        5.0260    8.3940   26.2780 O.co2  65  ASP65      -0.2456
     57  OD2        3.6650    7.9440   24.6010 O.co2  65  ASP65      -0.2456
     58  N          7.7680    6.9140   24.8850 N.am   66  ILE66      -0.1977
     59  CA         8.6790    7.1060   23.7660 C.3    66  ILE66       0.1596
     60  C         10.0300    6.5280   24.1740 C.2    66  ILE66       0.2287
     61  O         10.7890    7.1600   24.9050 O.2    66  ILE66      -0.2864
     62  CB         8.8430    8.5970   23.4180 C.3    66  ILE66       0.0276
     63  CG1        7.4800    9.2130   23.0870 C.3    66  ILE66       0.0022
     64  CG2        9.8020    8.7510   22.2560 C.3    66  ILE66       0.0022
     65  CD1        6.7620    8.5740   21.9110 C.3    66  ILE66       0.0001
     66  N         16.2640   16.9190   29.1520 N.3   109  LEU109     -0.1245
     67  CA        15.7730   17.2740   30.4780 C.3   109  LEU109      0.1561
     68  C         16.9790   17.8640   31.2030 C.2   109  LEU109      0.2260
     69  O         18.1240   17.6550   30.7840 O.2   109  LEU109     -0.2867
     70  CB        15.3070   16.0290   31.2280 C.3   109  LEU109      0.0270
     71  CG        14.2510   15.1480   30.5600 C.3   109  LEU109      0.0019
     72  CD1       14.2590   13.7620   31.1780 C.3   109  LEU109      0.0001
     73  CD2       12.8900   15.7960   30.7060 C.3   109  LEU109      0.0001
     74  N          1.4480   24.0070   25.5790 N.3   137  MET137     -0.1245
     75  CA         0.3570   23.4230   26.3360 C.3   137  MET137      0.1570
     76  C          0.4010   23.8340   27.8010 C.2   137  MET137      0.2261
     77  O         -0.1300   23.1320   28.6570 O.2   137  MET137     -0.2867
     78  CB         0.3920   21.8990   26.2350 C.3   137  MET137      0.0387
     79  CG         0.0930   21.3690   24.8420 C.3   137  MET137      0.0595
     80  SD         0.0240   19.5640   24.8110 S.3   137  MET137     -0.1393
     81  CE        -1.7650   19.2840   25.0090 C.3   137  MET137      0.0692
     82  N          3.0520   24.0300   29.8530 N.3   139  LYS139     -0.1231
     83  CA         4.1830   23.5650   30.6440 C.3   139  LYS139      0.1693
     84  C          5.4780   23.3810   29.8570 C.2   139  LYS139      0.2592
     85  O          5.4830   23.4160   28.6210 O.2   139  LYS139     -0.2718
     86  CB         3.7970   22.2770   31.3910 C.3   139  LYS139      0.0285
     87  CG         2.9080   22.5440   32.6050 C.3   139  LYS139      0.0035
     88  CD         2.4780   21.2720   33.3240 C.3   139  LYS139      0.0206
     89  CE         1.3030   20.5900   32.6170 C.3   139  LYS139      0.1093
     90  NZ         0.7950   19.3780   33.3360 N.3   139  LYS139     -0.1314
     91  N          6.5760   23.2030   30.5900 N.am  140  LYS140     -0.1966
     92  CA         7.8980   23.0260   30.0000 C.3   140  LYS140      0.1728
     93  C          7.9820   21.7550   29.1540 C.2   140  LYS140      0.2616
     94  O          7.5310   20.6800   29.5750 O.2   140  LYS140     -0.2715
     95  CB         8.9560   22.9840   31.1020 C.3   140  LYS140      0.0311
     96  CG        10.3760   22.8050   30.5940 C.3   140  LYS140      0.0038
     97  CD        11.1980   24.0640   30.7710 C.3   140  LYS140      0.0206
     98  CE        11.3600   24.4030   32.2410 C.3   140  LYS140      0.1093
     99  NZ        11.9270   23.2620   33.0160 N.3   140  LYS140     -0.1314
    100  N          8.5790   21.8870   27.9690 N.am  141  LYS141     -0.1977
    101  CA         8.7200   20.7760   27.0350 C.3   141  LYS141      0.1596
    102  C         10.1690   20.4760   26.6650 C.2   141  LYS141      0.2287
    103  O         10.4930   19.3760   26.2180 O.2   141  LYS141     -0.2864
    104  CB         7.9210   21.0820   25.7720 C.3   141  LYS141      0.0298
    105  CG         6.4190   21.1010   26.0000 C.3   141  LYS141      0.0038
    106  CD         5.9010   19.6790   26.2070 C.3   141  LYS141      0.0206
    107  CE         4.4410   19.6500   26.5940 C.3   141  LYS141      0.1093
    108  NZ         4.2290   20.2570   27.9360 N.3   141  LYS141     -0.1314
    109  N         12.6380   17.5270   19.0700 N.3   230  SER230     -0.1202
    110  CA        11.4150   18.2530   19.3540 C.3   230  SER230      0.2020
    111  C         11.2300   18.0480   20.8600 C.2   230  SER230      0.2619
    112  O         12.1920   18.1580   21.6090 O.2   230  SER230     -0.2717
    113  CB        10.2550   17.6560   18.5440 C.3   230  SER230      0.2103
    114  OG        10.2990   16.2310   18.5260 O.3   230  SER230     -0.2182
    115  N         10.0250   17.7530   21.3190 N.am  231  SER231     -0.1937
    116  CA         9.8680   17.5230   22.7440 C.3   231  SER231      0.2055
    117  C         10.2310   16.0580   22.9380 C.2   231  SER231      0.2643
    118  O         11.1550   15.7190   23.6830 O.2   231  SER231     -0.2714
    119  CB         8.4290   17.7760   23.1950 C.3   231  SER231      0.2130
    120  OG         8.3500   17.8060   24.6090 O.3   231  SER231     -0.2179
    121  N          9.5200   15.1970   22.2170 N.am  232  ALA232     -0.1963
    122  CA         9.7470   13.7600   22.2960 C.3   232  ALA232      0.1728
    123  C         10.7460   13.2660   21.2560 C.2   232  ALA232      0.2617
    124  O         11.4420   12.2770   21.4730 O.2   232  ALA232     -0.2715
    125  CB         8.4240   13.0230   22.1340 C.3   232  ALA232      0.0334
    126  N         10.8260   13.9610   20.1310 N.am  233  GLY233     -0.1940
    127  CA        11.7310   13.5420   19.0810 C.3   233  GLY233      0.2014
    128  C         11.0280   12.5620   18.1600 C.2   233  GLY233      0.2639
    129  O         11.6600   11.6590   17.6210 O.2   233  GLY233     -0.2714
    130  N          9.7220   12.7370   17.9650 N.am  234  CYS234     -0.1953
    131  CA         8.9770   11.8260   17.1080 C.3   234  CYS234      0.1843
    132  C          8.1200   12.4830   16.0250 C.2   234  CYS234      0.2626
    133  O          8.3340   12.2440   14.8350 O.2   234  CYS234     -0.2714
    134  CB         8.1030   10.9180   17.9750 C.3   234  CYS234      0.0997
    135  SG         9.0570    9.9840   19.1720 S.3   234  CYS234     -0.0797
    136  N          7.1550   13.3020   16.4420 N.am  235  GLY235     -0.1940
    137  CA         6.2570   13.9650   15.5090 C.3   235  GLY235      0.2014
    138  C          6.9070   15.0020   14.6080 C.2   235  GLY235      0.2638
    139  O          7.1560   14.7650   13.4180 O.2   235  GLY235     -0.2714
    140  N          7.1840   16.1660   15.1810 N.am  236  ARG236     -0.1977
    141  CA         7.8010   17.2480   14.4390 C.3   236  ARG236      0.1597
    142  C          9.1750   16.8250   13.9370 C.2   236  ARG236      0.2287
    143  O          9.6060   17.2150   12.8460 O.2   236  ARG236     -0.2864
    144  CB         7.8780   18.4830   15.3320 C.3   236  ARG236      0.0334
    145  CG         6.5060   19.1100   15.5590 C.3   236  ARG236      0.0492
    146  CD         6.4980   20.1220   16.6780 C.3   236  ARG236      0.2205
    147  NE         6.6980   19.5150   17.9940 N.pl3 236  ARG236     -0.0865
    148  CZ         6.6450   20.1950   19.1360 C.cat 236  ARG236      0.5346
    149  NH1        6.3950   21.4940   19.1160 N.pl3 236  ARG236      0.1354
    150  NH2        6.8490   19.5830   20.2940 N.pl3 236  ARG236      0.1354
    151  N          7.3450    5.9970   16.5710 N.3   274  SER274     -0.1217
    152  CA         6.4040    7.1090   16.4440 C.3   274  SER274      0.1889
    153  C          6.8100    8.2590   15.5340 C.2   274  SER274      0.2288
    154  O          6.2360    9.3470   15.6370 O.2   274  SER274     -0.2866
    155  CB         6.0610    7.6750   17.8220 C.3   274  SER274      0.2089
    156  OG         5.1260    6.8550   18.4910 O.3   274  SER274     -0.2183
    157  N          4.0480   11.4930   14.3060 N.3   277  GLN277     -0.1231
    158  CA         3.0730   11.1760   15.3340 C.3   277  GLN277      0.1698
    159  C          1.6020   11.1260   14.9680 C.2   277  GLN277      0.2592
    160  O          0.9090   10.1670   15.2920 O.2   277  GLN277     -0.2718
    161  CB         3.2480   12.1710   16.4770 C.3   277  GLN277      0.0381
    162  CG         2.2710   12.0300   17.6200 C.3   277  GLN277      0.0905
    163  CD         2.4480   10.7280   18.3650 C.2   277  GLN277      0.2608
    164  OE1        3.5710   10.2410   18.5310 O.2   277  GLN277     -0.2717
    165  NE2        1.3400   10.1580   18.8340 N.am  277  GLN277     -0.0878
    166  N          1.1260   12.1700   14.3080 N.am  278  THR278     -0.1953
    167  CA        -0.2840   12.2730   13.9850 C.3   278  THR278      0.1897
    168  C         -0.6050   12.2950   12.5080 C.2   278  THR278      0.2313
    169  O          0.2940   12.3530   11.6570 O.2   278  THR278     -0.2863
    170  CB        -0.8540   13.5470   14.5920 C.3   278  THR278      0.1794
    171  OG1       -0.3110   14.6760   13.8990 O.3   278  THR278     -0.2208
    172  CG2       -0.4650   13.6600   16.0540 C.3   278  THR278      0.0378
    173  N          0.3240   15.5700   10.9390 N.3   281  GLN281     -0.1245
    174  CA         1.7370   15.5820   10.5780 C.3   281  GLN281      0.1566
    175  C          1.9440   14.7480    9.3320 C.2   281  GLN281      0.2260
    176  O          2.7340   15.1120    8.4700 O.2   281  GLN281     -0.2867
    177  CB         2.6030   15.0330   11.7090 C.3   281  GLN281      0.0367
    178  CG         2.4040   15.7440   13.0260 C.3   281  GLN281      0.0905
    179  CD         3.2850   15.1930   14.1250 C.2   281  GLN281      0.2608
    180  OE1        3.5220   13.9860   14.1970 O.2   281  GLN281     -0.2717
    181  NE2        3.7660   16.0780   15.0000 N.am  281  GLN281     -0.0878
@<TRIPOS>BOND
     1   176   175    2
     2   175   174    1
     3   174   173    1
     4   174   177    1
     5   169   168    2
     6   177   178    1
     7     1     2    1
     8   168   167    1
     9   143   142    2
    10   178   179    1
    11   139   138    2
    12     2     3    1
    13     2     5    1
    14     3     4    2
    15   171   170    1
    16   142   141    1
    17   167   166    1
    18   167   170    1
    19     6     5    1
    20     6     7    1
    21   179   180    2
    22   179   181   am
    23   157   158    1
    24   166   159   am
    25   141   140    1
    26   141   144    1
    27   170   172    1
    28   138   140   am
    29   138   137    1
    30   133   132    2
    31   159   160    2
    32   159   158    1
    33     7     8    1
    34   144   145    1
    35   158   161    1
    36   137   136    1
    37   153   154    2
    38   153   152    1
    39   145   146    1
    40     8     9    1
    41   132   136   am
    42   132   131    1
    43   152   151    1
    44   152   155    1
    45   161   162    1
    46   146   147    1
    47   131   130    1
    48   131   134    1
    49   162   163    1
    50   129   128    2
    51   155   156    1
    52   130   128   am
    53   134   135    1
    54   147   148    2
    55   128   127    1
    56   163   164    2
    57   163   165   am
    58   114   113    1
    59   113   110    1
    60   109   110    1
    61   127   126    1
    62   149   148    1
    63   148   150    1
    64   110   111    1
    65   126   123   am
    66   111   115   am
    67   111   112    2
    68   123   124    2
    69   123   122    1
    70   115   116    1
    71    65    63    1
    72   125   122    1
    73   121   122    1
    74   121   117   am
    75    64    62    1
    76   116   117    1
    77   116   119    1
    78   117   118    2
    79    63    62    1
    80   119   120    1
    81    62    59    1
    82    59    60    1
    83    59    58    1
    84    53    52    2
    85    60    61    2
    86    57    55   ar
    87    80    79    1
    88    80    81    1
    89    79    78    1
    90    58    52   am
    91    52    51    1
    92    38    36   ar
    93    38    39   ar
    94    55    54    1
    95    55    56   ar
    96    36    34   ar
    97    74    75    1
    98   104   105    1
    99   104   101    1
   100    54    51    1
   101   105   106    1
   102    51    50    1
   103    40    39    1
   104   106   107    1
   105   103   102    2
   106    78    75    1
   107    39    37   ar
   108    75    76    1
   109    34    33    1
   110    34    35   ar
   111   107   108    1
   112   102   101    1
   113    33    30    1
   114   101   100    1
   115    24    25    1
   116    24    23    1
   117    37    35   ar
   118    50    43   am
   119    25    26    2
   120    32    31    2
   121    16    15    2
   122    76    77    2
   123    22    23    1
   124    22    19    1
   125   100    93   am
   126    30    29    1
   127    30    31    1
   128    29    20   am
   129    31    41   am
   130    26    28    1
   131    26    27    1
   132    43    44    2
   133    43    42    1
   134    85    84    2
   135    15    14    1
   136    15    17   am
   137    18    19    1
   138    18    12   am
   139    19    20    1
   140    20    21    2
   141    14    11    1
   142    66    67    1
   143    93    94    2
   144    93    92    1
   145    41    42    1
   146    11    12    1
   147    11    10    1
   148    42    45    1
   149    12    13    2
   150    82    83    1
   151    84    91   am
   152    84    83    1
   153    92    91    1
   154    92    95    1
   155    67    68    1
   156    67    70    1
   157    71    73    1
   158    71    72    1
   159    71    70    1
   160    46    45    1
   161    46    47    1
   162    96    97    1
   163    96    95    1
   164    83    86    1
   165    97    98    1
   166    69    68    2
   167    86    87    1
   168    47    48    1
   169    98    99    1
   170    87    88    1
   171    89    88    1
   172    89    90    1
   173    48    49    1
