@<TRIPOS>MOLECULE
tmp/3olzA01.pdb
 100 100 0 0 0
SMALL
GASTEIGER

@<TRIPOS>ATOM
      1  N         17.7570   42.3070    1.8480 N.3   139  TRP139     -0.1241
      2  CA        17.8290   42.3230    3.3120 C.3   139  TRP139      0.1605
      3  C         16.4510   42.2870    3.9600 C.2   139  TRP139      0.2264
      4  O         15.5780   43.0930    3.6310 O.2   139  TRP139     -0.2867
      5  CB        18.5580   43.5710    3.8110 C.3   139  TRP139      0.0550
      6  CG        19.9950   43.6090    3.4410 C.ar  139  TRP139      0.0003
      7  CD1       20.6390   42.7590    2.6050 C.ar  139  TRP139      0.0946
      8  CD2       20.9740   44.5480    3.8950 C.ar  139  TRP139      0.0152
      9  NE1       21.9600   43.1090    2.5010 N.ar  139  TRP139     -0.2442
     10  CE2       22.1940   44.2010    3.2880 C.ar  139  TRP139      0.0810
     11  CE3       20.9360   45.6490    4.7560 C.ar  139  TRP139      0.0012
     12  CZ2       23.3670   44.9170    3.5050 C.ar  139  TRP139      0.0191
     13  CZ3       22.1030   46.3550    4.9810 C.ar  139  TRP139      0.0001
     14  CH2       23.3020   45.9880    4.3530 C.ar  139  TRP139      0.0015
     15  N         24.7060   41.0860   10.8480 N.3   194  PHE194     -0.1227
     16  CA        25.6880   40.9520    9.7720 C.3   194  PHE194      0.1736
     17  C         25.5550   41.9930    8.6760 C.2   194  PHE194      0.2595
     18  O         26.4670   42.1670    7.8690 O.2   194  PHE194     -0.2718
     19  CB        25.5580   39.5770    9.1200 C.3   194  PHE194      0.0547
     20  CG        25.9360   38.4600   10.0190 C.ar  194  PHE194     -0.0202
     21  CD1       27.2690   38.1660   10.2480 C.ar  194  PHE194     -0.0042
     22  CD2       24.9610   37.7050   10.6500 C.ar  194  PHE194     -0.0042
     23  CE1       27.6180   37.1380   11.0830 C.ar  194  PHE194     -0.0003
     24  CE2       25.3070   36.6720   11.4880 C.ar  194  PHE194     -0.0003
     25  CZ        26.6360   36.3860   11.7060 C.ar  194  PHE194     -0.0000
     26  N         24.4020   42.6450    8.6260 N.am  195  ARG195     -0.1980
     27  CA        24.0890   43.5940    7.5720 C.3   195  ARG195      0.1597
     28  C         23.9170   44.9260    8.2720 C.2   195  ARG195      0.2287
     29  O         22.9790   45.0940    9.0440 O.2   195  ARG195     -0.2864
     30  CB        22.7880   43.1910    6.8590 C.3   195  ARG195      0.0334
     31  CG        22.9120   42.0060    5.9190 C.3   195  ARG195      0.0492
     32  CD        21.5970   41.2560    5.7580 C.3   195  ARG195      0.2205
     33  NE        21.3090   40.4420    6.9340 N.pl3 195  ARG195     -0.0865
     34  CZ        20.1840   39.7650    7.1270 C.cat 195  ARG195      0.5346
     35  NH1       19.2140   39.7950    6.2190 N.pl3 195  ARG195      0.1354
     36  NH2       20.0270   39.0590    8.2370 N.pl3 195  ARG195      0.1354
     37  N         33.2850   37.6930    4.6260 N.3   220  GLU220     -0.1231
     38  CA        32.2020   37.4510    3.6710 C.3   220  GLU220      0.1699
     39  C         30.8400   37.2650    4.3510 C.2   220  GLU220      0.2592
     40  O         29.7980   37.1470    3.6850 O.2   220  GLU220     -0.2718
     41  CB        32.5110   36.2310    2.7950 C.3   220  GLU220      0.0402
     42  CG        32.9740   34.9920    3.5580 C.3   220  GLU220      0.1161
     43  CD        34.4370   35.0660    3.9700 C.2   220  GLU220      0.3649
     44  OE1       35.1970   35.8120    3.3210 O.co2 220  GLU220     -0.2457
     45  OE2       34.8240   34.3890    4.9450 O.co2 220  GLU220     -0.2457
     46  N         30.8290   37.2420    5.6740 N.am  221  TYR221     -0.1962
     47  CA        29.5610   37.1120    6.3760 C.3   221  TYR221      0.1771
     48  C         28.8970   38.4710    6.5390 C.2   221  TYR221      0.2620
     49  O         27.7070   38.5570    6.8180 O.2   221  TYR221     -0.2715
     50  CB        29.7570   36.4250    7.7270 C.3   221  TYR221      0.0574
     51  CG        29.9740   34.9360    7.5960 C.ar  221  TYR221     -0.0198
     52  CD1       29.0390   34.1360    6.9460 C.ar  221  TYR221     -0.0009
     53  CD2       31.1060   34.3300    8.1140 C.ar  221  TYR221     -0.0009
     54  CE1       29.2280   32.7780    6.8170 C.ar  221  TYR221      0.0417
     55  CE2       31.3020   32.9690    7.9910 C.ar  221  TYR221      0.0417
     56  CZ        30.3600   32.1980    7.3420 C.ar  221  TYR221      0.1957
     57  OH        30.5560   30.8420    7.2190 O.3   221  TYR221     -0.2866
     58  N         29.6680   39.5290    6.3170 N.am  222  TYR222     -0.1960
     59  CA        29.2280   40.8740    6.6380 C.3   222  TYR222      0.1771
     60  C         29.0130   41.7540    5.4170 C.2   222  TYR222      0.2619
     61  O         29.7480   41.6610    4.4330 O.2   222  TYR222     -0.2715
     62  CB        30.2530   41.5100    7.5570 C.3   222  TYR222      0.0574
     63  CG        30.1920   40.9380    8.9400 C.ar  222  TYR222     -0.0198
     64  CD1       29.4460   41.5580    9.9350 C.ar  222  TYR222     -0.0009
     65  CD2       30.8680   39.7730    9.2540 C.ar  222  TYR222     -0.0009
     66  CE1       29.3950   41.0400   11.2060 C.ar  222  TYR222      0.0417
     67  CE2       30.8190   39.2490   10.5160 C.ar  222  TYR222      0.0417
     68  CZ        30.0810   39.8810   11.4910 C.ar  222  TYR222      0.1957
     69  OH        30.0300   39.3500   12.7600 O.3   222  TYR222     -0.2866
     70  N         27.9910   42.6030    5.4850 N.am  223  HIS223     -0.1973
     71  CA        27.7380   43.5760    4.4320 C.3   223  HIS223      0.1656
     72  C         27.4900   44.9340    5.0440 C.2   223  HIS223      0.2291
     73  O         26.4780   45.1360    5.7270 O.2   223  HIS223     -0.2864
     74  CB        26.5290   43.1810    3.5830 C.3   223  HIS223      0.0771
     75  CG        26.4580   43.9150    2.2780 C.ar  223  HIS223      0.0820
     76  ND1       25.7540   43.4420    1.1900 N.ar  223  HIS223     -0.2267
     77  CD2       27.0210   45.0830    1.8830 C.ar  223  HIS223      0.1154
     78  CE1       25.8880   44.2850    0.1810 C.ar  223  HIS223      0.1986
     79  NE2       26.6510   45.2900    0.5760 N.ar  223  HIS223     -0.2212
     80  N         36.9570   40.1340    1.5920 N.3   243  GLY243     -0.1225
     81  CA        35.7450   39.4790    1.1410 C.3   243  GLY243      0.1811
     82  C         34.4550   40.0880    1.6670 C.2   243  GLY243      0.2280
     83  O         33.3810   39.5800    1.3450 O.2   243  GLY243     -0.2866
     84  N         31.3220   42.6240    1.7930 N.3   245  ASN245     -0.1240
     85  CA        30.5580   43.4360    0.8590 C.3   245  ASN245      0.1653
     86  C         30.4830   44.8250    1.4540 C.2   245  ASN245      0.2266
     87  O         30.1640   44.9750    2.6290 O.2   245  ASN245     -0.2867
     88  CB        29.1410   42.8960    0.6870 C.3   245  ASN245      0.1155
     89  CG        29.1120   41.4830    0.1590 C.2   245  ASN245      0.2627
     90  OD1       30.0300   41.0430   -0.5330 O.2   245  ASN245     -0.2716
     91  ND2       28.0410   40.7600    0.4880 N.am  245  ASN245     -0.0877
     92  N         35.4460   46.0840   -4.5940 N.3   354  LYS354     -0.1245
     93  CA        35.9090   44.8390   -5.2010 C.3   354  LYS354      0.1561
     94  C         37.3990   44.6180   -4.8940 C.2   354  LYS354      0.2260
     95  O         38.0560   45.4890   -4.3210 O.2   354  LYS354     -0.2867
     96  CB        35.6910   44.8790   -6.7120 C.3   354  LYS354      0.0271
     97  CG        34.2910   45.2840   -7.1390 C.3   354  LYS354      0.0035
     98  CD        33.2370   44.3110   -6.6310 C.3   354  LYS354      0.0206
     99  CE        31.8770   44.5850   -7.2630 C.3   354  LYS354      0.1093
    100  NZ        30.7990   43.7730   -6.6390 N.3   354  LYS354     -0.1314
@<TRIPOS>BOND
     1    99   100    1
     2    99    98    1
     3    97    96    1
     4    97    98    1
     5    96    93    1
     6    93    94    1
     7    93    92    1
     8    94    95    2
     9    90    89    2
    10    89    91   am
    11    89    88    1
    12    78    79   ar
    13    78    76   ar
    14    79    77   ar
    15    88    85    1
    16    85    86    1
    17    85    84    1
    18    81    80    1
    19    81    82    1
    20    76    75   ar
    21    83    82    2
    22    86    87    2
    23     1     2    1
    24    77    75   ar
    25    75    74    1
    26     9     7   ar
    27     9    10   ar
    28     7     6   ar
    29    41    42    1
    30    41    38    1
    31    10    12   ar
    32    10     8   ar
    33     2     5    1
    34     2     3    1
    35    44    43   ar
    36     6     5    1
    37     6     8   ar
    38    12    14   ar
    39    42    43    1
    40    74    71    1
    41     4     3    2
    42    38    39    1
    43    38    37    1
    44    40    39    2
    45     8    11   ar
    46    43    45   ar
    47    39    46   am
    48    14    13   ar
    49    71    72    1
    50    71    70    1
    51    61    60    2
    52    11    13   ar
    53    72    73    2
    54    60    70   am
    55    60    59    1
    56    46    47    1
    57    32    31    1
    58    32    33    1
    59    31    30    1
    60    35    34    1
    61    58    48   am
    62    58    59    1
    63    47    48    1
    64    47    50    1
    65    48    49    2
    66    59    62    1
    67    54    52   ar
    68    54    56   ar
    69    30    27    1
    70    33    34    2
    71    52    51   ar
    72    34    36    1
    73    57    56    1
    74    56    55   ar
    75    62    63    1
    76    27    28    1
    77    27    26    1
    78    51    50    1
    79    51    53   ar
    80    18    17    2
    81    55    53   ar
    82    28    29    2
    83    26    17   am
    84    17    16    1
    85    63    65   ar
    86    63    64   ar
    87    19    16    1
    88    19    20    1
    89    65    67   ar
    90    16    15    1
    91    64    66   ar
    92    20    21   ar
    93    20    22   ar
    94    21    23   ar
    95    67    68   ar
    96    22    24   ar
    97    23    25   ar
    98    66    68   ar
    99    24    25   ar
   100    68    69    1
