@<TRIPOS>MOLECULE
tmp/3om0A03.pdb
 76 71 0 0 0
SMALL
GASTEIGER

@<TRIPOS>ATOM
      1  N          1.5340    3.5720    2.2370 N.3     1  LEU1       -0.1245
      2  CA         2.7380    3.6950    1.4260 C.3     1  LEU1        0.1561
      3  C          3.9780    3.2520    2.1890 C.2     1  LEU1        0.2260
      4  O          4.3040    3.8110    3.2350 O.2     1  LEU1       -0.2867
      5  CB         2.9290    5.1420    0.9730 C.3     1  LEU1        0.0270
      6  CG         1.9430    5.6950   -0.0560 C.3     1  LEU1        0.0019
      7  CD1        2.3850    7.0800   -0.4980 C.3     1  LEU1        0.0001
      8  CD2        1.8280    4.7720   -1.2520 C.3     1  LEU1        0.0001
      9  N          7.3430    6.7170   -0.6130 N.3     4  LEU4       -0.1245
     10  CA         6.7240    7.8830   -1.2320 C.3     4  LEU4        0.1561
     11  C          7.4760    8.0930   -2.5420 C.2     4  LEU4        0.2260
     12  O          8.5910    8.6320   -2.5570 O.2     4  LEU4       -0.2867
     13  CB         6.8830    9.0910   -0.3020 C.3     4  LEU4        0.0270
     14  CG         6.0740   10.3520   -0.6000 C.3     4  LEU4        0.0019
     15  CD1        6.1990   11.3260    0.5770 C.3     4  LEU4        0.0001
     16  CD2        6.5380   10.9890   -1.9210 C.3     4  LEU4        0.0001
     17  N          6.4440   11.2550   14.0810 N.3    38  PRO38      -0.2102
     18  CA         6.7890    9.8600   13.7980 C.3    38  PRO38       0.1504
     19  C          7.6470    9.7140   12.5420 C.2    38  PRO38       0.2576
     20  O          7.6870   10.6190   11.6950 O.2    38  PRO38      -0.2718
     21  CB         5.4240    9.2000   13.5530 C.3    38  PRO38       0.0282
     22  CG         4.4020   10.1490   14.0960 C.3    38  PRO38       0.0208
     23  CD         4.9990   11.5010   13.9090 C.3    38  PRO38       0.0893
     24  N          8.3140    8.5710   12.4200 N.am   39  ALA39      -0.1966
     25  CA         9.1120    8.2720   11.2410 C.3    39  ALA39       0.1728
     26  C          8.1890    8.2790   10.0260 C.2    39  ALA39       0.2616
     27  O          7.0290    7.8730   10.1110 O.2    39  ALA39      -0.2715
     28  CB         9.8000    6.9200   11.3870 C.3    39  ALA39       0.0334
     29  N          8.7130    8.7520    8.9030 N.am   40  LYS40      -0.1963
     30  CA         7.9570    8.8670    7.6590 C.3    40  LYS40       0.1728
     31  C          8.5350    7.9160    6.6230 C.2    40  LYS40       0.2616
     32  O          9.6890    7.5230    6.7220 O.2    40  LYS40      -0.2715
     33  CB         8.0470   10.2950    7.1150 C.3    40  LYS40       0.0311
     34  CG         7.5520   11.3810    8.0590 C.3    40  LYS40       0.0038
     35  CD         6.1170   11.1220    8.4640 C.3    40  LYS40       0.0206
     36  CE         5.4630   12.3840    8.9770 C.3    40  LYS40       0.1093
     37  NZ         6.1880   12.9190   10.1590 N.3    40  LYS40      -0.1314
     38  N          7.7300    7.5730    5.6230 N.am   41  ALA41      -0.1977
     39  CA         8.1510    6.6940    4.5350 C.3    41  ALA41       0.1597
     40  C          9.2970    7.3200    3.7470 C.2    41  ALA41       0.2287
     41  O          9.3730    8.5330    3.5860 O.2    41  ALA41      -0.2864
     42  CB         6.9910    6.4210    3.5970 C.3    41  ALA41       0.0319
     43  N          2.2240   15.4810    0.5480 N.3   293  VAL293     -0.1231
     44  CA         1.8310   14.0900    0.7740 C.3   293  VAL293      0.1692
     45  C          1.8440   13.8100    2.2530 C.2   293  VAL293      0.2591
     46  O          0.9160   13.1460    2.7620 O.2   293  VAL293     -0.2718
     47  CB         2.8020   13.1340    0.1210 C.3   293  VAL293      0.0266
     48  CG1        2.5580   11.6780    0.5860 C.3   293  VAL293      0.0020
     49  CG2        2.6240   13.1870   -1.3900 C.3   293  VAL293      0.0020
     50  N          2.8550   14.2760    2.9920 N.am  294  ARG294     -0.1980
     51  CA         2.8970   13.9510    4.4270 C.3   294  ARG294      0.1597
     52  C          1.7560   14.6530    5.1640 C.2   294  ARG294      0.2287
     53  O          1.2220   14.0880    6.1140 O.2   294  ARG294     -0.2864
     54  CB         4.2780   14.2570    5.0560 C.3   294  ARG294      0.0334
     55  CG         5.3830   13.2890    4.6030 C.3   294  ARG294      0.0492
     56  CD         6.6740   13.7910    5.1630 C.3   294  ARG294      0.2205
     57  NE         7.9060   13.0410    4.9480 N.pl3 294  ARG294     -0.0865
     58  CZ         8.1120   11.9120    4.2890 C.cat 294  ARG294      0.5346
     59  NH1        7.1490   11.2060    3.7250 N.pl3 294  ARG294      0.1354
     60  NH2        9.3730   11.4680    4.2510 N.pl3 294  ARG294      0.1354
     61  N         -1.4280   12.6900    4.4170 N.3   297  ASN297     -0.1240
     62  CA        -1.3240   11.4070    5.1100 C.3   297  ASN297      0.1653
     63  C         -1.7680   11.5350    6.5490 C.2   297  ASN297      0.2266
     64  O         -2.0310   10.5110    7.1730 O.2   297  ASN297     -0.2867
     65  CB         0.1500   10.9350    5.0380 C.3   297  ASN297      0.1155
     66  CG         0.4070    9.4940    5.5540 C.2   297  ASN297      0.2627
     67  OD1       -0.2830    8.5570    5.1600 O.2   297  ASN297     -0.2716
     68  ND2        1.4110    9.3610    6.4790 N.am  297  ASN297     -0.0877
     69  N         -3.1950    7.0380    2.2800 N.3   302  ILE302     -0.1245
     70  CA        -2.7910    7.1060    0.8770 C.3   302  ILE302      0.1561
     71  C         -2.2320    5.7830    0.3480 C.2   302  ILE302      0.2260
     72  O         -1.3190    5.1830    0.9400 O.2   302  ILE302     -0.2867
     73  CB        -1.7050    8.1500    0.6690 C.3   302  ILE302      0.0252
     74  CG1       -2.1780    9.4910    1.1910 C.3   302  ILE302      0.0019
     75  CG2       -1.3120    8.2400   -0.8150 C.3   302  ILE302      0.0019
     76  CD1       -1.0830   10.5000    1.1710 C.3   302  ILE302      0.0001
@<TRIPOS>BOND
     1    12    11    2
     2    11    10    1
     3    16    14    1
     4    49    47    1
     5     8     6    1
     6    10     9    1
     7    10    13    1
     8    75    73    1
     9    14    13    1
    10    14    15    1
    11     7     6    1
    12     6     5    1
    13    47    48    1
    14    47    44    1
    15    71    70    1
    16    71    72    2
    17    43    44    1
    18    73    70    1
    19    73    74    1
    20    44    45    1
    21    70    69    1
    22     5     2    1
    23    76    74    1
    24     2     3    1
    25     2     1    1
    26     3     4    2
    27    45    46    2
    28    45    50   am
    29    50    51    1
    30    41    40    2
    31    42    39    1
    32    59    58    1
    33    40    39    1
    34    60    58    1
    35    58    57    2
    36    61    62    1
    37    51    54    1
    38    51    52    1
    39    39    38    1
    40    55    54    1
    41    55    56    1
    42    57    56    1
    43    65    62    1
    44    65    66    1
    45    62    63    1
    46    67    66    2
    47    52    53    2
    48    66    68   am
    49    38    31   am
    50    63    64    2
    51    31    32    2
    52    31    30    1
    53    33    30    1
    54    33    34    1
    55    30    29    1
    56    34    35    1
    57    35    36    1
    58    29    26   am
    59    36    37    1
    60    26    27    2
    61    26    25    1
    62    25    28    1
    63    25    24    1
    64    20    19    2
    65    24    19   am
    66    19    18    1
    67    21    18    1
    68    21    22    1
    69    18    17    1
    70    23    17    1
    71    23    22    1
