@<TRIPOS>MOLECULE
tmp/3om1B00.pdb
 103 94 0 0 0
SMALL
GASTEIGER

@<TRIPOS>ATOM
      1  N         20.6190   17.8170   21.6600 N.3    13  GLN13      -0.1245
      2  CA        19.9060   18.9460   22.2560 C.3    13  GLN13       0.1566
      3  C         19.5570   19.9570   21.1660 C.2    13  GLN13       0.2260
      4  O         20.2830   20.0960   20.1820 O.2    13  GLN13      -0.2867
      5  CB        20.7010   19.5930   23.3940 C.3    13  GLN13       0.0367
      6  CG        22.1340   19.9420   23.0620 C.3    13  GLN13       0.0905
      7  CD        22.8350   20.6230   24.2180 C.2    13  GLN13       0.2608
      8  OE1       22.5040   21.7500   24.5830 O.2    13  GLN13      -0.2717
      9  NE2       23.8020   19.9340   24.8120 N.am   13  GLN13      -0.0878
     10  N         24.1720   19.5470   18.1230 N.3    18  ARG18      -0.1245
     11  CA        24.9520   19.1500   16.9540 C.3    18  ARG18       0.1563
     12  C         24.2220   19.4170   15.6300 C.2    18  ARG18       0.2260
     13  O         24.7560   19.1320   14.5700 O.2    18  ARG18      -0.2867
     14  CB        25.3080   17.6590   17.0430 C.3    18  ARG18       0.0307
     15  CG        26.2040   17.3150   18.2390 C.3    18  ARG18       0.0489
     16  CD        26.5360   15.8270   18.2860 C.3    18  ARG18       0.2205
     17  NE        25.3350   15.0040   18.4030 N.pl3  18  ARG18      -0.0865
     18  CZ        24.8120   14.5880   19.5530 C.cat  18  ARG18       0.5346
     19  NH1       25.3790   14.9180   20.7160 N.pl3  18  ARG18       0.1354
     20  NH2       23.7130   13.8460   19.5450 N.pl3  18  ARG18       0.1354
     21  N         24.3300    8.9810   19.5720 N.3    73  SER73      -0.1217
     22  CA        25.1900    9.1440   20.7520 C.3    73  SER73       0.1889
     23  C         24.6200    8.4620   21.9910 C.2    73  SER73       0.2288
     24  O         24.8800    8.8980   23.1230 O.2    73  SER73      -0.2866
     25  CB        25.3930   10.6350   21.0550 C.3    73  SER73       0.2089
     26  OG        25.8290   11.3430   19.9000 O.3    73  SER73      -0.2183
     27  N         36.9770    7.8150   28.4450 N.3   140  ALA140     -0.1231
     28  CA        35.8530    8.3930   29.1640 C.3   140  ALA140      0.1694
     29  C         35.1560    7.3050   29.9770 C.2   140  ALA140      0.2591
     30  O         34.7620    7.5240   31.1230 O.2   140  ALA140     -0.2718
     31  CB        34.8780    9.0430   28.1910 C.3   140  ALA140      0.0304
     32  N         35.0050    6.1230   29.3860 N.am  141  LYS141     -0.1980
     33  CA        34.4130    4.9970   30.1100 C.3   141  LYS141      0.1596
     34  C         35.0420    3.6690   29.6920 C.2   141  LYS141      0.2287
     35  O         35.6750    3.5790   28.6460 O.2   141  LYS141     -0.2864
     36  CB        32.8920    4.9800   29.9280 C.3   141  LYS141      0.0298
     37  CG        32.4060    5.4430   28.5660 C.3   141  LYS141      0.0038
     38  CD        30.8910    5.5800   28.5490 C.3   141  LYS141      0.0206
     39  CE        30.3480    5.6520   27.1300 C.3   141  LYS141      0.1093
     40  NZ        28.8690    5.4510   27.0860 N.3   141  LYS141     -0.1314
     41  N         38.2970    7.8670   33.1910 N.3   167  LEU167     -0.1231
     42  CA        37.8270    9.0500   33.9030 C.3   167  LEU167      0.1693
     43  C         36.6950    8.6430   34.8370 C.2   167  LEU167      0.2592
     44  O         36.6810    9.0060   36.0170 O.2   167  LEU167     -0.2718
     45  CB        37.3190   10.1080   32.9240 C.3   167  LEU167      0.0284
     46  CG        38.3670   10.8300   32.0850 C.3   167  LEU167      0.0019
     47  CD1       37.6850   11.6590   31.0110 C.3   167  LEU167      0.0001
     48  CD2       39.2520   11.7020   32.9650 C.3   167  LEU167      0.0001
     49  N         35.7520    7.8850   34.2830 N.am  168  ASP168     -0.1974
     50  CA        34.5780    7.4050   35.0070 C.3   168  ASP168      0.1709
     51  C         34.3010    8.2130   36.2700 C.2   168  ASP168      0.2293
     52  O         33.6520    9.2570   36.2150 O.2   168  ASP168     -0.2864
     53  CB        34.7330    5.9200   35.3490 C.3   168  ASP168      0.1436
     54  CG        34.7380    5.0340   34.1120 C.2   168  ASP168      0.3671
     55  OD1       35.3940    5.4060   33.1160 O.co2 168  ASP168     -0.2456
     56  OD2       34.0790    3.9720   34.1290 O.co2 168  ASP168     -0.2456
     57  N         34.1340   11.0710   37.9700 N.3   169  SER169     -0.1202
     58  CA        34.9370   12.2530   38.2580 C.3   169  SER169      0.2020
     59  C         34.9480   13.1920   37.0580 C.2   169  SER169      0.2618
     60  O         34.7450   12.7610   35.9230 O.2   169  SER169     -0.2717
     61  CB        36.3670   11.8510   38.6190 C.3   169  SER169      0.2103
     62  OG        37.0440   11.3030   37.5010 O.3   169  SER169     -0.2182
     63  N         35.1950   14.4730   37.3150 N.am  170  ARG170     -0.1979
     64  CA        35.1700   15.4840   36.2650 C.3   170  ARG170      0.1597
     65  C         36.4960   16.2330   36.1610 C.2   170  ARG170      0.2287
     66  O         36.5530   17.3280   35.5990 O.2   170  ARG170     -0.2864
     67  CB        34.0360   16.4800   36.5210 C.3   170  ARG170      0.0334
     68  CG        32.6270   15.8580   36.4570 C.3   170  ARG170      0.0492
     69  CD        32.2550   15.7030   35.0170 C.3   170  ARG170      0.2205
     70  NE        30.9450   15.1270   34.7250 N.pl3 170  ARG170     -0.0865
     71  CZ        30.6210   13.8460   34.9160 C.cat 170  ARG170      0.5346
     72  NH1       31.4920   12.9480   35.3980 N.pl3 170  ARG170      0.1354
     73  NH2       29.3840   13.4660   34.6010 N.pl3 170  ARG170      0.1354
     74  N         34.3720   11.7790   23.6820 N.3   192  ASN192     -0.1240
     75  CA        33.6800   12.6820   22.7700 C.3   192  ASN192      0.1653
     76  C         34.4080   14.0230   22.7260 C.2   192  ASN192      0.2266
     77  O         35.4160   14.2120   23.4040 O.2   192  ASN192     -0.2867
     78  CB        32.2060   12.8540   23.1550 C.3   192  ASN192      0.1155
     79  CG        32.0180   13.3730   24.5710 C.2   192  ASN192      0.2627
     80  OD1       32.8310   14.1500   25.0780 O.2   192  ASN192     -0.2716
     81  ND2       30.9270   12.9410   25.2130 N.am  192  ASN192     -0.0877
     82  N         33.8760   17.0520   23.7940 N.3   194  SER194     -0.1202
     83  CA        33.9770   17.9440   24.9520 C.3   194  SER194      0.2020
     84  C         34.8950   17.3980   26.0430 C.2   194  SER194      0.2618
     85  O         35.6070   18.1670   26.6900 O.2   194  SER194     -0.2717
     86  CB        32.5920   18.2600   25.5260 C.3   194  SER194      0.2103
     87  OG        31.9850   17.1140   26.0890 O.3   194  SER194     -0.2182
     88  N         34.8780   16.0840   26.2540 N.am  195  ILE195     -0.1979
     89  CA        35.7840   15.4670   27.2170 C.3   195  ILE195      0.1595
     90  C         37.2080   15.4670   26.6660 C.2   195  ILE195      0.2287
     91  O         38.1570   15.6580   27.4200 O.2   195  ILE195     -0.2864
     92  CB        35.3580   14.0270   27.5810 C.3   195  ILE195      0.0276
     93  CG1       34.0760   14.0470   28.4120 C.3   195  ILE195      0.0022
     94  CG2       36.4650   13.3050   28.3410 C.3   195  ILE195      0.0022
     95  CD1       34.1710   14.9110   29.6630 C.3   195  ILE195      0.0001
     96  N         38.4750   18.7400   27.3590 N.3   198  LEU198     -0.1245
     97  CA        38.7490   18.8820   28.7870 C.3   198  LEU198      0.1561
     98  C         40.0820   18.2390   29.1680 C.2   198  LEU198      0.2260
     99  O         40.8570   18.8100   29.9370 O.2   198  LEU198     -0.2867
    100  CB        37.6190   18.2710   29.6180 C.3   198  LEU198      0.0270
    101  CG        37.8810   18.2400   31.1290 C.3   198  LEU198      0.0019
    102  CD1       37.9770   19.6540   31.6770 C.3   198  LEU198      0.0001
    103  CD2       36.8080   17.4560   31.8680 C.3   198  LEU198      0.0001
@<TRIPOS>BOND
     1    13    12    2
     2    12    11    1
     3    11    14    1
     4    11    10    1
     5    14    15    1
     6    15    16    1
     7    16    17    1
     8    17    18    2
     9    20    18    1
    10    18    19    1
    11    21    22    1
    12    26    25    1
    13     4     3    2
    14    22    25    1
    15    22    23    1
    16     3     2    1
    17     1     2    1
    18    23    24    2
    19     2     5    1
    20    76    75    1
    21    76    77    2
    22    75    78    1
    23    75    74    1
    24     6     5    1
    25     6     7    1
    26    78    79    1
    27    82    83    1
    28     7     8    2
    29     7     9   am
    30    79    80    2
    31    79    81   am
    32    83    86    1
    33    83    84    1
    34    86    87    1
    35    84    88   am
    36    84    85    2
    37    88    89    1
    38    90    89    1
    39    90    91    2
    40    40    39    1
    41    39    38    1
    42    89    92    1
    43    96    97    1
    44    92    94    1
    45    92    93    1
    46    31    28    1
    47    93    95    1
    48    27    28    1
    49    38    37    1
    50    37    36    1
    51    35    34    2
    52    97    98    1
    53    97   100    1
    54    28    29    1
    55    98    99    2
    56    32    29   am
    57    32    33    1
    58   100   101    1
    59    34    33    1
    60    36    33    1
    61    29    30    2
    62    47    46    1
    63   101   102    1
    64   101   103    1
    65    46    45    1
    66    46    48    1
    67    45    42    1
    68    55    54   ar
    69    41    42    1
    70    42    43    1
    71    54    56   ar
    72    54    53    1
    73    49    43   am
    74    49    50    1
    75    73    71    1
    76    70    71    2
    77    70    69    1
    78    43    44    2
    79    71    72    1
    80    50    53    1
    81    50    51    1
    82    69    68    1
    83    66    65    2
    84    60    59    2
    85    65    64    1
    86    52    51    2
    87    64    67    1
    88    64    63    1
    89    68    67    1
    90    59    63   am
    91    59    58    1
    92    62    61    1
    93    57    58    1
    94    58    61    1
