@<TRIPOS>MOLECULE
tmp/3om2A00.pdb
 77 76 0 0 0
SMALL
GASTEIGER

@<TRIPOS>ATOM
      1  N         19.7050    8.6740   37.8430 N.3   130  PRO130     -0.2102
      2  CA        19.2230    9.8470   37.0890 C.3   130  PRO130      0.1504
      3  C         18.1090    9.5550   36.0830 C.2   130  PRO130      0.2575
      4  O         17.5400   10.5070   35.5500 O.2   130  PRO130     -0.2718
      5  CB        20.4790   10.3180   36.3110 C.3   130  PRO130      0.0282
      6  CG        21.3490    9.1040   36.2200 C.3   130  PRO130      0.0208
      7  CD        21.0820    8.3110   37.4700 C.3   130  PRO130      0.0893
      8  N         17.8240    8.2830   35.7740 N.am  131  HIS131     -0.1976
      9  CA        16.8470    7.9870   34.7070 C.3   131  HIS131      0.1656
     10  C         15.6630    7.1070   35.0690 C.2   131  HIS131      0.2291
     11  O         14.5800    7.2740   34.5020 O.2   131  HIS131     -0.2864
     12  CB        17.5330    7.4170   33.4620 C.3   131  HIS131      0.0771
     13  CG        18.7520    8.1830   33.0570 C.ar  131  HIS131      0.0820
     14  ND1       18.6950    9.4960   32.6310 N.ar  131  HIS131     -0.2267
     15  CD2       20.0620    7.8370   33.0600 C.ar  131  HIS131      0.1154
     16  CE1       19.9190    9.9240   32.3750 C.ar  131  HIS131      0.1986
     17  NE2       20.7690    8.9420   32.6410 N.ar  131  HIS131     -0.2212
     18  N         21.0230    2.6140   35.8150 N.3   193  SER193     -0.1202
     19  CA        21.3370    3.0340   34.4600 C.3   193  SER193      0.2020
     20  C         22.8190    2.8420   34.2520 C.2   193  SER193      0.2619
     21  O         23.5990    3.0570   35.1680 O.2   193  SER193     -0.2717
     22  CB        20.9960    4.5210   34.2590 C.3   193  SER193      0.2103
     23  OG        19.6220    4.7650   34.4640 O.3   193  SER193     -0.2182
     24  N         23.2100    2.4510   33.0430 N.am  194  ILE194     -0.1965
     25  CA        24.6270    2.4050   32.6740 C.3   194  ILE194      0.1727
     26  C         25.0280    3.5080   31.6880 C.2   194  ILE194      0.2616
     27  O         26.0460    4.1760   31.8790 O.2   194  ILE194     -0.2715
     28  CB        25.0260    1.0460   32.0660 C.3   194  ILE194      0.0290
     29  CG1       24.9320   -0.0410   33.1300 C.3   194  ILE194      0.0022
     30  CG2       26.4440    1.1260   31.4680 C.3   194  ILE194      0.0023
     31  CD1       25.1160   -1.4190   32.5610 C.3   194  ILE194      0.0001
     32  N         24.2520    3.6680   30.6100 N.am  195  PHE195     -0.1960
     33  CA        24.6740    4.5690   29.5610 C.3   195  PHE195      0.1771
     34  C         23.4950    5.0510   28.7370 C.2   195  PHE195      0.2620
     35  O         22.6310    4.2490   28.3550 O.2   195  PHE195     -0.2715
     36  CB        25.7400    3.8850   28.6860 C.3   195  PHE195      0.0574
     37  CG        26.2990    4.7570   27.5850 C.ar  195  PHE195     -0.0200
     38  CD1       27.0200    5.9160   27.8820 C.ar  195  PHE195     -0.0042
     39  CD2       26.1250    4.4060   26.2430 C.ar  195  PHE195     -0.0042
     40  CE1       27.5680    6.7150   26.8390 C.ar  195  PHE195     -0.0003
     41  CE2       26.6530    5.2050   25.1970 C.ar  195  PHE195     -0.0003
     42  CZ        27.3740    6.3540   25.4970 C.ar  195  PHE195     -0.0000
     43  N         23.4470    6.3640   28.4850 N.am  196  ASP196     -0.1957
     44  CA        22.3620    6.9430   27.6660 C.3   196  ASP196      0.1840
     45  C         22.9050    7.8500   26.5420 C.2   196  ASP196      0.2623
     46  O         22.2020    8.7320   26.0440 O.2   196  ASP196     -0.2715
     47  CB        21.3730    7.7130   28.5600 C.3   196  ASP196      0.1450
     48  CG        22.0060    8.9430   29.1940 C.2   196  ASP196      0.3671
     49  OD1       23.2460    8.9720   29.3100 O.co2 196  ASP196     -0.2456
     50  OD2       21.2750    9.9080   29.5560 O.co2 196  ASP196     -0.2456
     51  N         24.1370    7.6090   26.1080 N.am  197  GLY197     -0.1940
     52  CA        24.7100    8.3400   24.9750 C.3   197  GLY197      0.2014
     53  C         25.5600    9.5370   25.4160 C.2   197  GLY197      0.2638
     54  O         25.3480   10.1230   26.4720 O.2   197  GLY197     -0.2714
     55  N         26.4890    9.9420   24.5760 N.am  198  ASP198     -0.1971
     56  CA        27.3900   11.0320   24.9390 C.3   198  ASP198      0.1709
     57  C         27.2730   12.2570   24.0400 C.2   198  ASP198      0.2293
     58  O         27.6040   13.3700   24.4710 O.2   198  ASP198     -0.2864
     59  CB        28.8280   10.5240   24.9100 C.3   198  ASP198      0.1436
     60  CG        29.2510   10.1250   23.5070 C.2   198  ASP198      0.3671
     61  OD1       28.6490    9.1680   22.9790 O.co2 198  ASP198     -0.2456
     62  OD2       30.1470   10.7930   22.9220 O.co2 198  ASP198     -0.2456
     63  N         29.8110    1.8840   33.6200 N.3   301  LEU301     -0.1245
     64  CA        30.5640    2.2730   32.4180 C.3   301  LEU301      0.1561
     65  C         32.0220    2.5340   32.7590 C.2   301  LEU301      0.2260
     66  O         32.3120    3.2130   33.7440 O.2   301  LEU301     -0.2867
     67  CB        29.9400    3.5130   31.7640 C.3   301  LEU301      0.0270
     68  CG        30.6930    3.9000   30.4700 C.3   301  LEU301      0.0019
     69  CD1       29.7610    4.0550   29.2740 C.3   301  LEU301      0.0001
     70  CD2       31.5340    5.1300   30.7140 C.3   301  LEU301      0.0001
     71  N         33.6720    4.6540   26.8380 N.3   304  VAL304     -0.1245
     72  CA        32.7910    4.7750   25.6790 C.3   304  VAL304      0.1561
     73  C         33.7220    4.5760   24.4860 C.2   304  VAL304      0.2260
     74  O         34.7010    5.3240   24.3230 O.2   304  VAL304     -0.2867
     75  CB        32.1200    6.1730   25.5640 C.3   304  VAL304      0.0252
     76  CG1       31.1380    6.2050   24.3270 C.3   304  VAL304      0.0019
     77  CG2       31.3640    6.5460   26.8650 C.3   304  VAL304      0.0019
@<TRIPOS>BOND
     1    62    60   ar
     2    61    60   ar
     3    60    59    1
     4    57    58    2
     5    57    56    1
     6    74    73    2
     7    76    75    1
     8    73    72    1
     9    55    56    1
    10    55    53   am
    11    59    56    1
    12    52    53    1
    13    52    51    1
    14    41    42   ar
    15    41    39   ar
    16    53    54    2
    17    42    40   ar
    18    75    72    1
    19    75    77    1
    20    72    71    1
    21    46    45    2
    22    51    45   am
    23    39    37   ar
    24    45    44    1
    25    40    38   ar
    26    37    38   ar
    27    37    36    1
    28    44    43    1
    29    44    47    1
    30    35    34    2
    31    43    34   am
    32    47    48    1
    33    36    33    1
    34    34    33    1
    35    48    49   ar
    36    48    50   ar
    37    69    68    1
    38    33    32    1
    39    68    70    1
    40    68    67    1
    41    32    26   am
    42    30    28    1
    43    26    27    2
    44    26    25    1
    45    67    64    1
    46    28    25    1
    47    28    29    1
    48    16    14   ar
    49    16    17   ar
    50    64    65    1
    51    64    63    1
    52    31    29    1
    53    14    13   ar
    54    17    15   ar
    55    25    24    1
    56    65    66    2
    57    24    20   am
    58    13    15   ar
    59    13    12    1
    60    12     9    1
    61    20    19    1
    62    20    21    2
    63    22    19    1
    64    22    23    1
    65    19    18    1
    66    11    10    2
    67     9    10    1
    68     9     8    1
    69     4     3    2
    70     8     3   am
    71     3     2    1
    72     6     5    1
    73     6     7    1
    74     5     2    1
    75     2     1    1
    76     7     1    1
