@<TRIPOS>MOLECULE
tmp/3om3C01.pdb
 92 88 0 0 0
SMALL
GASTEIGER

@<TRIPOS>ATOM
      1  N         31.6350  -48.5310   46.1170 N.3     1  TRP1       -0.1241
      2  CA        32.5570  -48.1680   47.2360 C.3     1  TRP1        0.1605
      3  C         32.6770  -46.6450   47.4440 C.2     1  TRP1        0.2264
      4  O         32.6180  -46.1660   48.5840 O.2     1  TRP1       -0.2867
      5  CB        33.9380  -48.8140   47.0360 C.3     1  TRP1        0.0550
      6  CG        33.9860  -50.2950   47.1600 C.ar    1  TRP1        0.0003
      7  CD1       32.9420  -51.1640   47.2820 C.ar    1  TRP1        0.0946
      8  CD2       35.1370  -51.1020   47.2350 C.ar    1  TRP1        0.0152
      9  NE1       33.4020  -52.4600   47.3730 N.ar    1  TRP1       -0.2442
     10  CE2       34.7520  -52.4370   47.3720 C.ar    1  TRP1        0.0810
     11  CE3       36.4930  -50.7600   47.2690 C.ar    1  TRP1        0.0012
     12  CZ2       35.6620  -53.4580   47.4600 C.ar    1  TRP1        0.0191
     13  CZ3       37.3870  -51.8020   47.3540 C.ar    1  TRP1        0.0001
     14  CH2       36.9790  -53.1040   47.4830 C.ar    1  TRP1        0.0015
     15  N         33.1530  -48.9290   54.8250 N.3     9  ASP9       -0.1239
     16  CA        33.6240  -48.6320   53.4740 C.3     9  ASP9        0.1674
     17  C         34.3970  -47.3210   53.4230 C.2     9  ASP9        0.2266
     18  O         35.3850  -47.2100   52.6970 O.2     9  ASP9       -0.2867
     19  CB        32.4500  -48.5770   52.4960 C.3     9  ASP9        0.1410
     20  CG        31.6070  -49.8400   52.5160 C.2     9  ASP9        0.3668
     21  OD1       32.1730  -50.9520   52.4000 O.co2   9  ASP9       -0.2456
     22  OD2       30.3700  -49.7110   52.6460 O.co2   9  ASP9       -0.2456
     23  N         37.7780  -47.8160   54.8490 N.3    12  VAL12      -0.1245
     24  CA        38.5900  -48.5530   53.8790 C.3    12  VAL12       0.1561
     25  C         39.1120  -47.6250   52.7780 C.2    12  VAL12       0.2260
     26  O         40.2240  -47.8170   52.2670 O.2    12  VAL12      -0.2867
     27  CB        37.8230  -49.7760   53.2900 C.3    12  VAL12       0.0252
     28  CG1       38.4840  -50.2970   52.0140 C.3    12  VAL12       0.0019
     29  CG2       37.7300  -50.8920   54.3250 C.3    12  VAL12       0.0019
     30  N         43.2810  -46.7890   51.9710 N.3    16  PHE16      -0.1241
     31  CA        43.8950  -46.9200   50.6440 C.3    16  PHE16       0.1605
     32  C         44.3860  -45.5870   50.0710 C.2    16  PHE16       0.2264
     33  O         45.4530  -45.5360   49.4540 O.2    16  PHE16      -0.2867
     34  CB        42.9400  -47.6000   49.6570 C.3    16  PHE16       0.0534
     35  CG        42.9380  -49.0960   49.7500 C.ar   16  PHE16      -0.0203
     36  CD1       44.0710  -49.8300   49.3950 C.ar   16  PHE16      -0.0042
     37  CD2       41.7990  -49.7770   50.1840 C.ar   16  PHE16      -0.0042
     38  CE1       44.0780  -51.2200   49.4800 C.ar   16  PHE16      -0.0003
     39  CE2       41.7890  -51.1680   50.2760 C.ar   16  PHE16      -0.0003
     40  CZ        42.9310  -51.8950   49.9220 C.ar   16  PHE16      -0.0000
     41  N         36.4070  -47.0430   60.7420 N.3   103  TYR103     -0.1241
     42  CA        36.1350  -48.4750   60.6940 C.3   103  TYR103      0.1605
     43  C         35.8260  -49.0870   62.0660 C.2   103  TYR103      0.2264
     44  O         34.8320  -49.8030   62.2140 O.2   103  TYR103     -0.2867
     45  CB        37.2810  -49.2380   60.0240 C.3   103  TYR103      0.0534
     46  CG        36.8750  -50.6000   59.4860 C.ar  103  TYR103     -0.0201
     47  CD1       36.5710  -51.6580   60.3500 C.ar  103  TYR103     -0.0009
     48  CD2       36.7930  -50.8310   58.1130 C.ar  103  TYR103     -0.0009
     49  CE1       36.1970  -52.9060   59.8620 C.ar  103  TYR103      0.0417
     50  CE2       36.4220  -52.0790   57.6120 C.ar  103  TYR103      0.0417
     51  CZ        36.1240  -53.1120   58.4940 C.ar  103  TYR103      0.1957
     52  OH        35.7520  -54.3460   58.0100 O.3   103  TYR103     -0.2866
     53  N         39.0410  -57.0670   58.1140 N.3   424  MET424     -0.1230
     54  CA        38.5010  -56.1460   57.1100 C.3   424  MET424      0.1702
     55  C         38.2810  -56.8060   55.7410 C.2   424  MET424      0.2593
     56  O         37.4150  -56.3770   54.9720 O.2   424  MET424     -0.2718
     57  CB        39.4280  -54.9330   56.9340 C.3   424  MET424      0.0401
     58  CG        39.6280  -54.0660   58.1770 C.3   424  MET424      0.0596
     59  SD        40.7430  -52.6560   57.9160 S.3   424  MET424     -0.1393
     60  CE        42.2810  -53.4580   57.4540 C.3   424  MET424      0.0692
     61  N         39.0660  -57.8400   55.4470 N.am  425  SER425     -0.1952
     62  CA        39.0850  -58.4400   54.1140 C.3   425  SER425      0.1924
     63  C         38.6360  -59.9070   54.0260 C.2   425  SER425      0.2314
     64  O         38.2370  -60.3660   52.9500 O.2   425  SER425     -0.2863
     65  CB        40.4870  -58.3220   53.5150 C.3   425  SER425      0.2116
     66  OG        41.4220  -59.1110   54.2370 O.3   425  SER425     -0.2180
     67  N         45.2380  -59.6190   49.5870 N.3   500  LEU500     -0.1245
     68  CA        43.8820  -59.3820   49.0940 C.3   500  LEU500      0.1561
     69  C         43.5590  -60.1440   47.7940 C.2   500  LEU500      0.2260
     70  O         42.4780  -59.9830   47.2270 O.2   500  LEU500     -0.2867
     71  CB        43.6350  -57.8760   48.9260 C.3   500  LEU500      0.0270
     72  CG        43.8850  -56.9510   50.1290 C.3   500  LEU500      0.0019
     73  CD1       43.9060  -55.4830   49.7040 C.3   500  LEU500      0.0001
     74  CD2       42.8700  -57.1640   51.2450 C.3   500  LEU500      0.0001
     75  N         42.0810  -67.6770   53.0660 N.3   505  ARG505     -0.1245
     76  CA        40.7870  -67.1630   53.5260 C.3   505  ARG505      0.1563
     77  C         40.6660  -67.3080   55.0400 C.2   505  ARG505      0.2260
     78  O         41.3280  -68.1560   55.6440 O.2   505  ARG505     -0.2867
     79  CB        39.6260  -67.8630   52.8090 C.3   505  ARG505      0.0307
     80  CG        39.6050  -67.5870   51.3080 C.3   505  ARG505      0.0489
     81  CD        39.4120  -66.1230   50.9270 C.3   505  ARG505      0.2205
     82  NE        38.1930  -65.5910   51.5550 N.pl3 505  ARG505     -0.0865
     83  CZ        36.9890  -65.7150   51.0660 C.cat 505  ARG505      0.5346
     84  NH1       36.7780  -66.2870   49.8850 N.pl3 505  ARG505      0.1354
     85  NH2       35.9360  -65.2750   51.7160 N.pl3 505  ARG505      0.1354
     86  N         34.8190  -60.7400   56.4830 N.3   526  PRO526     -0.2116
     87  CA        34.4560  -59.4150   57.0060 C.3   526  PRO526      0.1372
     88  C         33.0720  -59.3760   57.6660 C.2   526  PRO526      0.2244
     89  O         32.2810  -60.3010   57.4710 O.2   526  PRO526     -0.2868
     90  CB        34.4530  -58.5280   55.7480 C.3   526  PRO526      0.0268
     91  CG        34.8920  -59.4140   54.6010 C.3   526  PRO526      0.0207
     92  CD        34.6150  -60.8060   55.0270 C.3   526  PRO526      0.0892
@<TRIPOS>BOND
     1     1     2    1
     2     5     6    1
     3     5     2    1
     4     6     8   ar
     5     6     7   ar
     6    70    69    2
     7     8    11   ar
     8     8    10   ar
     9     2     3    1
    10    11    13   ar
    11     7     9   ar
    12    13    14   ar
    13    10     9   ar
    14    10    12   ar
    15     3     4    2
    16    12    14   ar
    17    69    68    1
    18    71    68    1
    19    71    72    1
    20    68    67    1
    21    36    38   ar
    22    36    35   ar
    23    33    32    2
    24    38    40   ar
    25    34    35    1
    26    34    31    1
    27    73    72    1
    28    35    37   ar
    29    84    83    1
    30    40    39   ar
    31    32    31    1
    32    72    74    1
    33    37    39   ar
    34    31    30    1
    35    81    80    1
    36    81    82    1
    37    83    82    2
    38    83    85    1
    39    80    79    1
    40    28    27    1
    41    26    25    2
    42    21    20   ar
    43    19    20    1
    44    19    16    1
    45    20    22   ar
    46    18    17    2
    47    25    24    1
    48    79    76    1
    49    64    63    2
    50    75    76    1
    51    27    24    1
    52    27    29    1
    53    17    16    1
    54    16    15    1
    55    65    62    1
    56    65    66    1
    57    76    77    1
    58    24    23    1
    59    63    62    1
    60    62    61    1
    61    91    92    1
    62    91    90    1
    63    56    55    2
    64    92    86    1
    65    77    78    2
    66    61    55   am
    67    55    54    1
    68    90    87    1
    69    86    87    1
    70    57    54    1
    71    57    58    1
    72    87    88    1
    73    54    53    1
    74    60    59    1
    75    89    88    2
    76    50    48   ar
    77    50    51   ar
    78    59    58    1
    79    52    51    1
    80    48    46   ar
    81    51    49   ar
    82    46    45    1
    83    46    47   ar
    84    49    47   ar
    85    45    42    1
    86    42    41    1
    87    42    43    1
    88    43    44    2
