@<TRIPOS>MOLECULE
tmp/3om4C00.pdb
 132 127 0 0 0
SMALL
GASTEIGER

@<TRIPOS>ATOM
      1  N         11.1490   17.9870  -30.9420 N.3    61  TRP61      -0.1227
      2  CA        12.5330   18.0060  -31.4080 C.3    61  TRP61       0.1737
      3  C         13.3290   19.1780  -30.8150 C.2    61  TRP61       0.2595
      4  O         13.3190   19.3610  -29.5910 O.2    61  TRP61      -0.2718
      5  CB        12.5750   17.9870  -32.9380 C.3    61  TRP61       0.0564
      6  CG        11.7330   16.8890  -33.5250 C.ar   61  TRP61       0.0003
      7  CD1       11.9080   15.5450  -33.3600 C.ar   61  TRP61       0.0946
      8  CD2       10.5850   17.0430  -34.3660 C.ar   61  TRP61       0.0152
      9  NE1       10.9420   14.8510  -34.0450 N.ar   61  TRP61      -0.2442
     10  CE2       10.1170   15.7450  -34.6760 C.ar   61  TRP61       0.0810
     11  CE3        9.9080   18.1510  -34.8950 C.ar   61  TRP61       0.0012
     12  CZ2        9.0030   15.5230  -35.4900 C.ar   61  TRP61       0.0191
     13  CZ3        8.8000   17.9300  -35.7080 C.ar   61  TRP61       0.0001
     14  CH2        8.3590   16.6240  -35.9950 C.ar   61  TRP61       0.0015
     15  N         14.0170   19.9500  -31.6620 N.am   62  ASP62      -0.1974
     16  CA        14.8890   21.0440  -31.1970 C.3    62  ASP62       0.1709
     17  C         14.1850   21.9100  -30.1610 C.2    62  ASP62       0.2293
     18  O         13.0670   22.3740  -30.3910 O.2    62  ASP62      -0.2864
     19  CB        15.3360   21.9550  -32.3490 C.3    62  ASP62       0.1436
     20  CG        15.9330   21.1970  -33.5200 C.2    62  ASP62       0.3671
     21  OD1       15.3090   20.2370  -34.0080 O.co2  62  ASP62      -0.2456
     22  OD2       17.0260   21.5940  -33.9820 O.co2  62  ASP62      -0.2456
     23  N         10.3870   22.8280  -31.1780 N.3    85  LEU85      -0.1245
     24  CA         9.7780   22.4070  -32.4290 C.3    85  LEU85       0.1561
     25  C          9.0600   21.0870  -32.1930 C.2    85  LEU85       0.2260
     26  O          9.5830   20.1970  -31.5210 O.2    85  LEU85      -0.2867
     27  CB        10.8270   22.2410  -33.5330 C.3    85  LEU85       0.0270
     28  CG        11.7900   23.3900  -33.8540 C.3    85  LEU85       0.0019
     29  CD1       12.6960   22.9770  -34.9960 C.3    85  LEU85       0.0001
     30  CD2       11.0510   24.6810  -34.1990 C.3    85  LEU85       0.0001
     31  N          6.3810   21.5780  -39.0880 N.3    95  THR95      -0.1218
     32  CA         6.8170   21.7770  -37.7100 C.3    95  THR95       0.1862
     33  C          6.5720   23.2120  -37.2600 C.2    95  THR95       0.2287
     34  O          6.6680   24.1560  -38.0510 O.2    95  THR95      -0.2866
     35  CB         8.2920   21.3220  -37.4540 C.3    95  THR95       0.1770
     36  OG1        9.1460   22.4580  -37.2590 O.3    95  THR95      -0.2211
     37  CG2        8.8220   20.4410  -38.5920 C.3    95  THR95       0.0375
     38  N         11.3010   26.9400  -38.0090 N.3   139  TRP139     -0.1227
     39  CA        12.5060   26.2550  -37.5450 C.3   139  TRP139      0.1737
     40  C         13.1470   26.9640  -36.3420 C.2   139  TRP139      0.2596
     41  O         12.6110   27.9610  -35.8500 O.2   139  TRP139     -0.2718
     42  CB        13.4920   26.0230  -38.6980 C.3   139  TRP139      0.0564
     43  CG        13.0290   24.9830  -39.7050 C.ar  139  TRP139      0.0003
     44  CD1       11.8790   24.2380  -39.6580 C.ar  139  TRP139      0.0946
     45  CD2       13.7340   24.5530  -40.8780 C.ar  139  TRP139      0.0152
     46  NE1       11.8160   23.3930  -40.7420 N.ar  139  TRP139     -0.2442
     47  CE2       12.9430   23.5600  -41.5020 C.ar  139  TRP139      0.0810
     48  CE3       14.9520   24.9190  -41.4710 C.ar  139  TRP139      0.0012
     49  CZ2       13.3300   22.9280  -42.6900 C.ar  139  TRP139      0.0191
     50  CZ3       15.3380   24.2870  -42.6510 C.ar  139  TRP139      0.0001
     51  CH2       14.5280   23.3000  -43.2440 C.ar  139  TRP139      0.0015
     52  N         14.2820   26.4390  -35.8760 N.am  140  SER140     -0.1952
     53  CA        14.8270   26.7730  -34.5510 C.3   140  SER140      0.1924
     54  C         15.3560   28.1870  -34.3840 C.2   140  SER140      0.2314
     55  O         15.6170   28.8920  -35.3580 O.2   140  SER140     -0.2863
     56  CB        15.9280   25.7850  -34.1600 C.3   140  SER140      0.2116
     57  OG        15.4570   24.4540  -34.2300 O.3   140  SER140     -0.2180
     58  N         19.8160   30.0620  -40.6500 N.3   223  ARG223     -0.1245
     59  CA        18.8860   29.6160  -39.6170 C.3   223  ARG223      0.1563
     60  C         19.4790   29.5320  -38.2180 C.2   223  ARG223      0.2260
     61  O         20.6650   29.7950  -38.0180 O.2   223  ARG223     -0.2867
     62  CB        18.2980   28.2540  -40.0120 C.3   223  ARG223      0.0307
     63  CG        19.2900   27.0950  -40.0660 C.3   223  ARG223      0.0489
     64  CD        18.5250   25.7910  -40.2630 C.3   223  ARG223      0.2205
     65  NE        19.3850   24.6240  -40.4680 N.pl3 223  ARG223     -0.0865
     66  CZ        19.6070   24.0490  -41.6470 C.cat 223  ARG223      0.5346
     67  NH1       19.0450   24.5320  -42.7480 N.pl3 223  ARG223      0.1354
     68  NH2       20.3920   22.9830  -41.7270 N.pl3 223  ARG223      0.1354
     69  N         27.1850   22.1430  -43.3170 N.3   317  GLU317     -0.1245
     70  CA        26.1980   22.2480  -42.2350 C.3   317  GLU317      0.1567
     71  C         26.7820   22.2600  -40.8240 C.2   317  GLU317      0.2260
     72  O         27.0720   21.2090  -40.2450 O.2   317  GLU317     -0.2867
     73  CB        25.1420   21.1350  -42.3290 C.3   317  GLU317      0.0388
     74  CG        24.4020   21.0810  -43.6460 C.3   317  GLU317      0.1160
     75  CD        22.8920   21.0950  -43.4790 C.2   317  GLU317      0.3649
     76  OE1       22.3730   20.7340  -42.3980 O.co2 317  GLU317     -0.2457
     77  OE2       22.2130   21.4760  -44.4470 O.co2 317  GLU317     -0.2457
     78  N         25.3450   23.4560  -37.3940 N.3   319  GLU319     -0.1245
     79  CA        24.0010   23.8010  -36.9490 C.3   319  GLU319      0.1567
     80  C         23.9250   24.2550  -35.4970 C.2   319  GLU319      0.2260
     81  O         24.8960   24.1510  -34.7470 O.2   319  GLU319     -0.2867
     82  CB        23.0630   22.6170  -37.1740 C.3   319  GLU319      0.0388
     83  CG        23.1390   22.0320  -38.5730 C.3   319  GLU319      0.1160
     84  CD        22.1510   20.9160  -38.7770 C.2   319  GLU319      0.3649
     85  OE1       22.5860   19.7470  -38.8500 O.co2 319  GLU319     -0.2457
     86  OE2       20.9410   21.2060  -38.8460 O.co2 319  GLU319     -0.2457
     87  N         27.0280   17.0130  -38.1540 N.3   337  ARG337     -0.1245
     88  CA        26.8160   15.6120  -38.4950 C.3   337  ARG337      0.1563
     89  C         27.9620   15.0700  -39.3270 C.2   337  ARG337      0.2260
     90  O         28.3420   15.6720  -40.3290 O.2   337  ARG337     -0.2867
     91  CB        25.5150   15.4490  -39.2750 C.3   337  ARG337      0.0307
     92  CG        24.2870   15.3340  -38.3950 C.3   337  ARG337      0.0489
     93  CD        23.0120   15.3870  -39.2140 C.3   337  ARG337      0.2205
     94  NE        22.8390   16.6950  -39.8390 N.pl3 337  ARG337     -0.0865
     95  CZ        22.8050   16.9090  -41.1520 C.cat 337  ARG337      0.5346
     96  NH1       22.6530   18.1470  -41.6100 N.pl3 337  ARG337      0.1354
     97  NH2       22.9060   15.8950  -42.0070 N.pl3 337  ARG337      0.1354
     98  N         20.1230   14.1770  -30.1980 N.3   388  TYR388     -0.1241
     99  CA        20.4820   15.0780  -31.2750 C.3   388  TYR388      0.1605
    100  C         20.2300   16.5150  -30.8350 C.2   388  TYR388      0.2264
    101  O         19.4530   16.7520  -29.9050 O.2   388  TYR388     -0.2867
    102  CB        19.6620   14.7300  -32.5260 C.3   388  TYR388      0.0534
    103  CG        20.1860   15.3540  -33.7910 C.ar  388  TYR388     -0.0201
    104  CD1       19.5890   16.4950  -34.3180 C.ar  388  TYR388     -0.0009
    105  CD2       21.2910   14.8150  -34.4530 C.ar  388  TYR388     -0.0009
    106  CE1       20.0710   17.0850  -35.4750 C.ar  388  TYR388      0.0417
    107  CE2       21.7810   15.3980  -35.6180 C.ar  388  TYR388      0.0417
    108  CZ        21.1620   16.5340  -36.1190 C.ar  388  TYR388      0.1957
    109  OH        21.6310   17.1310  -37.2640 O.3   388  TYR388     -0.2866
    110  N         17.3800   16.5380  -27.6920 N.3   406  TYR406     -0.1241
    111  CA        16.1990   15.6980  -27.8320 C.3   406  TYR406      0.1605
    112  C         16.5520   14.2480  -28.1020 C.2   406  TYR406      0.2264
    113  O         17.5960   13.9440  -28.6860 O.2   406  TYR406     -0.2867
    114  CB        15.1830   16.2530  -28.8410 C.3   406  TYR406      0.0534
    115  CG        15.5230   16.2130  -30.3220 C.ar  406  TYR406     -0.0201
    116  CD1       16.0720   17.3300  -30.9590 C.ar  406  TYR406     -0.0009
    117  CD2       15.2130   15.0990  -31.1050 C.ar  406  TYR406     -0.0009
    118  CE1       16.3350   17.3280  -32.3290 C.ar  406  TYR406      0.0417
    119  CE2       15.4840   15.0830  -32.4790 C.ar  406  TYR406      0.0417
    120  CZ        16.0430   16.2030  -33.0810 C.ar  406  TYR406      0.1957
    121  OH        16.3100   16.2060  -34.4300 O.3   406  TYR406     -0.2866
    122  N         12.6710    6.1480  -30.6130 N.3   410  ARG410     -0.1245
    123  CA        11.9640    5.3130  -31.5920 C.3   410  ARG410      0.1563
    124  C         11.9110    3.8350  -31.1810 C.2   410  ARG410      0.2260
    125  O         12.2120    2.9430  -31.9800 O.2   410  ARG410     -0.2867
    126  CB        12.5850    5.4670  -32.9890 C.3   410  ARG410      0.0307
    127  CG        12.5660    6.8940  -33.5430 C.3   410  ARG410      0.0489
    128  CD        13.2430    6.9660  -34.9080 C.3   410  ARG410      0.2205
    129  NE        13.1540    8.3000  -35.5030 N.pl3 410  ARG410     -0.0865
    130  CZ        14.1790    9.1370  -35.6580 C.cat 410  ARG410      0.5346
    131  NH1       15.4040    8.7940  -35.2710 N.pl3 410  ARG410      0.1354
    132  NH2       13.9780   10.3270  -36.2120 N.pl3 410  ARG410      0.1354
@<TRIPOS>BOND
     1    77    75   ar
     2    74    75    1
     3    74    73    1
     4    75    76   ar
     5    69    70    1
     6    51    49   ar
     7    51    50   ar
     8    67    66    1
     9    49    47   ar
    10    50    48   ar
    11    73    70    1
    12    70    71    1
    13    97    95    1
    14    68    66    1
    15    66    65    2
    16    96    95    1
    17    47    45   ar
    18    47    46   ar
    19    48    45   ar
    20    95    94    2
    21    45    43   ar
    22    71    72    2
    23    46    44   ar
    24    58    59    1
    25    65    64    1
    26    90    89    2
    27    64    63    1
    28    63    62    1
    29    62    59    1
    30    94    93    1
    31    43    44   ar
    32    43    42    1
    33    59    60    1
    34    89    88    1
    35    91    88    1
    36    91    92    1
    37    93    92    1
    38    31    32    1
    39    85    84   ar
    40    86    84   ar
    41    84    83    1
    42    42    39    1
    43    37    35    1
    44    83    82    1
    45    88    87    1
    46    60    61    2
    47    34    33    2
    48    38    39    1
    49    32    35    1
    50    32    33    1
    51    39    40    1
    52    35    36    1
    53    78    79    1
    54   109   108    1
    55    82    79    1
    56    79    80    1
    57    40    52   am
    58    40    41    2
    59   132   130    1
    60   108   107   ar
    61   108   106   ar
    62    14    13   ar
    63    14    12   ar
    64    52    53    1
    65    13    11   ar
    66   130   129    2
    67   130   131    1
    68   107   105   ar
    69   129   128    1
    70    80    81    2
    71    12    10   ar
    72   106   104   ar
    73    55    54    2
    74    29    28    1
    75   128   127    1
    76    11     8   ar
    77    10     8   ar
    78    10     9   ar
    79    53    54    1
    80    53    56    1
    81   105   103   ar
    82   121   120    1
    83     8     6   ar
    84   104   103   ar
    85    57    56    1
    86    30    28    1
    87     9     7   ar
    88    21    20   ar
    89    22    20   ar
    90    28    27    1
    91   103   102    1
    92   127   126    1
    93    27    24    1
    94     6     7   ar
    95     6     5    1
    96    20    19    1
    97   120   119   ar
    98   120   118   ar
    99   126   123    1
   100     5     2    1
   101   102    99    1
   102   119   117   ar
   103    24    25    1
   104    24    23    1
   105    19    16    1
   106   118   116   ar
   107    25    26    2
   108   125   124    2
   109    15    16    1
   110    15     3   am
   111   123   124    1
   112   123   122    1
   113     2     1    1
   114     2     3    1
   115    99   100    1
   116    99    98    1
   117    16    17    1
   118   117   115   ar
   119   116   115   ar
   120   100   101    2
   121     3     4    2
   122    18    17    2
   123   115   114    1
   124   114   111    1
   125   113   112    2
   126   112   111    1
   127   111   110    1
