@<TRIPOS>MOLECULE
tmp/3om5D00.pdb
 98 95 0 0 0
SMALL
GASTEIGER

@<TRIPOS>ATOM
      1  N         56.4740  -20.1240   64.3350 N.3    61  TRP61      -0.1227
      2  CA        57.8480  -20.0810   63.8460 C.3    61  TRP61       0.1737
      3  C         58.6320  -18.9220   64.4680 C.2    61  TRP61       0.2595
      4  O         58.6440  -18.7700   65.6990 O.2    61  TRP61      -0.2718
      5  CB        57.8710  -20.0470   62.3090 C.3    61  TRP61       0.0564
      6  CG        57.0500  -21.1530   61.6830 C.ar   61  TRP61       0.0003
      7  CD1       57.2600  -22.4990   61.8130 C.ar   61  TRP61       0.0946
      8  CD2       55.8920  -21.0110   60.8440 C.ar   61  TRP61       0.0152
      9  NE1       56.3180  -23.1990   61.1060 N.ar   61  TRP61      -0.2442
     10  CE2       55.4620  -22.3160   60.5040 C.ar   61  TRP61       0.0810
     11  CE3       55.1750  -19.9120   60.3480 C.ar   61  TRP61       0.0012
     12  CZ2       54.3470  -22.5540   59.6860 C.ar   61  TRP61       0.0191
     13  CZ3       54.0650  -20.1500   59.5270 C.ar   61  TRP61       0.0001
     14  CH2       53.6630  -21.4640   59.2090 C.ar   61  TRP61       0.0015
     15  N         59.2920  -18.1210   63.6300 N.am   62  ASP62      -0.1974
     16  CA        60.1570  -17.0440   64.1020 C.3    62  ASP62       0.1709
     17  C         59.4430  -16.1730   65.1280 C.2    62  ASP62       0.2293
     18  O         58.3310  -15.6890   64.8810 O.2    62  ASP62      -0.2864
     19  CB        60.6360  -16.1750   62.9370 C.3    62  ASP62       0.1436
     20  CG        61.2110  -16.9880   61.7910 C.2    62  ASP62       0.3671
     21  OD1       60.4750  -17.7970   61.1980 O.co2  62  ASP62      -0.2456
     22  OD2       62.4000  -16.7980   61.4760 O.co2  62  ASP62      -0.2456
     23  N         55.6480  -15.3150   64.1140 N.3    85  LEU85      -0.1245
     24  CA        55.1210  -15.7120   62.8170 C.3    85  LEU85       0.1561
     25  C         54.4470  -17.0680   62.9900 C.2    85  LEU85       0.2260
     26  O         55.0440  -18.0020   63.5320 O.2    85  LEU85      -0.2867
     27  CB        56.2320  -15.8040   61.7680 C.3    85  LEU85       0.0270
     28  CG        57.0950  -14.5940   61.3970 C.3    85  LEU85       0.0019
     29  CD1       57.9170  -14.9480   60.1570 C.3    85  LEU85       0.0001
     30  CD2       56.2510  -13.3520   61.1350 C.3    85  LEU85       0.0001
     31  N         51.7420  -16.5360   56.2040 N.3    95  THR95      -0.1218
     32  CA        52.4370  -16.1770   57.4400 C.3    95  THR95       0.1862
     33  C         51.9690  -14.8140   57.9440 C.2    95  THR95       0.2287
     34  O         51.9010  -13.8440   57.1820 O.2    95  THR95      -0.2866
     35  CB        53.9760  -16.1820   57.2550 C.3    95  THR95       0.1770
     36  OG1       54.3520  -17.2220   56.3440 O.3    95  THR95      -0.2211
     37  CG2       54.6680  -16.4200   58.5730 C.3    95  THR95       0.0375
     38  N         52.5220  -11.6150   52.4930 N.3   137  GLN137     -0.1245
     39  CA        52.9430  -12.2450   53.7490 C.3   137  GLN137      0.1566
     40  C         53.6090  -11.2370   54.6740 C.2   137  GLN137      0.2260
     41  O         54.1700  -10.2360   54.2180 O.2   137  GLN137     -0.2867
     42  CB        53.9120  -13.4040   53.4890 C.3   137  GLN137      0.0367
     43  CG        53.2620  -14.6770   52.9770 C.3   137  GLN137      0.0905
     44  CD        54.2440  -15.8210   52.8700 C.2   137  GLN137      0.2608
     45  OE1       54.6620  -16.3910   53.8790 O.2   137  GLN137     -0.2717
     46  NE2       54.6140  -16.1720   51.6440 N.am  137  GLN137     -0.0878
     47  N         56.6410  -11.0960   57.2920 N.3   139  TRP139     -0.1227
     48  CA        57.8180  -11.8080   57.7900 C.3   139  TRP139      0.1737
     49  C         58.4280  -11.1310   59.0220 C.2   139  TRP139      0.2596
     50  O         57.8740  -10.1500   59.5230 O.2   139  TRP139     -0.2718
     51  CB        58.8510  -12.0470   56.6870 C.3   139  TRP139      0.0564
     52  CG        58.4270  -13.0770   55.6730 C.ar  139  TRP139      0.0003
     53  CD1       57.3090  -13.8700   55.7160 C.ar  139  TRP139      0.0946
     54  CD2       59.1300  -13.4450   54.4800 C.ar  139  TRP139      0.0152
     55  NE1       57.2670  -14.6890   54.6160 N.ar  139  TRP139     -0.2442
     56  CE2       58.3730  -14.4530   53.8430 C.ar  139  TRP139      0.0810
     57  CE3       60.3260  -13.0150   53.8830 C.ar  139  TRP139      0.0012
     58  CZ2       58.7680  -15.0380   52.6380 C.ar  139  TRP139      0.0191
     59  CZ3       60.7210  -13.6010   52.6850 C.ar  139  TRP139      0.0001
     60  CH2       59.9450  -14.6060   52.0800 C.ar  139  TRP139      0.0015
     61  N         59.5630  -11.6540   59.4880 N.am  140  SER140     -0.1952
     62  CA        60.1320  -11.3040   60.8040 C.3   140  SER140      0.1924
     63  C         60.6400   -9.8740   60.9450 C.2   140  SER140      0.2314
     64  O         60.8570   -9.1700   59.9520 O.2   140  SER140     -0.2863
     65  CB        61.2510  -12.2850   61.1760 C.3   140  SER140      0.2116
     66  OG        60.7870  -13.6190   61.0850 O.3   140  SER140     -0.2180
     67  N         65.2340   -8.0700   54.6800 N.3   223  ARG223     -0.1245
     68  CA        64.3050   -8.4920   55.7210 C.3   223  ARG223      0.1563
     69  C         64.8400   -8.5170   57.1520 C.2   223  ARG223      0.2260
     70  O         66.0000   -8.1760   57.4220 O.2   223  ARG223     -0.2867
     71  CB        63.7100   -9.8650   55.3650 C.3   223  ARG223      0.0307
     72  CG        64.6820  -11.0270   55.3160 C.3   223  ARG223      0.0489
     73  CD        63.9100  -12.3300   55.1140 C.3   223  ARG223      0.2205
     74  NE        64.7830  -13.4730   54.8620 N.pl3 223  ARG223     -0.0865
     75  CZ        65.0180  -13.9920   53.6580 C.cat 223  ARG223      0.5346
     76  NH1       64.4490  -13.4740   52.5780 N.pl3 223  ARG223      0.1354
     77  NH2       65.8270  -15.0360   53.5350 N.pl3 223  ARG223      0.1354
     78  N         70.7290  -14.5860   57.9700 N.3   319  GLU319     -0.1245
     79  CA        69.3670  -14.3090   58.4490 C.3   319  GLU319      0.1567
     80  C         69.2730  -13.8540   59.9160 C.2   319  GLU319      0.2260
     81  O         70.2750  -13.8260   60.6190 O.2   319  GLU319     -0.2867
     82  CB        68.5120  -15.5510   58.2170 C.3   319  GLU319      0.0388
     83  CG        68.7520  -16.1790   56.8420 C.3   319  GLU319      0.1160
     84  CD        67.9450  -17.4300   56.6150 C.2   319  GLU319      0.3649
     85  OE1       68.5480  -18.5240   56.5820 O.co2 319  GLU319     -0.2457
     86  OE2       66.7090  -17.3200   56.4720 O.co2 319  GLU319     -0.2457
     87  N         62.7340  -21.5030   67.5820 N.3   406  TYR406     -0.1241
     88  CA        61.5900  -22.4000   67.4790 C.3   406  TYR406      0.1605
     89  C         61.9830  -23.8530   67.2050 C.2   406  TYR406      0.2264
     90  O         63.0810  -24.1490   66.7290 O.2   406  TYR406     -0.2867
     91  CB        60.5050  -21.8850   66.5270 C.3   406  TYR406      0.0534
     92  CG        60.8120  -21.8770   65.0430 C.ar  406  TYR406     -0.0201
     93  CD1       61.3000  -20.7330   64.4230 C.ar  406  TYR406     -0.0009
     94  CD2       60.5420  -22.9920   64.2440 C.ar  406  TYR406     -0.0009
     95  CE1       61.5480  -20.7020   63.0410 C.ar  406  TYR406      0.0417
     96  CE2       60.7920  -22.9710   62.8630 C.ar  406  TYR406      0.0417
     97  CZ        61.2940  -21.8210   62.2710 C.ar  406  TYR406      0.1957
     98  OH        61.5360  -21.7870   60.8960 O.3   406  TYR406     -0.2866
@<TRIPOS>BOND
     1    46    44   am
     2    60    58   ar
     3    60    59   ar
     4    38    39    1
     5    76    75    1
     6    58    56   ar
     7    59    57   ar
     8    44    43    1
     9    44    45    2
    10    43    42    1
    11    42    39    1
    12    77    75    1
    13    75    74    2
    14    39    40    1
    15    56    54   ar
    16    56    55   ar
    17    57    54   ar
    18    41    40    2
    19    54    52   ar
    20    55    53   ar
    21    67    68    1
    22    74    73    1
    23    73    72    1
    24    72    71    1
    25    71    68    1
    26    52    53   ar
    27    52    51    1
    28    68    69    1
    29    31    32    1
    30    36    35    1
    31    86    84   ar
    32    85    84   ar
    33    84    83    1
    34    51    48    1
    35    83    82    1
    36    69    70    2
    37    34    33    2
    38    35    32    1
    39    35    37    1
    40    47    48    1
    41    32    33    1
    42    48    49    1
    43    78    79    1
    44    82    79    1
    45    79    80    1
    46    49    61   am
    47    49    50    2
    48    14    13   ar
    49    14    12   ar
    50    61    62    1
    51    13    11   ar
    52    12    10   ar
    53    80    81    2
    54    64    63    2
    55    29    28    1
    56    11     8   ar
    57    10     8   ar
    58    10     9   ar
    59    62    63    1
    60    62    65    1
    61     8     6   ar
    62    98    97    1
    63    66    65    1
    64     9     7   ar
    65    30    28    1
    66    21    20   ar
    67    28    27    1
    68    22    20   ar
    69     6     7   ar
    70     6     5    1
    71    27    24    1
    72    20    19    1
    73    97    96   ar
    74    97    95   ar
    75     5     2    1
    76    24    25    1
    77    24    23    1
    78    96    94   ar
    79    19    16    1
    80    25    26    2
    81    95    93   ar
    82    15    16    1
    83    15     3   am
    84     2     1    1
    85     2     3    1
    86    16    17    1
    87    94    92   ar
    88    93    92   ar
    89     3     4    2
    90    18    17    2
    91    92    91    1
    92    91    88    1
    93    90    89    2
    94    89    88    1
    95    88    87    1
