@<TRIPOS>MOLECULE
tmp/3om5C00.pdb
 109 105 0 0 0
SMALL
GASTEIGER

@<TRIPOS>ATOM
      1  N         36.5570  -12.8200   38.6110 N.3   139  TRP139     -0.1241
      2  CA        36.1310  -12.1940   37.3510 C.3   139  TRP139      0.1605
      3  C         34.9170  -12.9050   36.7340 C.2   139  TRP139      0.2264
      4  O         34.4440  -13.9000   37.2810 O.2   139  TRP139     -0.2867
      5  CB        37.3080  -12.1290   36.3750 C.3   139  TRP139      0.0550
      6  CG        38.2960  -11.0120   36.6400 C.ar  139  TRP139      0.0003
      7  CD1       38.3300  -10.1700   37.7210 C.ar  139  TRP139      0.0946
      8  CD2       39.3980  -10.6320   35.8030 C.ar  139  TRP139      0.0152
      9  NE1       39.3790   -9.2870   37.6000 N.ar  139  TRP139     -0.2442
     10  CE2       40.0520   -9.5510   36.4350 C.ar  139  TRP139      0.0810
     11  CE3       39.8950  -11.1010   34.5760 C.ar  139  TRP139      0.0012
     12  CZ2       41.1810   -8.9300   35.8820 C.ar  139  TRP139      0.0191
     13  CZ3       41.0180  -10.4830   34.0270 C.ar  139  TRP139      0.0001
     14  CH2       41.6450   -9.4070   34.6800 C.ar  139  TRP139      0.0015
     15  N         41.1760  -15.0600   38.7440 N.3   158  TYR158     -0.1241
     16  CA        42.2880  -14.1950   38.3440 C.3   158  TYR158      0.1605
     17  C         43.3880  -14.1820   39.4010 C.2   158  TYR158      0.2264
     18  O         43.1180  -13.9670   40.5840 O.2   158  TYR158     -0.2867
     19  CB        41.7910  -12.7670   38.0880 C.3   158  TYR158      0.0534
     20  CG        42.8910  -11.7760   37.7760 C.ar  158  TYR158     -0.0201
     21  CD1       43.4560  -11.7100   36.5040 C.ar  158  TYR158     -0.0009
     22  CD2       43.3770  -10.9090   38.7590 C.ar  158  TYR158     -0.0009
     23  CE1       44.4680  -10.8040   36.2170 C.ar  158  TYR158      0.0417
     24  CE2       44.3930  -10.0010   38.4820 C.ar  158  TYR158      0.0417
     25  CZ        44.9330   -9.9550   37.2070 C.ar  158  TYR158      0.1957
     26  OH        45.9310   -9.0550   36.9230 O.3   158  TYR158     -0.2866
     27  N         44.5260  -16.4250   34.3360 N.3   166  GLN166     -0.1245
     28  CA        43.0830  -16.5850   34.4640 C.3   166  GLN166      0.1566
     29  C         42.6980  -18.0450   34.3000 C.2   166  GLN166      0.2260
     30  O         43.0780  -18.6960   33.3240 O.2   166  GLN166     -0.2867
     31  CB        42.3550  -15.7110   33.4520 C.3   166  GLN166      0.0367
     32  CG        42.6090  -14.2230   33.6350 C.3   166  GLN166      0.0905
     33  CD        42.8430  -13.5330   32.3100 C.2   166  GLN166      0.2608
     34  OE1       41.9380  -13.4370   31.4850 O.2   166  GLN166     -0.2717
     35  NE2       44.0680  -13.0560   32.0950 N.am  166  GLN166     -0.0878
     36  N         54.0640   -8.2500   30.5920 N.3   214  TYR214     -0.1241
     37  CA        53.3890   -6.9870   30.2820 C.3   214  TYR214      0.1605
     38  C         54.1230   -6.0530   29.3280 C.2   214  TYR214      0.2264
     39  O         53.4920   -5.3410   28.5460 O.2   214  TYR214     -0.2867
     40  CB        53.0420   -6.2570   31.5740 C.3   214  TYR214      0.0534
     41  CG        52.0720   -7.0490   32.4040 C.ar  214  TYR214     -0.0201
     42  CD1       52.4750   -7.6590   33.5850 C.ar  214  TYR214     -0.0009
     43  CD2       50.7520   -7.2210   31.9820 C.ar  214  TYR214     -0.0009
     44  CE1       51.5820   -8.4010   34.3430 C.ar  214  TYR214      0.0417
     45  CE2       49.8550   -7.9570   32.7280 C.ar  214  TYR214      0.0417
     46  CZ        50.2760   -8.5420   33.9080 C.ar  214  TYR214      0.1957
     47  OH        49.3930   -9.2740   34.6570 O.3   214  TYR214     -0.2866
     48  N         48.3000   -9.1270   25.4290 N.3   219  ALA219     -0.1231
     49  CA        47.2470   -9.2280   26.4300 C.3   219  ALA219      0.1694
     50  C         46.7270  -10.6560   26.4700 C.2   219  ALA219      0.2592
     51  O         46.1380  -11.1480   25.4990 O.2   219  ALA219     -0.2718
     52  CB        46.1210   -8.2370   26.1420 C.3   219  ALA219      0.0304
     53  N         46.9640  -11.3180   27.5990 N.am  220  HIS220     -0.1962
     54  CA        46.5620  -12.7070   27.7880 C.3   220  HIS220      0.1787
     55  C         45.2100  -12.8160   28.4760 C.2   220  HIS220      0.2620
     56  O         44.9950  -12.2500   29.5550 O.2   220  HIS220     -0.2715
     57  CB        47.6120  -13.4720   28.5910 C.3   220  HIS220      0.0785
     58  CG        47.1570  -14.8300   29.0220 C.ar  220  HIS220      0.0821
     59  ND1       47.0420  -15.8870   28.1450 N.ar  220  HIS220     -0.2267
     60  CD2       46.7720  -15.3010   30.2330 C.ar  220  HIS220      0.1154
     61  CE1       46.6120  -16.9520   28.7990 C.ar  220  HIS220      0.1986
     62  NE2       46.4370  -16.6220   30.0650 N.ar  220  HIS220     -0.2212
     63  N         44.3080  -13.5630   27.8500 N.am  221  THR221     -0.1951
     64  CA        42.9580  -13.7380   28.3740 C.3   221  THR221      0.1897
     65  C         42.5890  -15.2140   28.4220 C.2   221  THR221      0.2313
     66  O         43.0270  -16.0020   27.5780 O.2   221  THR221     -0.2863
     67  CB        41.9040  -12.9700   27.5330 C.3   221  THR221      0.1794
     68  OG1       41.7090  -13.6260   26.2730 O.3   221  THR221     -0.2208
     69  CG2       42.3440  -11.5220   27.2830 C.3   221  THR221      0.0378
     70  N         38.9790  -16.2830   30.1050 N.3   223  ARG223     -0.1245
     71  CA        37.9620  -15.8310   31.0420 C.3   223  ARG223      0.1563
     72  C         36.5540  -15.8390   30.4630 C.2   223  ARG223      0.2260
     73  O         36.3350  -16.2450   29.3150 O.2   223  ARG223     -0.2867
     74  CB        38.3100  -14.4290   31.5680 C.3   223  ARG223      0.0307
     75  CG        38.3800  -13.3140   30.5210 C.3   223  ARG223      0.0489
     76  CD        38.5500  -11.9720   31.2300 C.3   223  ARG223      0.2205
     77  NE        38.7170  -10.8420   30.3220 N.pl3 223  ARG223     -0.0865
     78  CZ        39.8910  -10.3520   29.9300 C.cat 223  ARG223      0.5346
     79  NH1       41.0310  -10.8950   30.3460 N.pl3 223  ARG223      0.1354
     80  NH2       39.9260   -9.3110   29.1140 N.pl3 223  ARG223      0.1354
     81  N         41.5170   -9.0070   22.3480 N.3   317  GLU317     -0.1245
     82  CA        40.4500   -9.0860   23.3480 C.3   317  GLU317      0.1567
     83  C         39.0370   -9.1130   22.7640 C.2   317  GLU317      0.2260
     84  O         38.4980   -8.0810   22.3590 O.2   317  GLU317     -0.2867
     85  CB        40.5420   -7.9150   24.3320 C.3   317  GLU317      0.0388
     86  CG        41.7090   -7.9610   25.2900 C.3   317  GLU317      0.1160
     87  CD        41.3800   -7.2980   26.6180 C.2   317  GLU317      0.3649
     88  OE1       41.6010   -7.9460   27.6550 O.co2 317  GLU317     -0.2457
     89  OE2       40.8840   -6.1460   26.6290 O.co2 317  GLU317     -0.2457
     90  N         36.2730   -3.6600   22.3750 N.3   337  ARG337     -0.1245
     91  CA        36.5600   -2.2380   22.4230 C.3   337  ARG337      0.1563
     92  C         37.3880   -1.8190   21.2290 C.2   337  ARG337      0.2260
     93  O         38.3610   -2.4830   20.8670 O.2   337  ARG337     -0.2867
     94  CB        37.2810   -1.8690   23.7130 C.3   337  ARG337      0.0307
     95  CG        36.5680   -2.3840   24.9250 C.3   337  ARG337      0.0489
     96  CD        36.9950   -1.6530   26.1700 C.3   337  ARG337      0.2205
     97  NE        38.4080   -1.8220   26.5090 N.pl3 337  ARG337     -0.0865
     98  CZ        38.9700   -2.9520   26.9380 C.cat 337  ARG337      0.5346
     99  NH1       40.2640   -2.9630   27.2370 N.pl3 337  ARG337      0.1354
    100  NH2       38.2580   -4.0680   27.0600 N.pl3 337  ARG337      0.1354
    101  N         41.1340   -1.3440   21.4930 N.3   340  LYS340     -0.1245
    102  CA        41.9120   -2.5730   21.4100 C.3   340  LYS340      0.1561
    103  C         41.9950   -3.1400   19.9920 C.2   340  LYS340      0.2260
    104  O         42.6970   -4.1200   19.7510 O.2   340  LYS340     -0.2867
    105  CB        41.3420   -3.6180   22.3760 C.3   340  LYS340      0.0271
    106  CG        41.5020   -3.2550   23.8580 C.3   340  LYS340      0.0035
    107  CD        42.9290   -2.8250   24.1560 C.3   340  LYS340      0.0206
    108  CE        43.1070   -2.5290   25.6270 C.3   340  LYS340      0.1093
    109  NZ        44.4480   -1.9680   25.9290 N.3   340  LYS340     -0.1314
@<TRIPOS>BOND
     1   104   103    2
     2   103   102    1
     3    93    92    2
     4    92    91    1
     5   102   101    1
     6   102   105    1
     7    81    82    1
     8    84    83    2
     9    90    91    1
    10   105   106    1
    11    91    94    1
    12    83    82    1
    13    82    85    1
    14    94    95    1
    15   106   107    1
    16   107   108    1
    17    85    86    1
    18    95    96    1
    19    86    87    1
    20    48    49    1
    21    51    50    2
    22   108   109    1
    23    52    49    1
    24    96    97    1
    25    68    67    1
    26    49    50    1
    27    50    53   am
    28    97    98    2
    29    87    89   ar
    30    87    88   ar
    31    98   100    1
    32    98    99    1
    33    69    67    1
    34    67    64    1
    35    66    65    2
    36    53    54    1
    37    54    55    1
    38    54    57    1
    39    63    64    1
    40    63    55   am
    41    59    61   ar
    42    59    58   ar
    43    64    65    1
    44    55    56    2
    45    39    38    2
    46    57    58    1
    47    61    62   ar
    48    58    60   ar
    49    80    78    1
    50    73    72    2
    51    38    37    1
    52    78    77    2
    53    78    79    1
    54    62    60   ar
    55    70    71    1
    56    37    36    1
    57    37    40    1
    58    77    76    1
    59    72    71    1
    60    75    76    1
    61    75    74    1
    62    71    74    1
    63    34    33    2
    64    40    41    1
    65    43    41   ar
    66    43    45   ar
    67    35    33   am
    68    33    32    1
    69    41    42   ar
    70    45    46   ar
    71    30    29    2
    72    31    32    1
    73    31    28    1
    74    42    44   ar
    75    46    44   ar
    76    46    47    1
    77    13    11   ar
    78    13    14   ar
    79    29    28    1
    80    27    28    1
    81    11     8   ar
    82    14    12   ar
    83     8    10   ar
    84     8     6   ar
    85    12    10   ar
    86    23    21   ar
    87    23    25   ar
    88     5     6    1
    89     5     2    1
    90    10     9   ar
    91    21    20   ar
    92     6     7   ar
    93     3     4    2
    94     3     2    1
    95    26    25    1
    96    25    24   ar
    97     2     1    1
    98     9     7   ar
    99    20    19    1
   100    20    22   ar
   101    19    16    1
   102    16    15    1
   103    16    17    1
   104    24    22   ar
   105    17    18    2
