@<TRIPOS>MOLECULE
tmp/3om5A00.pdb
 155 148 0 0 0
SMALL
GASTEIGER

@<TRIPOS>ATOM
      1  N          7.3660   20.6490  -17.1210 N.3    61  TRP61      -0.1227
      2  CA         8.6690   20.5220  -16.4640 C.3    61  TRP61       0.1737
      3  C          9.5300   19.4110  -17.0780 C.2    61  TRP61       0.2595
      4  O          9.7180   19.3820  -18.3050 O.2    61  TRP61      -0.2718
      5  CB         8.4820   20.3530  -14.9450 C.3    61  TRP61       0.0564
      6  CG         7.6430   21.4450  -14.3220 C.ar   61  TRP61       0.0003
      7  CD1        7.9570   22.7750  -14.2340 C.ar   61  TRP61       0.0946
      8  CD2        6.3560   21.2990  -13.7000 C.ar   61  TRP61       0.0152
      9  NE1        6.9470   23.4630  -13.6020 N.ar   61  TRP61      -0.2442
     10  CE2        5.9540   22.5820  -13.2630 C.ar   61  TRP61       0.0810
     11  CE3        5.5050   20.2090  -13.4680 C.ar   61  TRP61       0.0012
     12  CZ2        4.7440   22.8030  -12.6000 C.ar   61  TRP61       0.0191
     13  CZ3        4.2990   20.4320  -12.8140 C.ar   61  TRP61       0.0001
     14  CH2        3.9310   21.7200  -12.3890 C.ar   61  TRP61       0.0015
     15  N         10.0500   18.5120  -16.2370 N.am   62  ASP62      -0.1974
     16  CA        10.9310   17.4260  -16.6800 C.3    62  ASP62       0.1709
     17  C         10.3240   16.6760  -17.8540 C.2    62  ASP62       0.2293
     18  O          9.1730   16.2330  -17.7950 O.2    62  ASP62      -0.2864
     19  CB        11.1830   16.3960  -15.5730 C.3    62  ASP62       0.1436
     20  CG        11.5300   17.0140  -14.2250 C.2    62  ASP62       0.3671
     21  OD1       11.1450   18.1670  -13.9390 O.co2  62  ASP62      -0.2456
     22  OD2       12.1680   16.3000  -13.4260 O.co2  62  ASP62      -0.2456
     23  N          6.4660   15.8100  -17.4110 N.3    85  LEU85      -0.1245
     24  CA         5.7570   16.1330  -16.1760 C.3    85  LEU85       0.1561
     25  C          5.1010   17.4970  -16.3500 C.2    85  LEU85       0.2260
     26  O          5.7610   18.4690  -16.7290 O.2    85  LEU85      -0.2867
     27  CB         6.7050   16.1620  -14.9690 C.3    85  LEU85       0.0270
     28  CG         7.6220   14.9770  -14.6400 C.3    85  LEU85       0.0019
     29  CD1        8.3680   15.2640  -13.3470 C.3    85  LEU85       0.0001
     30  CD2        6.8660   13.6600  -14.5300 C.3    85  LEU85       0.0001
     31  N         -0.0170   22.7600   -7.4250 N.3    92  SER92      -0.1217
     32  CA         1.3780   22.9130   -6.9630 C.3    92  SER92       0.1889
     33  C          2.0930   21.5890   -6.6910 C.2    92  SER92       0.2288
     34  O          3.0680   21.2590   -7.3740 O.2    92  SER92      -0.2866
     35  CB         1.4720   23.8540   -5.7510 C.3    92  SER92       0.2089
     36  OG         2.8250   24.1420   -5.4230 O.3    92  SER92      -0.2183
     37  N          1.6220   16.5880   -9.9910 N.3    95  THR95      -0.1218
     38  CA         2.4810   16.3500  -11.1380 C.3    95  THR95       0.1862
     39  C          2.0270   15.0670  -11.8210 C.2    95  THR95       0.2287
     40  O          1.9370   14.0160  -11.1860 O.2    95  THR95      -0.2866
     41  CB         3.9600   16.2130  -10.7100 C.3    95  THR95       0.1770
     42  OG1        4.2420   17.1180   -9.6320 O.3    95  THR95      -0.2211
     43  CG2        4.8810   16.5180  -11.8720 C.3    95  THR95       0.0375
     44  N          1.8100   11.5190   -6.5730 N.3   137  GLN137     -0.1245
     45  CA         2.3690   12.2180   -7.7400 C.3   137  GLN137      0.1566
     46  C          3.1010   11.2660   -8.6890 C.2   137  GLN137      0.2260
     47  O          3.6260   10.2340   -8.2700 O.2   137  GLN137     -0.2867
     48  CB         3.3300   13.3390   -7.3080 C.3   137  GLN137      0.0367
     49  CG         2.7130   14.4940   -6.5080 C.3   137  GLN137      0.0905
     50  CD         3.6770   15.6600   -6.3080 C.2   137  GLN137      0.2608
     51  OE1        4.3090   16.1310   -7.2580 O.2   137  GLN137     -0.2717
     52  NE2        3.7840   16.1380   -5.0700 N.am  137  GLN137     -0.0878
     53  N          6.3360   11.1170  -10.8260 N.3   139  TRP139     -0.1241
     54  CA         7.6160   11.7910  -11.0390 C.3   139  TRP139      0.1605
     55  C          8.4010   11.2100  -12.2200 C.2   139  TRP139      0.2264
     56  O          7.9380   10.2720  -12.8700 O.2   139  TRP139     -0.2867
     57  CB         8.4510   11.8070   -9.7570 C.3   139  TRP139      0.0550
     58  CG         8.0170   12.8340   -8.7530 C.ar  139  TRP139      0.0003
     59  CD1        7.0100   13.7520   -8.8840 C.ar  139  TRP139      0.0946
     60  CD2        8.6090   13.0700   -7.4730 C.ar  139  TRP139      0.0152
     61  NE1        6.9260   14.5280   -7.7540 N.ar  139  TRP139     -0.2442
     62  CE2        7.8990   14.1360   -6.8730 C.ar  139  TRP139      0.0810
     63  CE3        9.6680   12.4800   -6.7690 C.ar  139  TRP139      0.0012
     64  CZ2        8.2150   14.6250   -5.5990 C.ar  139  TRP139      0.0191
     65  CZ3        9.9830   12.9730   -5.4980 C.ar  139  TRP139      0.0001
     66  CH2        9.2610   14.0370   -4.9360 C.ar  139  TRP139      0.0015
     67  N         14.2980    7.6140   -7.5630 N.3   223  ARG223     -0.1245
     68  CA        13.5530    8.2100   -8.6610 C.3   223  ARG223      0.1563
     69  C         14.3440    8.3310   -9.9610 C.2   223  ARG223      0.2260
     70  O         15.5290    7.9970  -10.0170 O.2   223  ARG223     -0.2867
     71  CB        13.0070    9.5810   -8.2350 C.3   223  ARG223      0.0307
     72  CG        14.0400   10.6090   -7.7750 C.3   223  ARG223      0.0489
     73  CD        13.3950   11.9940   -7.7420 C.3   223  ARG223      0.2205
     74  NE        14.3110   13.0580   -7.3310 N.pl3 223  ARG223     -0.0865
     75  CZ        14.3450   13.5920   -6.1090 C.cat 223  ARG223      0.5346
     76  NH1       13.5220   13.1580   -5.1670 N.pl3 223  ARG223      0.1354
     77  NH2       15.2030   14.5630   -5.8300 N.pl3 223  ARG223      0.1354
     78  N         21.5290   14.6700   -3.3420 N.3   317  GLU317     -0.1245
     79  CA        20.7000   14.7060   -4.5390 C.3   317  GLU317      0.1567
     80  C         21.5050   14.8160   -5.8370 C.2   317  GLU317      0.2260
     81  O         21.9690   15.8940   -6.2090 O.2   317  GLU317     -0.2867
     82  CB        19.6540   15.8330   -4.4450 C.3   317  GLU317      0.0388
     83  CG        18.7190   15.7010   -3.2380 C.3   317  GLU317      0.1160
     84  CD        17.4210   16.4640   -3.3810 C.2   317  GLU317      0.3649
     85  OE1       17.0180   17.1230   -2.3990 O.co2 317  GLU317     -0.2457
     86  OE2       16.8000   16.4050   -4.4650 O.co2 317  GLU317     -0.2457
     87  N         20.3190   14.0540   -9.4490 N.3   319  GLU319     -0.1245
     88  CA        19.0490   13.7820  -10.1190 C.3   319  GLU319      0.1567
     89  C         19.2140   13.4560  -11.5980 C.2   319  GLU319      0.2260
     90  O         20.3320   13.4540  -12.1230 O.2   319  GLU319     -0.2867
     91  CB        18.1130   14.9840   -9.9670 C.3   319  GLU319      0.0388
     92  CG        18.5890   16.2240  -10.7090 C.3   319  GLU319      0.1160
     93  CD        17.5690   17.3380  -10.7150 C.2   319  GLU319      0.3649
     94  OE1       16.9540   17.5920   -9.6580 O.co2 319  GLU319     -0.2457
     95  OE2       17.3890   17.9690  -11.7790 O.co2 319  GLU319     -0.2457
     96  N         22.1320   20.3910   -7.8050 N.3   337  ARG337     -0.1245
     97  CA        21.9520   21.7690   -7.3330 C.3   337  ARG337      0.1563
     98  C         23.0610   22.1880   -6.3710 C.2   337  ARG337      0.2260
     99  O         23.3190   21.5100   -5.3760 O.2   337  ARG337     -0.2867
    100  CB        20.6020   21.9380   -6.6340 C.3   337  ARG337      0.0307
    101  CG        19.4120   22.0900   -7.5570 C.3   337  ARG337      0.0489
    102  CD        18.1090   22.0330   -6.7580 C.3   337  ARG337      0.2205
    103  NE        17.8040   20.6780   -6.2970 N.pl3 337  ARG337     -0.0865
    104  CZ        16.8720   20.3750   -5.3940 C.cat 337  ARG337      0.5346
    105  NH1       16.1300   21.3270   -4.8360 N.pl3 337  ARG337      0.1354
    106  NH2       16.6780   19.1120   -5.0470 N.pl3 337  ARG337      0.1354
    107  N         16.7680   32.2130  -10.3340 N.3   381  PRO381     -0.2116
    108  CA        15.4720   31.5500  -10.5190 C.3   381  PRO381      0.1372
    109  C         14.3500   32.4730  -11.0140 C.2   381  PRO381      0.2244
    110  O         13.3300   31.9850  -11.4980 O.2   381  PRO381     -0.2868
    111  CB        15.1480   31.0230   -9.1180 C.3   381  PRO381      0.0268
    112  CG        16.4730   30.8210   -8.4880 C.3   381  PRO381      0.0207
    113  CD        17.3110   31.9610   -8.9840 C.3   381  PRO381      0.0892
    114  N         15.7260   30.9390  -17.1860 N.3   386  PHE386     -0.1241
    115  CA        16.2140   29.9220  -16.2630 C.3   386  PHE386      0.1605
    116  C         15.8890   28.5360  -16.8250 C.2   386  PHE386      0.2264
    117  O         14.7520   28.2810  -17.2140 O.2   386  PHE386     -0.2867
    118  CB        15.5450   30.1130  -14.8970 C.3   386  PHE386      0.0534
    119  CG        15.8760   29.0450  -13.8910 C.ar  386  PHE386     -0.0203
    120  CD1       16.9150   29.2300  -12.9810 C.ar  386  PHE386     -0.0042
    121  CD2       15.1330   27.8640  -13.8320 C.ar  386  PHE386     -0.0042
    122  CE1       17.2170   28.2500  -12.0340 C.ar  386  PHE386     -0.0003
    123  CE2       15.4270   26.8770  -12.8880 C.ar  386  PHE386     -0.0003
    124  CZ        16.4680   27.0700  -11.9920 C.ar  386  PHE386     -0.0000
    125  N         16.4640   24.0590  -16.3330 N.3   388  TYR388     -0.1241
    126  CA        16.6370   23.0140  -15.3290 C.3   388  TYR388      0.1605
    127  C         16.4080   21.6380  -15.9670 C.2   388  TYR388      0.2264
    128  O         15.8860   21.5500  -17.0790 O.2   388  TYR388     -0.2867
    129  CB        15.6690   23.2620  -14.1580 C.3   388  TYR388      0.0534
    130  CG        16.0190   22.5280  -12.8850 C.ar  388  TYR388     -0.0201
    131  CD1       15.3320   21.3730  -12.5120 C.ar  388  TYR388     -0.0009
    132  CD2       17.0360   22.9920  -12.0480 C.ar  388  TYR388     -0.0009
    133  CE1       15.6590   20.6910  -11.3320 C.ar  388  TYR388      0.0417
    134  CE2       17.3670   22.3180  -10.8780 C.ar  388  TYR388      0.0417
    135  CZ        16.6750   21.1730  -10.5280 C.ar  388  TYR388      0.1957
    136  OH        17.0130   20.5160   -9.3650 O.3   388  TYR388     -0.2866
    137  N         13.9440   22.0090  -19.4040 N.3   406  TYR406     -0.1241
    138  CA        12.7920   22.8910  -19.3710 C.3   406  TYR406      0.1605
    139  C         13.1740   24.3140  -18.9720 C.2   406  TYR406      0.2264
    140  O         14.2160   24.5340  -18.3540 O.2   406  TYR406     -0.2867
    141  CB        11.6370   22.3180  -18.5450 C.3   406  TYR406      0.0534
    142  CG        11.7960   22.2960  -17.0390 C.ar  406  TYR406     -0.0201
    143  CD1       12.2320   21.1450  -16.3880 C.ar  406  TYR406     -0.0009
    144  CD2       11.4490   23.4030  -16.2620 C.ar  406  TYR406     -0.0009
    145  CE1       12.3410   21.0990  -14.9980 C.ar  406  TYR406      0.0417
    146  CE2       11.5590   23.3700  -14.8660 C.ar  406  TYR406      0.0417
    147  CZ        12.0120   22.2090  -14.2460 C.ar  406  TYR406      0.1957
    148  OH        12.1210   22.1460  -12.8690 O.3   406  TYR406     -0.2866
    149  N         11.5890   27.6090  -17.0840 N.3   408  THR408     -0.1218
    150  CA        10.5090   27.9970  -16.1730 C.3   408  THR408      0.1862
    151  C          9.6920   29.1710  -16.7130 C.2   408  THR408      0.2287
    152  O          8.4930   29.2680  -16.4500 O.2   408  THR408     -0.2866
    153  CB        11.0260   28.2950  -14.7450 C.3   408  THR408      0.1770
    154  OG1       12.1120   29.2270  -14.8020 O.3   408  THR408     -0.2211
    155  CG2       11.5050   27.0080  -14.0750 C.3   408  THR408      0.0375
@<TRIPOS>BOND
     1   137   138    1
     2   138   139    1
     3   138   141    1
     4   139   140    2
     5   141   142    1
     6     4     3    2
     7    17    18    2
     8    17    16    1
     9    23    24    1
    10   117   116    2
    11   114   115    1
    12     1     2    1
    13   149   150    1
    14   128   127    2
    15     3     2    1
    16     3    15   am
    17   142   143   ar
    18   142   144   ar
    19   116   115    1
    20    26    25    2
    21   151   152    2
    22   151   150    1
    23    16    15    1
    24    16    19    1
    25     2     5    1
    26   143   145   ar
    27    25    24    1
    28   125   126    1
    29   115   118    1
    30   144   146   ar
    31    24    27    1
    32   150   153    1
    33   127   126    1
    34    19    20    1
    35   126   129    1
    36   145   147   ar
    37    27    28    1
    38     5     6    1
    39   118   119    1
    40   146   147   ar
    41   154   153    1
    42   153   155    1
    43    28    30    1
    44    28    29    1
    45     6     7   ar
    46     6     8   ar
    47   147   148    1
    48     7     9   ar
    49    20    21   ar
    50    20    22   ar
    51   129   130    1
    52   119   121   ar
    53   119   120   ar
    54   121   123   ar
    55     8    11   ar
    56     8    10   ar
    57     9    10   ar
    58    11    13   ar
    59    10    12   ar
    60   120   122   ar
    61   123   124   ar
    62   130   131   ar
    63   130   132   ar
    64    56    55    2
    65    13    14   ar
    66    12    14   ar
    67   131   133   ar
    68    55    54    1
    69    90    89    2
    70   132   134   ar
    71   122   124   ar
    72    43    41    1
    73    39    40    2
    74    39    38    1
    75    95    93   ar
    76    89    88    1
    77   110   109    2
    78   133   135   ar
    79    38    41    1
    80    38    37    1
    81    54    53    1
    82    54    57    1
    83   109   108    1
    84   134   135   ar
    85    93    92    1
    86    93    94   ar
    87    41    42    1
    88    92    91    1
    89   135   136    1
    90   108   107    1
    91   108   111    1
    92   107   113    1
    93    88    91    1
    94    88    87    1
    95    70    69    2
    96    69    68    1
    97    57    58    1
    98   111   112    1
    99   113   112    1
   100    59    58   ar
   101    59    61   ar
   102    58    60   ar
   103    46    47    2
   104    46    45    1
   105    68    71    1
   106    68    67    1
   107    71    72    1
   108    96    97    1
   109    72    73    1
   110    61    62   ar
   111    73    74    1
   112    45    48    1
   113    45    44    1
   114   101   102    1
   115   101   100    1
   116    60    62   ar
   117    60    63   ar
   118    31    32    1
   119    34    33    2
   120    97   100    1
   121    97    98    1
   122    74    75    2
   123    48    49    1
   124    51    50    2
   125    32    33    1
   126    32    35    1
   127    62    64   ar
   128    63    65   ar
   129   102   103    1
   130    49    50    1
   131    98    99    2
   132    50    52   am
   133   103   104    2
   134    81    80    2
   135    75    77    1
   136    75    76    1
   137    80    79    1
   138    35    36    1
   139    64    66   ar
   140    65    66   ar
   141   104   106    1
   142   104   105    1
   143    79    82    1
   144    79    78    1
   145    86    84   ar
   146    82    83    1
   147    84    83    1
   148    84    85   ar
