@<TRIPOS>MOLECULE
tmp/3om7A00.pdb
 143 136 0 0 0
SMALL
GASTEIGER

@<TRIPOS>ATOM
      1  N         29.7500    8.4330   38.4930 N.3    61  TRP61      -0.1227
      2  CA        30.1620    8.3310   37.1000 C.3    61  TRP61       0.1737
      3  C         29.5530    7.0980   36.4200 C.2    61  TRP61       0.2595
      4  O         28.3270    6.9200   36.4460 O.2    61  TRP61      -0.2718
      5  CB        31.6960    8.3480   36.9980 C.3    61  TRP61       0.0564
      6  CG        32.3400    9.4810   37.7550 C.ar   61  TRP61       0.0003
      7  CD1       32.2210   10.8170   37.4880 C.ar   61  TRP61       0.0946
      8  CD2       33.2060    9.3770   38.8960 C.ar   61  TRP61       0.0152
      9  NE1       32.9490   11.5480   38.3940 N.ar   61  TRP61      -0.2442
     10  CE2       33.5670   10.6930   39.2660 C.ar   61  TRP61       0.0810
     11  CE3       33.7120    8.3020   39.6420 C.ar   61  TRP61       0.0012
     12  CZ2       34.4140   10.9660   40.3510 C.ar   61  TRP61       0.0191
     13  CZ3       34.5590    8.5760   40.7250 C.ar   61  TRP61       0.0001
     14  CH2       34.8960    9.8980   41.0650 C.ar   61  TRP61       0.0015
     15  N         30.4000    6.2580   35.8210 N.am   62  ASP62      -0.1974
     16  CA        29.9620    5.0730   35.0690 C.3    62  ASP62       0.1709
     17  C         28.9440    4.2340   35.8300 C.2    62  ASP62       0.2293
     18  O         29.2120    3.7900   36.9440 O.2    62  ASP62      -0.2864
     19  CB        31.1520    4.1730   34.7250 C.3    62  ASP62       0.1436
     20  CG        32.1690    4.8510   33.8300 C.2    62  ASP62       0.3671
     21  OD1       32.5240    4.2610   32.7880 O.co2  62  ASP62      -0.2456
     22  OD2       32.6220    5.9610   34.1700 O.co2  62  ASP62      -0.2456
     23  N         30.1090    3.5780   39.4970 N.3    85  LEU85      -0.1245
     24  CA        31.3860    4.0450   40.0220 C.3    85  LEU85       0.1561
     25  C         31.1710    5.4180   40.6390 C.2    85  LEU85       0.2260
     26  O         30.4590    6.2550   40.0770 O.2    85  LEU85      -0.2867
     27  CB        32.4550    4.1220   38.9180 C.3    85  LEU85       0.0270
     28  CG        32.7260    2.8970   38.0300 C.3    85  LEU85       0.0019
     29  CD1       33.8710    3.1650   37.0650 C.3    85  LEU85       0.0001
     30  CD2       33.0140    1.6520   38.8550 C.3    85  LEU85       0.0001
     31  N         40.5390   12.0520   44.2570 N.3    92  SER92      -0.1217
     32  CA        40.7830   12.1550   42.8080 C.3    92  SER92       0.1889
     33  C         40.7760   10.8140   42.0740 C.2    92  SER92       0.2288
     34  O         39.8590   10.5340   41.2980 O.2    92  SER92      -0.2866
     35  CB        42.0520   12.9690   42.4930 C.3    92  SER92       0.2089
     36  OG        43.2310   12.2700   42.8570 O.3    92  SER92      -0.2183
     37  N         38.1750    5.3350   43.1480 N.3    95  THR95      -0.1218
     38  CA        36.7980    5.0410   42.7350 C.3    95  THR95       0.1862
     39  C         36.3910    3.6330   43.1660 C.2    95  THR95       0.2287
     40  O         37.1920    2.6950   43.0910 O.2    95  THR95      -0.2866
     41  CB        36.5500    5.1950   41.1950 C.3    95  THR95       0.1770
     42  OG1       36.7610    3.9380   40.5340 O.3    95  THR95      -0.2211
     43  CG2       37.4530    6.2540   40.5690 C.3    95  THR95       0.0375
     44  N         41.8770    0.2250   42.6320 N.3   137  GLN137     -0.1245
     45  CA        40.6310    0.8560   42.1750 C.3   137  GLN137      0.1566
     46  C         39.6510   -0.1550   41.5820 C.2   137  GLN137      0.2260
     47  O         40.0520   -1.2080   41.0710 O.2   137  GLN137     -0.2867
     48  CB        40.9060    1.9530   41.1390 C.3   137  GLN137      0.0367
     49  CG        41.6420    3.1880   41.6550 C.3   137  GLN137      0.0905
     50  CD        41.6480    4.3190   40.6450 C.2   137  GLN137      0.2608
     51  OE1       40.5970    4.7070   40.1250 O.2   137  GLN137     -0.2717
     52  NE2       42.8340    4.8600   40.3630 N.am  137  GLN137     -0.0878
     53  N         36.8520   -0.4540   38.6640 N.3   139  TRP139     -0.1227
     54  CA        36.4090    0.1650   37.4140 C.3   139  TRP139      0.1737
     55  C         35.2020   -0.5750   36.8180 C.2   139  TRP139      0.2596
     56  O         34.7080   -1.5290   37.4210 O.2   139  TRP139     -0.2718
     57  CB        37.5820    0.2510   36.4310 C.3   139  TRP139      0.0564
     58  CG        38.5740    1.3680   36.7330 C.ar  139  TRP139      0.0003
     59  CD1       38.6030    2.1840   37.8370 C.ar  139  TRP139      0.0946
     60  CD2       39.6850    1.7650   35.9190 C.ar  139  TRP139      0.0152
     61  NE1       39.6540    3.0670   37.7490 N.ar  139  TRP139     -0.2442
     62  CE2       40.3350    2.8290   36.5840 C.ar  139  TRP139      0.0810
     63  CE3       40.1920    1.3250   34.6880 C.ar  139  TRP139      0.0012
     64  CZ2       41.4660    3.4640   36.0550 C.ar  139  TRP139      0.0191
     65  CZ3       41.3190    1.9560   34.1660 C.ar  139  TRP139      0.0001
     66  CH2       41.9380    3.0160   34.8480 C.ar  139  TRP139      0.0015
     67  N         34.7390   -0.1400   35.6430 N.am  140  SER140     -0.1952
     68  CA        33.4330   -0.5680   35.0930 C.3   140  SER140      0.1924
     69  C         33.2660   -2.0560   34.7870 C.2   140  SER140      0.2314
     70  O         34.2390   -2.8070   34.6930 O.2   140  SER140     -0.2863
     71  CB        33.0690    0.2350   33.8410 C.3   140  SER140      0.2116
     72  OG        32.6990    1.5590   34.1650 O.3   140  SER140     -0.2180
     73  N         39.2150   -4.0160   30.2890 N.3   223  ARG223     -0.1231
     74  CA        38.2040   -3.5440   31.2200 C.3   223  ARG223      0.1694
     75  C         36.7880   -3.5380   30.6540 C.2   223  ARG223      0.2592
     76  O         36.5570   -3.9690   29.5180 O.2   223  ARG223     -0.2718
     77  CB        38.5820   -2.1460   31.7380 C.3   223  ARG223      0.0321
     78  CG        38.6970   -1.0450   30.6890 C.3   223  ARG223      0.0489
     79  CD        38.9240    0.2880   31.3840 C.3   223  ARG223      0.2205
     80  NE        39.0360    1.4090   30.4590 N.pl3 223  ARG223     -0.0865
     81  CZ        40.1830    1.9840   30.1020 C.cat 223  ARG223      0.5346
     82  NH1       41.3390    1.5450   30.5840 N.pl3 223  ARG223      0.1354
     83  NH2       40.1710    3.0060   29.2580 N.pl3 223  ARG223      0.1354
     84  N         35.8580   -3.0560   31.4800 N.am  224  ASP224     -0.1974
     85  CA        34.4380   -2.9030   31.1410 C.3   224  ASP224      0.1709
     86  C         33.7840   -4.2060   30.6310 C.2   224  ASP224      0.2293
     87  O         33.1690   -4.2080   29.5600 O.2   224  ASP224     -0.2864
     88  CB        34.2330   -1.7500   30.1360 C.3   224  ASP224      0.1436
     89  CG        34.8400   -0.4260   30.6050 C.2   224  ASP224      0.3671
     90  OD1       35.4160   -0.3700   31.7100 O.co2 224  ASP224     -0.2456
     91  OD2       34.7410    0.5720   29.8570 O.co2 224  ASP224     -0.2456
     92  N         41.6240    3.3780   22.4200 N.3   317  GLU317     -0.1245
     93  CA        40.6110    3.3880   23.4770 C.3   317  GLU317      0.1567
     94  C         39.1580    3.3510   22.9770 C.2   317  GLU317      0.2260
     95  O         38.5380    4.3920   22.7430 O.2   317  GLU317     -0.2867
     96  CB        40.8470    4.5950   24.3970 C.3   317  GLU317      0.0388
     97  CG        40.0280    4.6060   25.6750 C.3   317  GLU317      0.1160
     98  CD        40.4890    5.6710   26.6410 C.2   317  GLU317      0.3649
     99  OE1       41.3740    5.3760   27.4730 O.co2 317  GLU317     -0.2457
    100  OE2       39.9700    6.8040   26.5680 O.co2 317  GLU317     -0.2457
    101  N         35.7460    2.1250   24.5120 N.3   319  GLU319     -0.1245
    102  CA        35.3280    1.8180   25.8810 C.3   319  GLU319      0.1567
    103  C         33.8870    1.3420   26.0220 C.2   319  GLU319      0.2260
    104  O         33.1180    1.3300   25.0550 O.2   319  GLU319     -0.2867
    105  CB        35.5110    3.0480   26.7750 C.3   319  GLU319      0.0388
    106  CG        36.9120    3.6140   26.8080 C.3   319  GLU319      0.1160
    107  CD        37.0430    4.7570   27.7840 C.2   319  GLU319      0.3649
    108  OE1       36.5630    5.8670   27.4770 O.co2 319  GLU319     -0.2457
    109  OE2       37.6380    4.5520   28.8590 O.co2 319  GLU319     -0.2457
    110  N         36.5260    8.6030   22.5180 N.3   337  ARG337     -0.1245
    111  CA        36.8920   10.0110   22.5870 C.3   337  ARG337      0.1563
    112  C         37.6180   10.4440   21.3200 C.2   337  ARG337      0.2260
    113  O         38.5910    9.8100   20.9050 O.2   337  ARG337     -0.2867
    114  CB        37.7980   10.2680   23.7920 C.3   337  ARG337      0.0307
    115  CG        37.0760   10.3930   25.1190 C.3   337  ARG337      0.0489
    116  CD        38.0290   10.9020   26.1830 C.3   337  ARG337      0.2205
    117  NE        38.8510    9.8390   26.7580 N.pl3 337  ARG337     -0.0865
    118  CZ        40.0400   10.0330   27.3240 C.cat 337  ARG337      0.5346
    119  NH1       40.5710   11.2480   27.3780 N.pl3 337  ARG337      0.1354
    120  NH2       40.7080    9.0080   27.8280 N.pl3 337  ARG337      0.1354
    121  N         26.2550    9.4610   32.3010 N.3   406  TYR406     -0.1241
    122  CA        26.4110   10.3360   33.4540 C.3   406  TYR406      0.1605
    123  C         26.6690   11.7690   33.0260 C.2   406  TYR406      0.2264
    124  O         27.2920   12.0180   31.9950 O.2   406  TYR406     -0.2867
    125  CB        27.4580    9.8170   34.4590 C.3   406  TYR406      0.0534
    126  CG        28.9240    9.8810   34.0620 C.ar  406  TYR406     -0.0201
    127  CD1       29.5680    8.7660   33.5200 C.ar  406  TYR406     -0.0009
    128  CD2       29.6860   11.0280   34.2960 C.ar  406  TYR406     -0.0009
    129  CE1       30.9190    8.8030   33.1910 C.ar  406  TYR406      0.0417
    130  CE2       31.0410   11.0750   33.9660 C.ar  406  TYR406      0.0417
    131  CZ        31.6490    9.9590   33.4120 C.ar  406  TYR406      0.1957
    132  OH        32.9860    9.9940   33.0840 O.3   406  TYR406     -0.2866
    133  N         29.2460   20.1180   36.2820 N.3   410  ARG410     -0.1245
    134  CA        30.1530   21.0840   36.9180 C.3   410  ARG410      0.1563
    135  C         29.6460   22.5270   36.8290 C.2   410  ARG410      0.2260
    136  O         30.3810   23.4410   36.4310 O.2   410  ARG410     -0.2867
    137  CB        31.5750   20.9670   36.3540 C.3   410  ARG410      0.0307
    138  CG        32.2020   19.5940   36.4990 C.3   410  ARG410      0.0489
    139  CD        33.5260   19.5180   35.7490 C.3   410  ARG410      0.2205
    140  NE        33.8000   18.1610   35.2760 N.pl3 410  ARG410     -0.0865
    141  CZ        34.3770   17.2030   35.9980 C.cat 410  ARG410      0.5346
    142  NH1       34.7680   17.4310   37.2490 N.pl3 410  ARG410      0.1354
    143  NH2       34.5660   16.0040   35.4620 N.pl3 410  ARG410      0.1354
@<TRIPOS>BOND
     1   113   112    2
     2   112   111    1
     3    92    93    1
     4   110   111    1
     5   111   114    1
     6    95    94    2
     7    94    93    1
     8    93    96    1
     9   114   115    1
    10    96    97    1
    11   101   102    1
    12   104   103    2
    13   115   116    1
    14    97    98    1
    15   102   103    1
    16   102   105    1
    17   116   117    1
    18   100    98   ar
    19    98    99   ar
    20   117   118    2
    21   105   106    1
    22   106   107    1
    23   118   119    1
    24   118   120    1
    25   108   107   ar
    26   107   109   ar
    27    83    81    1
    28    76    75    2
    29    87    86    2
    30    91    89   ar
    31    81    80    2
    32    81    82    1
    33    88    89    1
    34    88    85    1
    35    73    74    1
    36    80    79    1
    37    89    90   ar
    38    86    85    1
    39    75    74    1
    40    75    84   am
    41    78    79    1
    42    78    77    1
    43    85    84    1
    44    74    77    1
    45   124   123    2
    46   121   122    1
    47    21    20   ar
    48   123   122    1
    49   132   131    1
    50   129   131   ar
    51   129   127   ar
    52   131   130   ar
    53   122   125    1
    54   127   126   ar
    55    20    22   ar
    56    20    19    1
    57    71    72    1
    58    71    68    1
    59   130   128   ar
    60   126   128   ar
    61   126   125    1
    62    65    63   ar
    63    65    66   ar
    64    63    60   ar
    65    70    69    2
    66    19    16    1
    67    69    68    1
    68    66    64   ar
    69    16    15    1
    70    16    17    1
    71    68    67    1
    72   140   139    1
    73   140   141    2
    74   143   141    1
    75    67    55   am
    76   139   138    1
    77    15     3   am
    78    17    18    2
    79    60    62   ar
    80    60    58   ar
    81   141   142    1
    82    64    62   ar
    83   133   134    1
    84   137   138    1
    85   137   134    1
    86     3     4    2
    87     3     2    1
    88    57    58    1
    89    57    54    1
    90   136   135    2
    91    62    61   ar
    92    58    59   ar
    93    55    54    1
    94    55    56    2
    95   135   134    1
    96     5     2    1
    97     5     6    1
    98    29    28    1
    99     2     1    1
   100    54    53    1
   101     7     6   ar
   102     7     9   ar
   103    61    59   ar
   104     6     8   ar
   105    28    30    1
   106    28    27    1
   107     9    10   ar
   108     8    10   ar
   109     8    11   ar
   110    27    24    1
   111    10    12   ar
   112    23    24    1
   113    11    13   ar
   114    24    25    1
   115    26    25    2
   116    51    50    2
   117    12    14   ar
   118    52    50   am
   119    42    41    1
   120    43    41    1
   121    50    49    1
   122    13    14   ar
   123    47    46    2
   124    48    49    1
   125    48    45    1
   126    41    38    1
   127    34    33    2
   128    46    45    1
   129    33    32    1
   130    45    44    1
   131    35    32    1
   132    35    36    1
   133    38    37    1
   134    38    39    1
   135    32    31    1
   136    40    39    2
