@<TRIPOS>MOLECULE
tmp/3om9B01.pdb
 114 105 0 0 0
SMALL
GASTEIGER

@<TRIPOS>ATOM
      1  N        -15.5930  -13.3480   50.5310 N.3    18  ILE18      -0.1245
      2  CA       -14.5760  -13.1940   51.5670 C.3    18  ILE18       0.1561
      3  C        -13.6390  -12.0290   51.2850 C.2    18  ILE18       0.2260
      4  O        -13.2940  -11.2770   52.1950 O.2    18  ILE18      -0.2867
      5  CB       -13.7610  -14.4860   51.7320 C.3    18  ILE18       0.0252
      6  CG1      -14.7150  -15.6390   52.0460 C.3    18  ILE18       0.0019
      7  CG2      -12.7450  -14.3350   52.8740 C.3    18  ILE18       0.0019
      8  CD1      -14.0360  -16.9530   52.1860 C.3    18  ILE18       0.0001
      9  N        -15.9790  -22.1270   45.0730 N.3    87  THR87      -0.1218
     10  CA       -16.5040  -22.5060   46.3770 C.3    87  THR87       0.1862
     11  C        -17.2570  -23.8280   46.2800 C.2    87  THR87       0.2287
     12  O        -17.2830  -24.6100   47.2310 O.2    87  THR87      -0.2866
     13  CB       -17.4850  -21.4480   46.9000 C.3    87  THR87       0.1770
     14  OG1      -18.4430  -21.1480   45.8740 O.3    87  THR87      -0.2211
     15  CG2      -16.7530  -20.1820   47.2940 C.3    87  THR87       0.0375
     16  N        -21.3150  -31.5970   49.1880 N.3    97  TRP97      -0.1241
     17  CA       -20.2790  -30.5740   49.1870 C.3    97  TRP97       0.1605
     18  C        -19.0100  -31.0650   49.8590 C.2    97  TRP97       0.2264
     19  O        -19.0430  -31.5640   50.9810 O.2    97  TRP97      -0.2867
     20  CB       -20.7650  -29.3140   49.9060 C.3    97  TRP97       0.0550
     21  CG       -19.7430  -28.2140   49.9150 C.ar   97  TRP97       0.0003
     22  CD1      -19.3790  -27.4200   48.8630 C.ar   97  TRP97       0.0946
     23  CD2      -18.9380  -27.8010   51.0270 C.ar   97  TRP97       0.0152
     24  NE1      -18.3990  -26.5370   49.2510 N.ar   97  TRP97      -0.2442
     25  CE2      -18.1080  -26.7490   50.5740 C.ar   97  TRP97       0.0810
     26  CE3      -18.8360  -28.2170   52.3630 C.ar   97  TRP97       0.0012
     27  CZ2      -17.1870  -26.1060   51.4110 C.ar   97  TRP97       0.0191
     28  CZ3      -17.9190  -27.5770   53.1970 C.ar   97  TRP97       0.0001
     29  CH2      -17.1070  -26.5320   52.7160 C.ar   97  TRP97       0.0015
     30  N        -14.6900  -29.9060   50.1250 N.3    99  ARG99      -0.1245
     31  CA       -13.6210  -28.9870   49.7800 C.3    99  ARG99       0.1563
     32  C        -12.6070  -29.6630   48.8600 C.2    99  ARG99       0.2260
     33  O        -11.9690  -29.0050   48.0410 O.2    99  ARG99      -0.2867
     34  CB       -12.9220  -28.5050   51.0490 C.3    99  ARG99       0.0307
     35  CG       -13.8710  -27.9290   52.0920 C.3    99  ARG99       0.0489
     36  CD       -13.1110  -27.5400   53.3450 C.3    99  ARG99       0.2205
     37  NE       -13.9590  -26.9130   54.3570 N.pl3  99  ARG99      -0.0865
     38  CZ       -14.8180  -27.5620   55.1380 C.cat  99  ARG99       0.5346
     39  NH1      -14.9670  -28.8790   55.0340 N.pl3  99  ARG99       0.1354
     40  NH2      -15.5180  -26.8900   56.0430 N.pl3  99  ARG99       0.1354
     41  N        -12.7870  -29.3270   45.0050 N.3   102  LEU102     -0.1245
     42  CA       -12.3520  -28.0700   44.4090 C.3   102  LEU102      0.1561
     43  C        -10.9030  -28.1230   43.9340 C.2   102  LEU102      0.2260
     44  O        -10.4510  -27.2380   43.2170 O.2   102  LEU102     -0.2867
     45  CB       -12.5100  -26.9290   45.4240 C.3   102  LEU102      0.0270
     46  CG       -13.8940  -26.7690   46.0600 C.3   102  LEU102      0.0019
     47  CD1      -13.8460  -25.7260   47.1720 C.3   102  LEU102      0.0001
     48  CD2      -14.9040  -26.3720   44.9930 C.3   102  LEU102      0.0001
     49  N         -9.7140  -23.1270   49.0770 N.3   131  ASN131     -0.1240
     50  CA        -9.7370  -24.5680   49.3420 C.3   131  ASN131      0.1653
     51  C         -9.3180  -25.3760   48.1110 C.2   131  ASN131      0.2266
     52  O         -9.4190  -24.8900   46.9830 O.2   131  ASN131     -0.2867
     53  CB       -11.1400  -25.0070   49.7590 C.3   131  ASN131      0.1155
     54  CG       -11.3610  -24.9110   51.2500 C.2   131  ASN131      0.2627
     55  OD1      -10.5770  -25.4410   52.0380 O.2   131  ASN131     -0.2716
     56  ND2      -12.4410  -24.2500   51.6480 N.am  131  ASN131     -0.0877
     57  N        -11.1340  -20.4430   62.1930 N.3   158  LEU158     -0.1245
     58  CA       -12.5550  -20.4700   61.8560 C.3   158  LEU158      0.1561
     59  C        -13.1760  -21.6880   62.5190 C.2   158  LEU158      0.2260
     60  O        -14.2110  -21.5910   63.1920 O.2   158  LEU158     -0.2867
     61  CB       -12.7440  -20.5750   60.3370 C.3   158  LEU158      0.0270
     62  CG       -14.1590  -20.8860   59.8340 C.3   158  LEU158      0.0019
     63  CD1      -15.1100  -19.7630   60.2390 C.3   158  LEU158      0.0001
     64  CD2      -14.1450  -21.0420   58.3180 C.3   158  LEU158      0.0001
     65  N        -15.9090  -21.7660   65.6680 N.3   162  ARG162     -0.1245
     66  CA       -17.1800  -22.4770   65.6970 C.3   162  ARG162      0.1563
     67  C        -17.2240  -23.3210   66.9670 C.2   162  ARG162      0.2260
     68  O        -18.1930  -23.2900   67.7300 O.2   162  ARG162     -0.2867
     69  CB       -17.2930  -23.3580   64.4520 C.3   162  ARG162      0.0307
     70  CG       -17.4990  -22.5350   63.1990 C.3   162  ARG162      0.0489
     71  CD       -17.2340  -23.2980   61.9190 C.3   162  ARG162      0.2205
     72  NE       -17.6230  -22.4720   60.7830 N.pl3 162  ARG162     -0.0865
     73  CZ       -17.3510  -22.7480   59.5130 C.cat 162  ARG162      0.5346
     74  NH1      -16.6740  -23.8450   59.1910 N.pl3 162  ARG162      0.1354
     75  NH2      -17.7590  -21.9150   58.5650 N.pl3 162  ARG162      0.1354
     76  N         -8.2110  -28.8300   57.1570 N.3   186  HIS186     -0.1241
     77  CA        -9.5500  -28.2080   57.1230 C.3   186  HIS186      0.1621
     78  C        -10.3990  -29.0050   56.1520 C.2   186  HIS186      0.2264
     79  O        -10.2870  -28.8680   54.9320 O.2   186  HIS186     -0.2867
     80  CB        -9.4380  -26.7460   56.6730 C.3   186  HIS186      0.0745
     81  CG       -10.7440  -26.0060   56.6840 C.ar  186  HIS186      0.0817
     82  ND1      -11.4710  -25.8410   57.8410 N.ar  186  HIS186     -0.2268
     83  CD2      -11.4270  -25.3460   55.7140 C.ar  186  HIS186      0.1154
     84  CE1      -12.5380  -25.1050   57.5880 C.ar  186  HIS186      0.1986
     85  NE2      -12.5330  -24.7880   56.3060 N.ar  186  HIS186     -0.2212
     86  N        -19.1550  -26.2520   58.0900 N.3   229  GLY229     -0.1225
     87  CA       -19.0090  -25.6880   56.7590 C.3   229  GLY229      0.1811
     88  C        -20.1270  -26.1280   55.8310 C.2   229  GLY229      0.2280
     89  O        -20.7760  -25.3020   55.1900 O.2   229  GLY229     -0.2866
     90  N        -23.2510  -24.1330   53.8820 N.3   233  VAL233     -0.1245
     91  CA       -23.4030  -24.2650   52.4400 C.3   233  VAL233      0.1561
     92  C        -24.8350  -24.6620   52.1080 C.2   233  VAL233      0.2260
     93  O        -25.4790  -24.0580   51.2460 O.2   233  VAL233     -0.2867
     94  CB       -22.4550  -25.3400   51.8860 C.3   233  VAL233      0.0252
     95  CG1      -22.8490  -25.7030   50.4740 C.3   233  VAL233      0.0019
     96  CG2      -21.0290  -24.8380   51.9250 C.3   233  VAL233      0.0019
     97  N        -20.5920  -20.1140   50.0630 N.3   240  SER240     -0.1202
     98  CA       -20.3140  -20.6680   51.3820 C.3   240  SER240      0.2020
     99  C        -20.0370  -19.5670   52.4020 C.2   240  SER240      0.2618
    100  O        -20.1310  -18.3820   52.0850 O.2   240  SER240     -0.2717
    101  CB       -19.1450  -21.6550   51.2920 C.3   240  SER240      0.2103
    102  OG       -18.1600  -21.2080   50.3740 O.3   240  SER240     -0.2182
    103  N        -19.6970  -19.9590   53.6280 N.am  241  ALA241     -0.1979
    104  CA       -19.4500  -18.9940   54.6960 C.3   241  ALA241      0.1597
    105  C        -18.4020  -17.9410   54.3540 C.2   241  ALA241      0.2287
    106  O        -17.4170  -18.2270   53.6700 O.2   241  ALA241     -0.2864
    107  CB       -19.0500  -19.7250   55.9740 C.3   241  ALA241      0.0319
    108  N        -14.9730  -16.4810   58.1540 N.3   245  PRO245     -0.2116
    109  CA       -13.7160  -16.7240   57.4400 C.3   245  PRO245      0.1372
    110  C        -12.9510  -15.4110   57.2660 C.2   245  PRO245      0.2244
    111  O        -11.7520  -15.3500   57.5160 O.2   245  PRO245     -0.2868
    112  CB       -14.1880  -17.2990   56.1080 C.3   245  PRO245      0.0268
    113  CG       -15.3960  -18.1000   56.5260 C.3   245  PRO245      0.0207
    114  CD       -16.0990  -17.1440   57.4660 C.3   245  PRO245      0.0892
@<TRIPOS>BOND
     1    44    43    2
     2    43    42    1
     3    42    41    1
     4    42    45    1
     5    48    46    1
     6     9    10    1
     7    45    46    1
     8    14    13    1
     9    46    47    1
    10    11    10    1
    11    11    12    2
    12    10    13    1
    13    13    15    1
    14    52    51    2
    15    33    32    2
    16    51    50    1
    17    32    31    1
    18    22    24   ar
    19    22    21   ar
    20    49    50    1
    21    17    16    1
    22    17    18    1
    23    17    20    1
    24    24    25   ar
    25    50    53    1
    26    53    54    1
    27    31    30    1
    28    31    34    1
    29    18    19    2
    30    20    21    1
    31    21    23   ar
    32    97    98    1
    33   102   101    1
    34    95    94    1
    35     1     2    1
    36    25    23   ar
    37    25    27   ar
    38    23    26   ar
    39    34    35    1
    40    93    92    2
    41    54    56   am
    42    54    55    2
    43     3     2    1
    44     3     4    2
    45   101    98    1
    46    98    99    1
    47    27    29   ar
    48     2     5    1
    49     5     6    1
    50     5     7    1
    51    94    96    1
    52    94    91    1
    53     6     8    1
    54   100    99    2
    55    35    36    1
    56    92    91    1
    57    26    28   ar
    58    99   103   am
    59    91    90    1
    60    29    28   ar
    61    36    37    1
    62   103   104    1
    63   106   105    2
    64   105   104    1
    65    37    38    2
    66   104   107    1
    67    79    78    2
    68    39    38    1
    69    38    40    1
    70    89    88    2
    71    83    85   ar
    72    83    81   ar
    73    88    87    1
    74   112   113    1
    75   112   109    1
    76    78    77    1
    77    85    84   ar
    78   113   114    1
    79    80    81    1
    80    80    77    1
    81    81    82   ar
    82    87    86    1
    83    77    76    1
    84   110   109    1
    85   110   111    2
    86   109   108    1
    87   114   108    1
    88    84    82   ar
    89    64    62    1
    90    75    73    1
    91    74    73    1
    92    73    72    2
    93    62    63    1
    94    62    61    1
    95    61    58    1
    96    72    71    1
    97    58    57    1
    98    58    59    1
    99    71    70    1
   100    59    60    2
   101    70    69    1
   102    69    66    1
   103    65    66    1
   104    66    67    1
   105    67    68    2
