@<TRIPOS>MOLECULE
tmp/3omcA00.pdb
 175 168 0 0 0
SMALL
GASTEIGER

@<TRIPOS>ATOM
      1  N         12.9730    3.1980    6.8380 N.3     6  PHE6       -0.1241
      2  CA        12.7720    1.9080    6.1960 C.3     6  PHE6        0.1605
      3  C         11.3270    1.4860    6.3890 C.2     6  PHE6        0.2264
      4  O         10.8700    1.3200    7.5210 O.2     6  PHE6       -0.2867
      5  CB        13.6990    0.8440    6.8000 C.3     6  PHE6        0.0534
      6  CG        13.7060   -0.4420    6.0310 C.ar    6  PHE6       -0.0203
      7  CD1       14.4990   -0.5790    4.8790 C.ar    6  PHE6       -0.0042
      8  CD2       12.9090   -1.5200    6.4430 C.ar    6  PHE6       -0.0042
      9  CE1       14.4990   -1.7740    4.1510 C.ar    6  PHE6       -0.0003
     10  CE2       12.9000   -2.7250    5.7220 C.ar    6  PHE6       -0.0003
     11  CZ        13.6830   -2.8570    4.5770 C.ar    6  PHE6       -0.0000
     12  N          8.3690   -0.9780    6.5850 N.3     8  THR8       -0.1203
     13  CA         8.2860   -2.3980    6.9520 C.3     8  THR8        0.1994
     14  C          6.9710   -3.0730    6.5630 C.2     8  THR8        0.2617
     15  O          6.9780   -4.1870    6.0340 O.2     8  THR8       -0.2717
     16  CB         8.5040   -2.6200    8.4450 C.3     8  THR8        0.1784
     17  OG1        7.6770   -1.7130    9.1830 O.3     8  THR8       -0.2211
     18  CG2        9.9610   -2.3460    8.8020 C.3     8  THR8        0.0376
     19  N          5.8510   -2.4360    6.8880 N.am    9  GLU9       -0.1979
     20  CA         4.5320   -3.0530    6.7000 C.3     9  GLU9        0.1602
     21  C          3.5570   -2.0400    6.1300 C.2     9  GLU9        0.2287
     22  O          3.6110   -0.8660    6.5020 O.2     9  GLU9       -0.2864
     23  CB         3.9690   -3.6000    8.0160 C.3     9  GLU9        0.0415
     24  CG         4.7820   -4.7320    8.6700 C.3     9  GLU9        0.1163
     25  CD         4.8070   -6.0320    7.8630 C.2     9  GLU9        0.3649
     26  OE1        3.7890   -6.3830    7.2350 O.co2   9  GLU9       -0.2457
     27  OE2        5.8560   -6.7180    7.8740 O.co2   9  GLU9       -0.2457
     28  N         10.6860    2.2810   10.1860 N.3    19  GLN19      -0.1231
     29  CA        11.7860    2.3720   11.1270 C.3    19  GLN19       0.1698
     30  C         12.6760    3.5350   10.7200 C.2    19  GLN19       0.2592
     31  O         12.9060    3.7550    9.5270 O.2    19  GLN19      -0.2718
     32  CB        12.6390    1.1030   11.0830 C.3    19  GLN19       0.0381
     33  CG        11.8730   -0.1630   11.4070 C.3    19  GLN19       0.0905
     34  CD        12.7120   -1.4110   11.1880 C.2    19  GLN19       0.2608
     35  OE1       13.6160   -1.4330   10.3390 O.2    19  GLN19      -0.2717
     36  NE2       12.3980   -2.4640   11.9260 N.am   19  GLN19      -0.0878
     37  N         13.1680    4.2640   11.7150 N.am   20  ASP20      -0.1960
     38  CA        14.1030    5.3670   11.4950 C.3    20  ASP20       0.1840
     39  C         15.4790    4.7770   11.1440 C.2    20  ASP20       0.2622
     40  O         16.0470    4.0060   11.9280 O.2    20  ASP20      -0.2715
     41  CB        14.1610    6.2180   12.7710 C.3    20  ASP20       0.1450
     42  CG        15.1650    7.3470   12.6970 C.2    20  ASP20       0.3671
     43  OD1       15.7860    7.5600   11.6380 O.co2  20  ASP20      -0.2456
     44  OD2       15.3310    8.0290   13.7280 O.co2  20  ASP20      -0.2456
     45  N         16.0150    5.1210    9.9740 N.am   21  VAL21      -0.1963
     46  CA        17.3170    4.5750    9.5640 C.3    21  VAL21       0.1727
     47  C         18.4130    4.9660   10.5630 C.2    21  VAL21       0.2616
     48  O         19.2920    4.1460   10.8630 O.2    21  VAL21      -0.2715
     49  CB        17.6860    4.9270    8.0920 C.3    21  VAL21       0.0290
     50  CG1       19.1600    4.6070    7.7890 C.3    21  VAL21       0.0023
     51  CG2       16.7820    4.1650    7.1240 C.3    21  VAL21       0.0023
     52  N         18.3130    6.1730   11.1260 N.am   22  GLU22      -0.1963
     53  CA        19.3380    6.7080   12.0500 C.3    22  GLU22       0.1733
     54  C         19.5010    5.8770   13.3250 C.2    22  GLU22       0.2617
     55  O         20.5360    5.9680   13.9880 O.2    22  GLU22      -0.2715
     56  CB        19.0570    8.1730   12.4460 C.3    22  GLU22       0.0429
     57  CG        18.6460    9.1170   11.3140 C.3    22  GLU22       0.1163
     58  CD        19.7760    9.4560   10.3520 C.2    22  GLU22       0.3649
     59  OE1       20.3860    8.5270    9.7690 O.co2  22  GLU22      -0.2457
     60  OE2       20.0390   10.6650   10.1660 O.co2  22  GLU22      -0.2457
     61  N         18.4910    5.0750   13.6680 N.am   23  THR23      -0.1937
     62  CA        18.5690    4.2290   14.8670 C.3    23  THR23       0.2028
     63  C         18.6140    2.7340   14.5370 C.2    23  THR23       0.2643
     64  O         18.5090    1.8900   15.4220 O.2    23  THR23      -0.2714
     65  CB        17.4270    4.5410   15.8960 C.3    23  THR23       0.1808
     66  OG1       16.1420    4.4270   15.2650 O.3    23  THR23      -0.2208
     67  CG2       17.5790    5.9400   16.4480 C.3    23  THR23       0.0379
     68  N         18.7720    2.4060   13.2580 N.am   24  GLY24      -0.1939
     69  CA        18.8360    1.0070   12.8280 C.3    24  GLY24       0.2014
     70  C         19.9440    0.1810   13.4760 C.2    24  GLY24       0.2639
     71  O         19.7250   -0.9710   13.8380 O.2    24  GLY24      -0.2714
     72  N         21.1350    0.7560   13.6210 N.am   25  THR25      -0.1950
     73  CA        22.2540    0.0080   14.2190 C.3    25  THR25       0.1897
     74  C         22.0450   -0.2050   15.7140 C.2    25  THR25       0.2313
     75  O         22.4470   -1.2310   16.2490 O.2    25  THR25      -0.2863
     76  CB        23.6390    0.6530   13.9590 C.3    25  THR25       0.1794
     77  OG1       23.6880    1.9470   14.5560 O.3    25  THR25      -0.2208
     78  CG2       23.9190    0.7810   12.4730 C.3    25  THR25       0.0378
     79  N         19.0160   -0.5800   17.1380 N.3    27  LEU27      -0.1231
     80  CA        18.1070   -1.7270   17.1770 C.3    27  LEU27       0.1693
     81  C         18.8390   -3.0450   16.9810 C.2    27  LEU27       0.2591
     82  O         18.6010   -4.0120   17.7230 O.2    27  LEU27      -0.2718
     83  CB        16.9880   -1.6050   16.1420 C.3    27  LEU27       0.0284
     84  CG        16.0580   -2.8200   16.0700 C.3    27  LEU27       0.0019
     85  CD1       15.2660   -3.0160   17.3840 C.3    27  LEU27       0.0001
     86  CD2       15.1060   -2.7160   14.8790 C.3    27  LEU27       0.0001
     87  N         19.7170   -3.0970   15.9820 N.am   28  GLU28      -0.1979
     88  CA        20.4190   -4.3590   15.6930 C.3    28  GLU28       0.1602
     89  C         21.2880   -4.8040   16.8770 C.2    28  GLU28       0.2287
     90  O         21.3050   -5.9950   17.2470 O.2    28  GLU28      -0.2864
     91  CB        21.2140   -4.2830   14.3880 C.3    28  GLU28       0.0415
     92  CG        21.9160   -5.5970   13.9900 C.3    28  GLU28       0.1163
     93  CD        21.0080   -6.8420   13.9980 C.2    28  GLU28       0.3649
     94  OE1       19.7870   -6.7370   13.7430 O.co2  28  GLU28      -0.2457
     95  OE2       21.5250   -7.9530   14.2680 O.co2  28  GLU28      -0.2457
     96  N          9.5300  -15.1170   15.9310 N.3    60  PHE60      -0.1241
     97  CA         8.9530  -14.8840   14.6100 C.3    60  PHE60       0.1605
     98  C          9.2490  -16.0610   13.6610 C.2    60  PHE60       0.2264
     99  O          9.9280  -17.0290   14.0440 O.2    60  PHE60      -0.2867
    100  CB         9.5030  -13.5340   14.0990 C.3    60  PHE60       0.0534
    101  CG         8.8870  -13.0410   12.8240 C.ar   60  PHE60      -0.0203
    102  CD1        7.5050  -12.9360   12.6730 C.ar   60  PHE60      -0.0042
    103  CD2        9.7200  -12.6620   11.7540 C.ar   60  PHE60      -0.0042
    104  CE1        6.9370  -12.4740   11.4610 C.ar   60  PHE60      -0.0003
    105  CE2        9.1560  -12.2190   10.5390 C.ar   60  PHE60      -0.0003
    106  CZ         7.7650  -12.1100   10.4100 C.ar   60  PHE60      -0.0000
    107  N         11.0950  -16.4500   11.2000 N.3    62  ASP62      -0.1239
    108  CA        12.5020  -16.6490   10.8690 C.3    62  ASP62       0.1674
    109  C         13.2730  -17.3620   11.9890 C.2    62  ASP62       0.2266
    110  O         14.4890  -17.5530   11.8980 O.2    62  ASP62      -0.2867
    111  CB        13.1550  -15.3120   10.5060 C.3    62  ASP62       0.1410
    112  CG        13.1540  -14.3310   11.6550 C.2    62  ASP62       0.3668
    113  OD1       12.5420  -14.6300   12.7030 O.co2  62  ASP62      -0.2456
    114  OD2       13.7730  -13.2540   11.5190 O.co2  62  ASP62      -0.2456
    115  N         11.9890  -11.4740   18.8400 N.3    66  TYR66      -0.1241
    116  CA        11.8280  -10.0200   18.7020 C.3    66  TYR66       0.1605
    117  C         11.0570   -9.4460   19.8690 C.2    66  TYR66       0.2264
    118  O         10.4220  -10.1910   20.6200 O.2    66  TYR66      -0.2867
    119  CB        11.0690   -9.6810   17.4230 C.3    66  TYR66       0.0534
    120  CG        11.8180  -10.0410   16.1720 C.ar   66  TYR66      -0.0201
    121  CD1       12.5910   -9.0840   15.5160 C.ar   66  TYR66      -0.0009
    122  CD2       11.7590  -11.3410   15.6350 C.ar   66  TYR66      -0.0009
    123  CE1       13.3000   -9.4010   14.3450 C.ar   66  TYR66       0.0417
    124  CE2       12.4840  -11.6750   14.4750 C.ar   66  TYR66       0.0417
    125  CZ        13.2350  -10.6870   13.8380 C.ar   66  TYR66       0.1957
    126  OH        13.9310  -10.9630   12.6870 O.3    66  TYR66      -0.2866
    127  N          4.4890   -6.8370   17.0040 N.3    83  TYR83      -0.1241
    128  CA         5.9460   -6.6800   17.0190 C.3    83  TYR83       0.1605
    129  C          6.2940   -5.2060   16.9870 C.2    83  TYR83       0.2264
    130  O          6.1770   -4.5470   15.9350 O.2    83  TYR83      -0.2867
    131  CB         6.5770   -7.4100   15.8420 C.3    83  TYR83       0.0534
    132  CG         6.5610   -8.9150   15.9900 C.ar   83  TYR83      -0.0201
    133  CD1        7.5440   -9.5580   16.7450 C.ar   83  TYR83      -0.0009
    134  CD2        5.5800   -9.6970   15.3600 C.ar   83  TYR83      -0.0009
    135  CE1        7.5520  -10.9560   16.8880 C.ar   83  TYR83       0.0417
    136  CE2        5.5830  -11.1170   15.4840 C.ar   83  TYR83       0.0417
    137  CZ         6.5770  -11.7220   16.2570 C.ar   83  TYR83       0.1957
    138  OH         6.6460  -13.0790   16.4210 O.3    83  TYR83      -0.2866
    139  N          8.6550   -3.5910   14.3750 N.3    86  TYR86      -0.1241
    140  CA         8.3340   -3.8200   12.9440 C.3    86  TYR86       0.1605
    141  C          6.9400   -3.4010   12.4940 C.2    86  TYR86       0.2264
    142  O          6.7590   -2.9430   11.3540 O.2    86  TYR86      -0.2867
    143  CB         8.5790   -5.2750   12.5550 C.3    86  TYR86       0.0534
    144  CG        10.0490   -5.5650   12.4640 C.ar   86  TYR86      -0.0201
    145  CD1       10.7070   -5.5320   11.2390 C.ar   86  TYR86      -0.0009
    146  CD2       10.7990   -5.8180   13.6210 C.ar   86  TYR86      -0.0009
    147  CE1       12.0710   -5.7780   11.1490 C.ar   86  TYR86       0.0417
    148  CE2       12.1750   -6.0580   13.5470 C.ar   86  TYR86       0.0417
    149  CZ        12.7910   -6.0360   12.3010 C.ar   86  TYR86       0.1957
    150  OH        14.1290   -6.2720   12.1940 O.3    86  TYR86      -0.2866
    151  N          4.1730   -5.5710   12.4270 N.3    88  ASN88      -0.1240
    152  CA         3.3310   -6.6920   12.0430 C.3    88  ASN88       0.1653
    153  C          2.7050   -7.3500   13.2740 C.2    88  ASN88       0.2266
    154  O          3.2110   -7.2040   14.4010 O.2    88  ASN88      -0.2867
    155  CB         4.1060   -7.7070   11.1770 C.3    88  ASN88       0.1155
    156  CG         5.2380   -8.3770   11.9270 C.2    88  ASN88       0.2627
    157  OD1        6.1140   -7.7210   12.4620 O.2    88  ASN88      -0.2716
    158  ND2        5.2240   -9.7050   11.9600 N.am   88  ASN88      -0.0877
    159  N          9.3800   -2.8650    2.4300 N.3   143  ASN143     -0.1240
    160  CA        10.7710   -3.3130    2.6540 C.3   143  ASN143      0.1653
    161  C         11.8150   -2.5760    1.8350 C.2   143  ASN143      0.2266
    162  O         12.7110   -3.1970    1.2420 O.2   143  ASN143     -0.2867
    163  CB        10.8880   -4.8360    2.4920 C.3   143  ASN143      0.1155
    164  CG        10.1870   -5.5770    3.5980 C.2   143  ASN143      0.2627
    165  OD1       10.1560   -5.1150    4.7370 O.2   143  ASN143     -0.2716
    166  ND2        9.5960   -6.7240    3.2700 N.am  143  ASN143     -0.0877
    167  N         14.0970    1.4450    1.7260 N.3   145  GLN145     -0.1245
    168  CA        14.3890    2.7460    2.2920 C.3   145  GLN145      0.1566
    169  C         13.7280    3.8790    1.4880 C.2   145  GLN145      0.2260
    170  O         13.8990    3.9680    0.2710 O.2   145  GLN145     -0.2867
    171  CB        15.9110    2.9660    2.4140 C.3   145  GLN145      0.0367
    172  CG        16.2470    4.3060    3.0500 C.3   145  GLN145      0.0905
    173  CD        17.7190    4.4900    3.4090 C.2   145  GLN145      0.2608
    174  OE1       18.2860    5.5660    3.2030 O.2   145  GLN145     -0.2717
    175  NE2       18.3260    3.4590    3.9650 N.am  145  GLN145     -0.0878
@<TRIPOS>BOND
     1   170   169    2
     2   162   161    2
     3   169   168    1
     4   167   168    1
     5   161   160    1
     6   168   171    1
     7   171   172    1
     8   159   160    1
     9   163   160    1
    10   163   164    1
    11   172   173    1
    12   174   173    2
    13   166   164   am
    14   173   175   am
    15   164   165    2
    16     9    11   ar
    17     9     7   ar
    18    11    10   ar
    19     7     6   ar
    20    10     8   ar
    21     6     8   ar
    22     6     5    1
    23    15    14    2
    24    21    22    2
    25    21    20    1
    26     2     3    1
    27     2     5    1
    28     2     1    1
    29     3     4    2
    30    14    19   am
    31    14    13    1
    32    12    13    1
    33    20    19    1
    34    20    23    1
    35    13    16    1
    36    51    49    1
    37    26    25   ar
    38    50    49    1
    39    25    27   ar
    40    25    24    1
    41    23    24    1
    42    49    46    1
    43    16    18    1
    44    16    17    1
    45    31    30    2
    46    46    45    1
    47    46    47    1
    48    59    58   ar
    49    45    39   am
    50    60    58   ar
    51    28    29    1
    52    35    34    2
    53    58    57    1
    54   106   105   ar
    55   106   104   ar
    56   111   108    1
    57   111   112    1
    58   105   103   ar
    59    47    48    2
    60    47    52   am
    61    30    29    1
    62    30    37   am
    63   108   107    1
    64   108   109    1
    65    32    29    1
    66    32    33    1
    67    52    53    1
    68    39    38    1
    69    39    40    2
    70   147   145   ar
    71   147   149   ar
    72   155   156    1
    73   155   152    1
    74    34    33    1
    75    34    36   am
    76   145   144   ar
    77    57    56    1
    78   142   141    2
    79   104   102   ar
    80    38    37    1
    81    38    41    1
    82   114   112   ar
    83    43    42   ar
    84   112   113   ar
    85   103   101   ar
    86   110   109    2
    87   156   158   am
    88   156   157    2
    89   152   151    1
    90   152   153    1
    91    53    56    1
    92    53    54    1
    93   150   149    1
    94   149   148   ar
    95   144   143    1
    96   144   146   ar
    97    78    76    1
    98   141   140    1
    99   143   140    1
   100   102   101   ar
   101   126   125    1
   102    42    41    1
   103    42    44   ar
   104   101   100    1
   105    69    68    1
   106    69    70    1
   107   140   139    1
   108    68    63   am
   109   153   154    2
   110    54    61   am
   111    54    55    2
   112    70    72   am
   113    70    71    2
   114   148   146   ar
   115    72    73    1
   116    98    99    2
   117    98    97    1
   118    61    62    1
   119    94    93   ar
   120   125   123   ar
   121   125   124   ar
   122    76    73    1
   123    76    77    1
   124    92    93    1
   125    92    91    1
   126    93    95   ar
   127   100    97    1
   128    73    74    1
   129   123   121   ar
   130    91    88    1
   131   124   122   ar
   132    63    62    1
   133    63    64    2
   134    97    96    1
   135    62    65    1
   136    86    84    1
   137    66    65    1
   138   134   136   ar
   139   134   132   ar
   140   136   137   ar
   141   121   120   ar
   142   122   120   ar
   143    88    87    1
   144    88    89    1
   145    74    75    2
   146   131   132    1
   147   131   128    1
   148    65    67    1
   149   130   129    2
   150    87    81   am
   151   132   133   ar
   152    84    83    1
   153    84    85    1
   154    83    80    1
   155   120   119    1
   156   137   138    1
   157   137   135   ar
   158   133   135   ar
   159    89    90    2
   160    81    80    1
   161    81    82    2
   162   129   128    1
   163   127   128    1
   164    79    80    1
   165   119   116    1
   166   116   115    1
   167   116   117    1
   168   117   118    2
