@<TRIPOS>MOLECULE
tmp/3omcB00.pdb
 107 103 0 0 0
SMALL
GASTEIGER

@<TRIPOS>ATOM
      1  N         13.0960    4.9750   46.6990 N.3     5  PHE5       -0.1241
      2  CA        13.0290    3.6120   46.2080 C.3     5  PHE5        0.1605
      3  C         11.5710    3.1740   46.3440 C.2     5  PHE5        0.2264
      4  O         11.0120    3.2140   47.4420 O.2     5  PHE5       -0.2867
      5  CB        13.9910    2.7200   47.0060 C.3     5  PHE5        0.0534
      6  CG        14.0520    1.3040   46.5260 C.ar    5  PHE5       -0.0203
      7  CD1       14.7580    0.9700   45.3680 C.ar    5  PHE5       -0.0042
      8  CD2       13.4170    0.2920   47.2410 C.ar    5  PHE5       -0.0042
      9  CE1       14.8100   -0.3330   44.9260 C.ar    5  PHE5       -0.0003
     10  CE2       13.4710   -1.0290   46.8080 C.ar    5  PHE5       -0.0003
     11  CZ        14.1700   -1.3450   45.6530 C.ar    5  PHE5       -0.0000
     12  N          8.5830    0.7940   46.6490 N.3     7  THR7       -0.1203
     13  CA         8.5170   -0.5280   47.2670 C.3     7  THR7        0.1994
     14  C          7.2160   -1.3000   47.0370 C.2     7  THR7        0.2617
     15  O          7.2020   -2.5260   47.1020 O.2     7  THR7       -0.2717
     16  CB         8.7610   -0.4420   48.7870 C.3     7  THR7        0.1784
     17  OG1        7.9410    0.5900   49.3480 O.3     7  THR7       -0.2211
     18  CG2       10.2110   -0.1420   49.0600 C.3     7  THR7        0.0376
     19  N          6.1320   -0.5840   46.7810 N.am    8  GLU8       -0.1979
     20  CA         4.8030   -1.2020   46.6870 C.3     8  GLU8        0.1602
     21  C          3.8580   -0.3230   45.8800 C.2     8  GLU8        0.2287
     22  O          3.7760    0.8860   46.1160 O.2     8  GLU8       -0.2864
     23  CB         4.2150   -1.4170   48.0940 C.3     8  GLU8        0.0415
     24  CG         2.7270   -1.8740   48.1290 C.3     8  GLU8        0.1163
     25  CD         2.5230   -3.3010   47.6280 C.2     8  GLU8        0.3649
     26  OE1        3.4800   -3.9350   47.1370 O.co2   8  GLU8       -0.2457
     27  OE2        1.4010   -3.8110   47.7610 O.co2   8  GLU8       -0.2457
     28  N          8.5210  -12.7240   54.9980 N.3    59  PHE59      -0.1241
     29  CA         7.8850  -12.4490   53.7190 C.3    59  PHE59       0.1605
     30  C          8.0980  -13.6460   52.7580 C.2    59  PHE59       0.2264
     31  O          8.7340  -14.6230   53.1420 O.2    59  PHE59      -0.2867
     32  CB         8.4940  -11.1480   53.1810 C.3    59  PHE59       0.0534
     33  CG         7.8850  -10.6370   51.9070 C.ar   59  PHE59      -0.0203
     34  CD1        6.5130  -10.4310   51.7850 C.ar   59  PHE59      -0.0042
     35  CD2        8.7130  -10.2900   50.8380 C.ar   59  PHE59      -0.0042
     36  CE1        5.9700   -9.9390   50.5900 C.ar   59  PHE59      -0.0003
     37  CE2        8.1850   -9.7940   49.6510 C.ar   59  PHE59      -0.0003
     38  CZ         6.8180   -9.6160   49.5230 C.ar   59  PHE59      -0.0000
     39  N          9.8890  -14.1540   50.2730 N.3    61  ASP61      -0.1239
     40  CA        11.3020  -14.3740   49.9600 C.3    61  ASP61       0.1674
     41  C         12.0750  -15.0810   51.1010 C.2    61  ASP61       0.2266
     42  O         13.2780  -15.3200   50.9980 O.2    61  ASP61      -0.2867
     43  CB        11.9590  -13.0390   49.5740 C.3    61  ASP61       0.1410
     44  CG        11.8960  -11.9930   50.6940 C.2    61  ASP61       0.3668
     45  OD1       11.4730  -12.3280   51.8250 O.co2  61  ASP61      -0.2456
     46  OD2       12.2640  -10.8270   50.4350 O.co2  61  ASP61      -0.2456
     47  N         11.2570   -9.0580   58.1100 N.3    65  TYR65      -0.1241
     48  CA        11.0880   -7.6230   57.9200 C.3    65  TYR65       0.1605
     49  C         10.2860   -7.0580   59.0890 C.2    65  TYR65       0.2264
     50  O          9.5740   -7.7970   59.7630 O.2    65  TYR65      -0.2867
     51  CB        10.2740   -7.3370   56.6520 C.3    65  TYR65       0.0534
     52  CG        10.9590   -7.7090   55.3550 C.ar   65  TYR65      -0.0201
     53  CD1       11.6420   -6.7450   54.6200 C.ar   65  TYR65      -0.0009
     54  CD2       10.8920   -9.0070   54.8550 C.ar   65  TYR65      -0.0009
     55  CE1       12.2760   -7.0700   53.4140 C.ar   65  TYR65       0.0417
     56  CE2       11.5210   -9.3530   53.6480 C.ar   65  TYR65       0.0417
     57  CZ        12.2180   -8.3670   52.9450 C.ar   65  TYR65       0.1957
     58  OH        12.8240   -8.6650   51.7480 O.3    65  TYR65      -0.2866
     59  N          3.7360   -4.3130   56.4110 N.3    82  TYR82      -0.1241
     60  CA         5.2060   -4.2040   56.4570 C.3    82  TYR82       0.1605
     61  C          5.5730   -2.7310   56.4760 C.2    82  TYR82       0.2264
     62  O          5.4840   -2.0470   55.4590 O.2    82  TYR82      -0.2867
     63  CB         5.8190   -4.9110   55.2490 C.3    82  TYR82       0.0534
     64  CG         5.7790   -6.4270   55.3470 C.ar   82  TYR82      -0.0201
     65  CD1        6.8170   -7.1170   55.9620 C.ar   82  TYR82      -0.0009
     66  CD2        4.7080   -7.1680   54.8150 C.ar   82  TYR82      -0.0009
     67  CE1        6.8020   -8.5060   56.0590 C.ar   82  TYR82       0.0417
     68  CE2        4.6800   -8.5790   54.8950 C.ar   82  TYR82       0.0417
     69  CZ         5.7420   -9.2350   55.5210 C.ar   82  TYR82       0.1957
     70  OH         5.7580  -10.6050   55.6260 O.3    82  TYR82      -0.2866
     71  N          7.9210   -1.1320   53.8830 N.3    85  TYR85      -0.1241
     72  CA         7.6060   -1.4330   52.4700 C.3    85  TYR85       0.1605
     73  C          6.2050   -1.0060   51.9810 C.2    85  TYR85       0.2264
     74  O          6.0520   -0.5430   50.8410 O.2    85  TYR85      -0.2867
     75  CB         7.8910   -2.9210   52.1780 C.3    85  TYR85       0.0534
     76  CG         9.3770   -3.1760   52.2360 C.ar   85  TYR85      -0.0201
     77  CD1       10.1580   -3.1350   51.0800 C.ar   85  TYR85      -0.0009
     78  CD2       10.0220   -3.4060   53.4570 C.ar   85  TYR85      -0.0009
     79  CE1       11.5390   -3.3320   51.1310 C.ar   85  TYR85       0.0417
     80  CE2       11.4030   -3.5810   53.5090 C.ar   85  TYR85       0.0417
     81  CZ        12.1400   -3.5540   52.3440 C.ar   85  TYR85       0.1957
     82  OH        13.5000   -3.7340   52.3900 O.3    85  TYR85      -0.2866
     83  N          3.3870   -3.1160   51.9050 N.3    87  ASN87      -0.1240
     84  CA         2.5370   -4.2540   51.5520 C.3    87  ASN87       0.1653
     85  C          1.9180   -4.9160   52.7740 C.2    87  ASN87       0.2266
     86  O          2.3700   -4.6970   53.9140 O.2    87  ASN87      -0.2867
     87  CB         3.3060   -5.2620   50.6750 C.3    87  ASN87       0.1155
     88  CG         4.4650   -5.9110   51.4030 C.2    87  ASN87       0.2627
     89  OD1        5.3820   -5.2360   51.8910 O.2    87  ASN87      -0.2716
     90  ND2        4.4400   -7.2400   51.4680 N.am   87  ASN87      -0.0877
     91  N          8.1770   -0.7170   40.3310 N.3   141  GLN141     -0.1231
     92  CA         8.3170   -1.4480   41.5910 C.3   141  GLN141      0.1698
     93  C          9.7570   -1.9370   41.7720 C.2   141  GLN141      0.2592
     94  O         10.3720   -2.4530   40.8270 O.2   141  GLN141     -0.2718
     95  CB         7.3230   -2.5930   41.7110 C.3   141  GLN141      0.0381
     96  CG         7.2650   -3.1530   43.1300 C.3   141  GLN141      0.0905
     97  CD         6.1280   -4.1100   43.3040 C.2   141  GLN141      0.2608
     98  OE1        6.3170   -5.3220   43.2480 O.2   141  GLN141     -0.2717
     99  NE2        4.9230   -3.5750   43.4950 N.am  141  GLN141     -0.0878
    100  N         10.2850   -1.7370   42.9790 N.am  142  ASN142     -0.1974
    101  CA        11.6540   -2.1170   43.3390 C.3   142  ASN142      0.1688
    102  C         12.7030   -1.4150   42.4770 C.2   142  ASN142      0.2292
    103  O         13.6800   -2.0240   42.0440 O.2   142  ASN142     -0.2864
    104  CB        11.8270   -3.6480   43.3410 C.3   142  ASN142      0.1181
    105  CG        11.0360   -4.3250   44.4600 C.2   142  ASN142      0.2629
    106  OD1       10.4070   -5.3600   44.2580 O.2   142  ASN142     -0.2716
    107  ND2       11.0630   -3.7320   45.6390 N.am  142  ASN142     -0.0877
@<TRIPOS>BOND
     1    91    92    1
     2    94    93    2
     3    92    95    1
     4    92    93    1
     5    95    96    1
     6    93   100   am
     7   103   102    2
     8   102   101    1
     9   100   101    1
    10    96    97    1
    11    98    97    2
    12    97    99   am
    13   101   104    1
    14   104   105    1
    15   106   105    2
    16   105   107   am
    17     9     7   ar
    18     9    11   ar
    19     7     6   ar
    20    11    10   ar
    21    21    22    2
    22    21    20    1
    23     2     3    1
    24     2     1    1
    25     2     5    1
    26     3     4    2
    27     6     5    1
    28     6     8   ar
    29    12    13    1
    30    20    19    1
    31    20    23    1
    32    19    14   am
    33    10     8   ar
    34    14    15    2
    35    14    13    1
    36    26    25   ar
    37    13    16    1
    38    25    27   ar
    39    25    24    1
    40    23    24    1
    41    16    18    1
    42    16    17    1
    43    38    37   ar
    44    38    36   ar
    45    43    40    1
    46    43    44    1
    47    37    35   ar
    48    40    39    1
    49    40    41    1
    50    46    44   ar
    51    36    34   ar
    52    87    88    1
    53    87    84    1
    54    44    45   ar
    55    35    33   ar
    56    74    73    2
    57    42    41    2
    58    77    79   ar
    59    77    76   ar
    60    79    81   ar
    61    88    90   am
    62    88    89    2
    63    84    83    1
    64    84    85    1
    65    58    57    1
    66    34    33   ar
    67    33    32    1
    68    73    72    1
    69    75    76    1
    70    75    72    1
    71    76    78   ar
    72    81    82    1
    73    81    80   ar
    74    72    71    1
    75    30    31    2
    76    30    29    1
    77    85    86    2
    78    57    55   ar
    79    57    56   ar
    80    32    29    1
    81    55    53   ar
    82    78    80   ar
    83    56    54   ar
    84    29    28    1
    85    53    52   ar
    86    66    68   ar
    87    66    64   ar
    88    54    52   ar
    89    68    69   ar
    90    63    64    1
    91    63    60    1
    92    64    65   ar
    93    52    51    1
    94    62    61    2
    95    69    70    1
    96    69    67   ar
    97    65    67   ar
    98    59    60    1
    99    60    61    1
   100    51    48    1
   101    48    47    1
   102    48    49    1
   103    49    50    2
