@<TRIPOS>MOLECULE
tmp/3omfA00.pdb
 165 161 0 0 0
SMALL
GASTEIGER

@<TRIPOS>ATOM
      1  N          8.1320    7.5250  -20.0110 N.3     4  ILE4       -0.1231
      2  CA         7.4550    8.7000  -19.4640 C.3     4  ILE4        0.1692
      3  C          8.1080    9.2550  -18.1740 C.2     4  ILE4        0.2592
      4  O          8.1900   10.4800  -17.9820 O.2     4  ILE4       -0.2718
      5  CB         5.9030    8.4440  -19.2520 C.3     4  ILE4        0.0266
      6  CG1        5.1980    9.7400  -18.8730 C.3     4  ILE4        0.0019
      7  CG2        5.6520    7.3680  -18.2080 C.3     4  ILE4        0.0020
      8  CD1        3.6950    9.7180  -19.0470 C.3     4  ILE4        0.0001
      9  N          8.5810    8.3690  -17.2920 N.am    5  PHE5       -0.1976
     10  CA         9.1670    8.8270  -16.0410 C.3     5  PHE5        0.1639
     11  C         10.6050    9.3150  -16.2260 C.2     5  PHE5        0.2290
     12  O         11.0320   10.2360  -15.5390 O.2     5  PHE5       -0.2864
     13  CB         9.0270    7.7750  -14.9270 C.3     5  PHE5        0.0560
     14  CG         7.6590    7.7590  -14.2420 C.ar    5  PHE5       -0.0200
     15  CD1        6.5910    8.5100  -14.7090 C.ar    5  PHE5       -0.0042
     16  CD2        7.4320    6.9280  -13.1490 C.ar    5  PHE5       -0.0042
     17  CE1        5.3520    8.4660  -14.0840 C.ar    5  PHE5       -0.0003
     18  CE2        6.1820    6.8720  -12.5290 C.ar    5  PHE5       -0.0003
     19  CZ         5.1460    7.6450  -12.9960 C.ar    5  PHE5       -0.0000
     20  N          9.8410   12.8550  -17.4670 N.3     8  ILE8       -0.1245
     21  CA         9.4580   13.6770  -16.3270 C.3     8  ILE8        0.1561
     22  C         10.6910   14.0640  -15.4770 C.2     8  ILE8        0.2260
     23  O         10.8470   15.2220  -15.0990 O.2     8  ILE8       -0.2867
     24  CB         8.3810   12.9650  -15.4810 C.3     8  ILE8        0.0252
     25  CG1        7.0160   13.0630  -16.1650 C.3     8  ILE8        0.0019
     26  CG2        8.3120   13.5320  -14.0650 C.3     8  ILE8        0.0019
     27  CD1        5.9210   12.3290  -15.4400 C.3     8  ILE8        0.0001
     28  N          8.6520   16.3950  -19.7900 N.3    13  ILE13      -0.1231
     29  CA         7.1990   16.2950  -19.5920 C.3    13  ILE13       0.1678
     30  C          6.9650   16.9470  -18.2370 C.2    13  ILE13       0.2434
     31  O          7.7260   16.6940  -17.2990 O.2    13  ILE13      -0.2733
     32  CB         6.7220   14.8170  -19.5620 C.3    13  ILE13       0.0265
     33  CG1        6.8390   14.1880  -20.9500 C.3    13  ILE13       0.0019
     34  CG2        5.3090   14.6810  -19.0090 C.3    13  ILE13       0.0020
     35  CD1        6.5370   12.6770  -20.9690 C.3    13  ILE13       0.0001
     36  N          5.9340   17.8010  -18.1180 N.am   14  PRO14      -0.2718
     37  CA         5.7880   18.5810  -16.8900 C.3    14  PRO14       0.1535
     38  C          5.3120   17.7950  -15.6710 C.2    14  PRO14       0.2599
     39  O          4.6500   16.7640  -15.7960 O.2    14  PRO14      -0.2715
     40  CB         4.7280   19.6220  -17.2720 C.3    14  PRO14       0.0310
     41  CG         3.8930   18.9280  -18.2440 C.3    14  PRO14       0.0237
     42  CD         4.8380   18.0820  -19.0610 C.3    14  PRO14       0.0939
     43  N          5.6700   18.2980  -14.4990 N.am   15  SER15      -0.1950
     44  CA         5.2050   17.7620  -13.2340 C.3    15  SER15       0.1924
     45  C          5.2740   18.8240  -12.1570 C.2    15  SER15       0.2314
     46  O          5.9220   19.8630  -12.3220 O.2    15  SER15      -0.2863
     47  CB         6.0260   16.5370  -12.8250 C.3    15  SER15       0.2116
     48  OG         7.3440   16.8860  -12.4590 O.3    15  SER15      -0.2180
     49  N          7.8170   14.0590   -7.3160 N.3    27  PHE27      -0.1227
     50  CA         6.7730   14.8970   -7.8650 C.3    27  PHE27       0.1736
     51  C          5.4030   14.4080   -7.4060 C.2    27  PHE27       0.2595
     52  O          5.2440   13.2620   -6.9520 O.2    27  PHE27      -0.2718
     53  CB         6.8590   14.9330   -9.4030 C.3    27  PHE27       0.0547
     54  CG         6.7970   13.5670  -10.0750 C.ar   27  PHE27      -0.0202
     55  CD1        7.8840   12.7030  -10.0220 C.ar   27  PHE27      -0.0042
     56  CD2        5.6600   13.1660  -10.7710 C.ar   27  PHE27      -0.0042
     57  CE1        7.8570   11.4650  -10.6530 C.ar   27  PHE27      -0.0003
     58  CE2        5.6030   11.9330  -11.3890 C.ar   27  PHE27      -0.0003
     59  CZ         6.7160   11.0680  -11.3250 C.ar   27  PHE27      -0.0000
     60  N          4.4140   15.2920   -7.5140 N.am   28  LYS28      -0.1966
     61  CA         3.0590   14.9550   -7.0840 C.3    28  LYS28       0.1728
     62  C          2.3850   13.9920   -8.0580 C.2    28  LYS28       0.2616
     63  O          2.4750   14.1720   -9.2680 O.2    28  LYS28      -0.2715
     64  CB         2.2120   16.2180   -6.9360 C.3    28  LYS28       0.0311
     65  CG         2.7770   17.2110   -5.9510 C.3    28  LYS28       0.0038
     66  CD         1.7090   18.1630   -5.3700 C.3    28  LYS28       0.0206
     67  CE         2.3890   19.1080   -4.3810 C.3    28  LYS28       0.1093
     68  NZ         1.4580   19.9410   -3.5520 N.3    28  LYS28      -0.1314
     69  N          1.7000   12.9850   -7.5080 N.am   29  ASP29      -0.1957
     70  CA         0.8770   12.0790   -8.2930 C.3    29  ASP29       0.1840
     71  C         -0.3050   12.8900   -8.8300 C.2    29  ASP29       0.2622
     72  O         -0.9320   13.6600   -8.0780 O.2    29  ASP29      -0.2715
     73  CB         0.3780   10.9260   -7.4360 C.3    29  ASP29       0.1450
     74  CG        -0.0760    9.7630   -8.2510 C.2    29  ASP29       0.3671
     75  OD1       -1.0910    9.9060   -8.9420 O.co2  29  ASP29      -0.2456
     76  OD2        0.5960    8.7040   -8.2240 O.co2  29  ASP29      -0.2456
     77  N         -0.5930   12.7520  -10.1170 N.am   30  ILE30      -0.1963
     78  CA        -1.6670   13.5510  -10.7080 C.3    30  ILE30       0.1727
     79  C         -3.0460   12.9350  -10.4860 C.2    30  ILE30       0.2616
     80  O         -4.0480   13.5600  -10.7870 O.2    30  ILE30      -0.2715
     81  CB        -1.4230   13.8900  -12.2030 C.3    30  ILE30       0.0290
     82  CG1       -1.6040   12.6780  -13.1280 C.3    30  ILE30       0.0022
     83  CG2       -0.0480   14.5140  -12.3730 C.3    30  ILE30       0.0023
     84  CD1       -1.5170   13.0690  -14.6160 C.3    30  ILE30       0.0001
     85  N         -3.0880   11.7300   -9.9310 N.am   31  ASN31      -0.1972
     86  CA        -4.3530   11.0440   -9.6210 C.3    31  ASN31       0.1688
     87  C         -4.2630   10.4850   -8.2170 C.2    31  ASN31       0.2292
     88  O         -4.2620    9.2670   -8.0200 O.2    31  ASN31      -0.2864
     89  CB        -4.6520    9.9150  -10.6340 C.3    31  ASN31       0.1181
     90  CG        -6.0770    9.3160  -10.4630 C.2    31  ASN31       0.2629
     91  OD1       -7.0030    9.9900  -10.0000 O.2    31  ASN31      -0.2716
     92  ND2       -6.2360    8.0340  -10.8330 N.am   31  ASN31      -0.0877
     93  N          0.3530   12.6700   -1.7830 N.3    37  HIS37      -0.1241
     94  CA         0.6680   11.5210   -2.6400 C.3    37  HIS37       0.1621
     95  C          1.7680   11.9380   -3.5850 C.2    37  HIS37       0.2264
     96  O          1.5330   12.6720   -4.5390 O.2    37  HIS37      -0.2867
     97  CB        -0.5700   11.0460   -3.4060 C.3    37  HIS37       0.0745
     98  CG        -0.3840    9.7300   -4.1040 C.ar   37  HIS37       0.0817
     99  ND1       -1.4360    9.0280   -4.6460 N.ar   37  HIS37      -0.2268
    100  CD2        0.7250    8.9850   -4.3350 C.ar   37  HIS37       0.1154
    101  CE1       -0.9820    7.9180   -5.1990 C.ar   37  HIS37       0.1986
    102  NE2        0.3260    7.8610   -5.0170 N.ar   37  HIS37      -0.2212
    103  N          5.3690   10.7670   -5.7810 N.3    39  LEU39      -0.1245
    104  CA         6.1350    9.7190   -6.4210 C.3    39  LEU39       0.1561
    105  C          7.6090   10.0910   -6.3670 C.2    39  LEU39       0.2260
    106  O          7.9850   11.2420   -6.6350 O.2    39  LEU39      -0.2867
    107  CB         5.7030    9.5300   -7.8810 C.3    39  LEU39       0.0270
    108  CG         4.2750    9.0900   -8.2120 C.3    39  LEU39       0.0019
    109  CD1        4.0860    8.9930   -9.7090 C.3    39  LEU39       0.0001
    110  CD2        3.9650    7.7660   -7.5770 C.3    39  LEU39       0.0001
    111  N          4.9220   -1.0640   -6.4870 N.3    84  ASN84      -0.1240
    112  CA         4.1460   -2.0340   -7.2660 C.3    84  ASN84       0.1653
    113  C          5.0410   -2.6880   -8.2930 C.2    84  ASN84       0.2266
    114  O          5.7230   -2.0030   -9.0550 O.2    84  ASN84      -0.2867
    115  CB         2.9820   -1.3320   -7.9590 C.3    84  ASN84       0.1155
    116  CG         1.8700   -0.9890   -7.0030 C.2    84  ASN84       0.2627
    117  OD1        1.5830   -1.7620   -6.0870 O.2    84  ASN84      -0.2716
    118  ND2        1.2630    0.1760   -7.1820 N.am   84  ASN84      -0.0877
    119  N         -0.6100   -3.9910  -10.3810 N.3    90  GLY90      -0.1210
    120  CA        -1.0780   -2.9130  -11.2320 C.3    90  GLY90       0.1956
    121  C         -0.0120   -1.9430  -11.6820 C.2    90  GLY90       0.2612
    122  O         -0.3310   -0.7890  -12.0340 O.2    90  GLY90      -0.2717
    123  N          1.2440   -2.3820  -11.7070 N.am   91  GLN91      -0.1965
    124  CA         2.3280   -1.4950  -12.1370 C.3    91  GLN91       0.1733
    125  C          2.0510   -1.0250  -13.5560 C.2    91  GLN91       0.2617
    126  O          1.9080   -1.8410  -14.4660 O.2    91  GLN91      -0.2715
    127  CB         3.7000   -2.1680  -12.0710 C.3    91  GLN91       0.0408
    128  CG         4.8530   -1.1850  -12.3490 C.3    91  GLN91       0.0908
    129  CD         6.2220   -1.8270  -12.4550 C.2    91  GLN91       0.2608
    130  OE1        6.3610   -3.0420  -12.4080 O.2    91  GLN91      -0.2717
    131  NE2        7.2540   -0.9880  -12.6250 N.am   91  GLN91      -0.0878
    132  N          1.9740    0.2950  -13.7230 N.am   92  THR92      -0.1937
    133  CA         1.7440    0.9090  -15.0090 C.3    92  THR92       0.2028
    134  C          3.1040    1.2390  -15.6320 C.2    92  THR92       0.2642
    135  O          3.5800    0.5300  -16.5310 O.2    92  THR92      -0.2714
    136  CB         0.8460    2.1790  -14.8560 C.3    92  THR92       0.1808
    137  OG1        1.4940    3.1300  -14.0000 O.3    92  THR92      -0.2208
    138  CG2       -0.4590    1.8080  -14.2370 C.3    92  THR92       0.0379
    139  N          3.7720    2.2640  -15.1310 N.am   93  VAL93      -0.1977
    140  CA         4.9830    2.7010  -15.7590 C.3    93  VAL93       0.1596
    141  C          6.1240    1.7850  -15.3240 C.2    93  VAL93       0.2287
    142  O          6.2930    1.5410  -14.1250 O.2    93  VAL93      -0.2864
    143  CB         5.3080    4.1740  -15.4030 C.3    93  VAL93       0.0276
    144  CG1        6.5570    4.6210  -16.1410 C.3    93  VAL93       0.0022
    145  CG2        4.0920    5.0750  -15.7380 C.3    93  VAL93       0.0022
    146  N          9.1610    3.4180   -9.1400 N.3    97  HIS97      -0.1241
    147  CA         8.6010    4.5880   -8.4350 C.3    97  HIS97       0.1621
    148  C          8.0140    4.1990   -7.0830 C.2    97  HIS97       0.2264
    149  O          7.1650    3.2930   -6.9980 O.2    97  HIS97      -0.2867
    150  CB         7.5300    5.3210   -9.2530 C.3    97  HIS97       0.0745
    151  CG         6.5080    4.4390   -9.9080 C.ar   97  HIS97       0.0817
    152  ND1        6.7810    3.7050  -11.0480 N.ar   97  HIS97      -0.2268
    153  CD2        5.1990    4.2210   -9.6220 C.ar   97  HIS97       0.1154
    154  CE1        5.6920    3.0480  -11.4140 C.ar   97  HIS97       0.1986
    155  NE2        4.7200    3.3490  -10.5710 N.ar   97  HIS97      -0.2212
    156  N          5.6950    5.2970   -4.0260 N.3    99  HIS99      -0.1241
    157  CA         4.6240    6.1610   -3.5860 C.3    99  HIS99       0.1621
    158  C          4.8450    6.5330   -2.1230 C.2    99  HIS99       0.2264
    159  O          5.0780    5.6560   -1.3010 O.2    99  HIS99      -0.2867
    160  CB         3.2640    5.4730   -3.6640 C.3    99  HIS99       0.0745
    161  CG         2.8820    4.9700   -5.0180 C.ar   99  HIS99       0.0817
    162  ND1        1.9260    5.5870   -5.7980 N.ar   99  HIS99      -0.2268
    163  CD2        3.2710    3.8690   -5.7010 C.ar   99  HIS99       0.1154
    164  CE1        1.7680    4.9010   -6.9160 C.ar   99  HIS99       0.1986
    165  NE2        2.5840    3.8600   -6.8880 N.ar   99  HIS99      -0.2212
@<TRIPOS>BOND
     1    35    33    1
     2    33    32    1
     3     1     2    1
     4    28    29    1
     5    29    32    1
     6    29    30    1
     7    32    34    1
     8     2     5    1
     9     2     3    1
    10     5     6    1
    11     5     7    1
    12    42    41    1
    13    42    36    1
    14     8     6    1
    15    41    40    1
    16    30    36   am
    17    30    31    2
    18     3     4    2
    19     3     9   am
    20    36    37    1
    21    20    21    1
    22     9    10    1
    23    40    37    1
    24    37    38    1
    25   135   134    2
    26    21    24    1
    27    21    22    1
    28    11    10    1
    29    11    12    2
    30    25    24    1
    31    25    27    1
    32   144   143    1
    33    10    13    1
    34    39    38    2
    35   140   143    1
    36   140   141    1
    37   140   139    1
    38   145   143    1
    39    38    43   am
    40   134   139   am
    41   134   133    1
    42    24    26    1
    43    22    23    2
    44   141   142    2
    45   133   136    1
    46   133   132    1
    47    13    14    1
    48   136   138    1
    49   136   137    1
    50    15    14   ar
    51    15    17   ar
    52    84    82    1
    53    43    44    1
    54   126   125    2
    55    14    16   ar
    56    17    19   ar
    57   132   125   am
    58   125   124    1
    59    44    47    1
    60    44    45    1
    61    16    18   ar
    62    82    81    1
    63    19    18   ar
    64    47    48    1
    65   131   129   am
    66   129   130    2
    67   129   128    1
    68    83    81    1
    69   128   127    1
    70    46    45    2
    71    81    78    1
    72   124   127    1
    73   124   123    1
    74   122   121    2
    75   123   121   am
    76   121   120    1
    77   154   152   ar
    78   154   155   ar
    79    58    59   ar
    80    58    56   ar
    81    59    57   ar
    82   120   119    1
    83   152   151   ar
    84    92    90   am
    85    80    79    2
    86    56    54   ar
    87    78    79    1
    88    78    77    1
    89    57    55   ar
    90    89    90    1
    91    89    86    1
    92   155   153   ar
    93    79    85   am
    94    90    91    2
    95    77    71   am
    96    54    55   ar
    97    54    53    1
    98    85    86    1
    99   151   153   ar
   100   151   150    1
   101   109   108    1
   102    86    87    1
   103    53    50    1
   104    63    62    2
   105   150   147    1
   106   146   147    1
   107   114   113    2
   108    75    74   ar
   109    71    70    1
   110    71    72    2
   111   147   148    1
   112    70    69    1
   113    70    73    1
   114   113   112    1
   115    74    76   ar
   116    74    73    1
   117    87    88    2
   118   108   107    1
   119   108   110    1
   120    62    69   am
   121    62    61    1
   122   115   112    1
   123   115   116    1
   124   107   104    1
   125    50    51    1
   126    50    49    1
   127    60    51   am
   128    60    61    1
   129    51    52    2
   130   112   111    1
   131   118   116   am
   132    61    64    1
   133   148   149    2
   134   116   117    2
   135    64    65    1
   136   164   165   ar
   137   164   162   ar
   138   165   163   ar
   139   106   105    2
   140   104   105    1
   141   104   103    1
   142    65    66    1
   143   162   161   ar
   144   163   161   ar
   145    66    67    1
   146   101   102   ar
   147   101    99   ar
   148   161   160    1
   149   102   100   ar
   150    99    98   ar
   151    96    95    2
   152    67    68    1
   153   100    98   ar
   154    98    97    1
   155   156   157    1
   156   160   157    1
   157   157   158    1
   158    95    94    1
   159    97    94    1
   160    94    93    1
   161   158   159    2
