@<TRIPOS>MOLECULE
tmp/3omgA00.pdb
 134 127 0 0 0
SMALL
GASTEIGER

@<TRIPOS>ATOM
      1  N         13.0280    1.9220    6.8210 N.3     6  PHE6       -0.1241
      2  CA        12.8030    0.6160    6.2130 C.3     6  PHE6        0.1605
      3  C         11.3490    0.1880    6.4330 C.2     6  PHE6        0.2264
      4  O         10.9220    0.0350    7.5830 O.2     6  PHE6       -0.2867
      5  CB        13.7570   -0.4340    6.8080 C.3     6  PHE6        0.0534
      6  CG        13.6990   -1.7690    6.0990 C.ar    6  PHE6       -0.0203
      7  CD1       14.3440   -1.9480    4.8730 C.ar    6  PHE6       -0.0042
      8  CD2       12.9530   -2.8270    6.6320 C.ar    6  PHE6       -0.0042
      9  CE1       14.2830   -3.1820    4.2020 C.ar    6  PHE6       -0.0003
     10  CE2       12.8720   -4.0640    5.9700 C.ar    6  PHE6       -0.0003
     11  CZ        13.5410   -4.2350    4.7500 C.ar    6  PHE6       -0.0000
     12  N          8.4290   -2.2730    6.7410 N.3     8  THR8       -0.1203
     13  CA         8.3490   -3.6900    7.1550 C.3     8  THR8        0.1994
     14  C          7.0460   -4.4170    6.8140 C.2     8  THR8        0.2617
     15  O          7.0640   -5.6030    6.4500 O.2     8  THR8       -0.2717
     16  CB         8.5790   -3.8660    8.6550 C.3     8  THR8        0.1784
     17  OG1        7.7850   -2.9100    9.3700 O.3     8  THR8       -0.2211
     18  CG2       10.0510   -3.6820    9.0100 C.3     8  THR8        0.0376
     19  N          5.9210   -3.7290    6.9610 N.am    9  GLU9       -0.1979
     20  CA         4.6100   -4.3510    6.8230 C.3     9  GLU9        0.1602
     21  C          3.6380   -3.3560    6.2060 C.2     9  GLU9        0.2287
     22  O          3.6660   -2.1810    6.5390 O.2     9  GLU9       -0.2864
     23  CB         4.0840   -4.7950    8.1960 C.3     9  GLU9        0.0415
     24  CG         4.7840   -6.0280    8.8080 C.3     9  GLU9        0.1163
     25  CD         4.7160   -7.2870    7.9260 C.2     9  GLU9        0.3649
     26  OE1        3.6530   -7.5320    7.3120 O.co2   9  GLU9       -0.2457
     27  OE2        5.7220   -8.0340    7.8600 O.co2   9  GLU9       -0.2457
     28  N         10.6860    1.1860   10.1510 N.3    19  GLN19      -0.1245
     29  CA        11.7550    1.3110   11.1210 C.3    19  GLN19       0.1566
     30  C         12.6690    2.4570   10.6890 C.2    19  GLN19       0.2260
     31  O         12.9620    2.6120    9.5000 O.2    19  GLN19      -0.2867
     32  CB        12.5850    0.0240   11.1730 C.3    19  GLN19       0.0367
     33  CG        11.8040   -1.2240   11.5260 C.3    19  GLN19       0.0905
     34  CD        12.6080   -2.4910   11.2330 C.2    19  GLN19       0.2608
     35  OE1       13.4520   -2.5090   10.3330 O.2    19  GLN19      -0.2717
     36  NE2       12.3470   -3.5440   11.9830 N.am   19  GLN19      -0.0878
     37  N         16.0040    4.0040    9.9140 N.3    21  VAL21      -0.1245
     38  CA        17.2980    3.4550    9.5190 C.3    21  VAL21       0.1561
     39  C         18.4150    3.8920   10.4840 C.2    21  VAL21       0.2260
     40  O         19.3430    3.1200   10.7680 O.2    21  VAL21      -0.2867
     41  CB        17.6210    3.8000    8.0570 C.3    21  VAL21       0.0252
     42  CG1       19.1270    3.5170    7.7110 C.3    21  VAL21       0.0019
     43  CG2       16.7040    3.0260    7.1500 C.3    21  VAL21       0.0019
     44  N         18.7560    1.3070   13.1120 N.3    24  GLY24      -0.1225
     45  CA        18.8290   -0.0830   12.6310 C.3    24  GLY24       0.1811
     46  C         19.9400   -0.9020   13.2770 C.2    24  GLY24       0.2280
     47  O         19.7390   -2.0700   13.6100 O.2    24  GLY24      -0.2866
     48  N          9.5940  -16.3140   15.8320 N.3    56  PHE56      -0.1227
     49  CA         9.0250  -16.0790   14.4870 C.3    56  PHE56       0.1736
     50  C          9.3370  -17.2580   13.5550 C.2    56  PHE56       0.2595
     51  O         10.0270  -18.1980   13.9550 O.2    56  PHE56      -0.2718
     52  CB         9.6030  -14.7620   13.9500 C.3    56  PHE56       0.0547
     53  CG         8.9680  -14.2640   12.6840 C.ar   56  PHE56      -0.0202
     54  CD1        7.5790  -14.1840   12.5470 C.ar   56  PHE56      -0.0042
     55  CD2        9.7680  -13.8430   11.6170 C.ar   56  PHE56      -0.0042
     56  CE1        6.9860  -13.7270   11.3430 C.ar   56  PHE56      -0.0003
     57  CE2        9.1770  -13.3740   10.4260 C.ar   56  PHE56      -0.0003
     58  CZ         7.7920  -13.3110   10.2960 C.ar   56  PHE56      -0.0000
     59  N          8.8550  -17.1830   12.3100 N.am   57  VAL57      -0.1966
     60  CA         8.9330  -18.2850   11.3340 C.3    57  VAL57       0.1727
     61  C         10.3170  -18.4890   10.7000 C.2    57  VAL57       0.2616
     62  O         10.5320  -19.4660    9.9760 O.2    57  VAL57      -0.2715
     63  CB         7.8680  -18.1310   10.2120 C.3    57  VAL57       0.0290
     64  CG1        6.4570  -18.0950   10.8090 C.3    57  VAL57       0.0023
     65  CG2        8.1400  -16.9010    9.3470 C.3    57  VAL57       0.0023
     66  N         11.2370  -17.5690   10.9880 N.am   58  ASP58      -0.1971
     67  CA        12.6500  -17.7120   10.6300 C.3    58  ASP58       0.1709
     68  C         13.4010  -18.4290   11.7530 C.2    58  ASP58       0.2293
     69  O         14.6210  -18.5850   11.7000 O.2    58  ASP58      -0.2864
     70  CB        13.2660  -16.3300   10.3060 C.3    58  ASP58       0.1436
     71  CG        13.2600  -15.3870   11.5050 C.2    58  ASP58       0.3671
     72  OD1       12.7270  -15.7660   12.5500 O.co2  58  ASP58      -0.2456
     73  OD2       13.7910  -14.2720   11.4210 O.co2  58  ASP58      -0.2456
     74  N         12.0340  -12.7220   18.7880 N.3    62  TYR62      -0.1241
     75  CA        11.8820  -11.2630   18.6820 C.3    62  TYR62       0.1605
     76  C         11.0760  -10.7110   19.8350 C.2    62  TYR62       0.2264
     77  O         10.3910  -11.4760   20.5390 O.2    62  TYR62      -0.2867
     78  CB        11.1770  -10.8950   17.3760 C.3    62  TYR62       0.0534
     79  CG        11.9770  -11.2830   16.1630 C.ar   62  TYR62      -0.0201
     80  CD1       12.8860  -10.3870   15.6040 C.ar   62  TYR62      -0.0009
     81  CD2       11.8240  -12.5420   15.5700 C.ar   62  TYR62      -0.0009
     82  CE1       13.6350  -10.7250   14.4760 C.ar   62  TYR62       0.0417
     83  CE2       12.5700  -12.9040   14.4610 C.ar   62  TYR62       0.0417
     84  CZ        13.4690  -11.9900   13.9160 C.ar   62  TYR62       0.1957
     85  OH        14.2040  -12.3300   12.8200 O.3    62  TYR62      -0.2866
     86  N          4.5530   -8.0210   16.9880 N.3    79  TYR79      -0.1241
     87  CA         6.0140   -7.9180   17.0430 C.3    79  TYR79       0.1605
     88  C          6.3550   -6.4550   17.0070 C.2    79  TYR79       0.2264
     89  O          6.2190   -5.8080   15.9400 O.2    79  TYR79      -0.2867
     90  CB         6.6430   -8.6600   15.8650 C.3    79  TYR79       0.0534
     91  CG         6.6150  -10.1660   15.9990 C.ar   79  TYR79      -0.0201
     92  CD1        7.5450  -10.8260   16.8240 C.ar   79  TYR79      -0.0009
     93  CD2        5.6790  -10.9440   15.2920 C.ar   79  TYR79      -0.0009
     94  CE1        7.5490  -12.2260   16.9470 C.ar   79  TYR79       0.0417
     95  CE2        5.6730  -12.3580   15.4120 C.ar   79  TYR79       0.0417
     96  CZ         6.6220  -12.9770   16.2460 C.ar   79  TYR79       0.1957
     97  OH         6.6820  -14.3350   16.3870 O.3    79  TYR79      -0.2866
     98  N          8.6940   -4.8020   14.3360 N.3    82  TYR82      -0.1241
     99  CA         8.3890   -5.0260   12.9080 C.3    82  TYR82       0.1605
    100  C          6.9500   -4.6590   12.5160 C.2    82  TYR82       0.2264
    101  O          6.6980   -4.2070   11.4100 O.2    82  TYR82      -0.2867
    102  CB         8.7270   -6.4620   12.4860 C.3    82  TYR82       0.0534
    103  CG        10.2000   -6.7780   12.6860 C.ar   82  TYR82      -0.0201
    104  CD1       11.1090   -6.6760   11.6320 C.ar   82  TYR82      -0.0009
    105  CD2       10.6920   -7.1000   13.9550 C.ar   82  TYR82      -0.0009
    106  CE1       12.4960   -6.9270   11.8430 C.ar   82  TYR82       0.0417
    107  CE2       12.0450   -7.3440   14.1730 C.ar   82  TYR82       0.0417
    108  CZ        12.9350   -7.2550   13.1250 C.ar   82  TYR82       0.1957
    109  OH        14.2600   -7.5130   13.3830 O.3    82  TYR82      -0.2866
    110  N          4.2690   -6.7850   12.4170 N.3    84  ASN84      -0.1240
    111  CA         3.4310   -7.9290   12.0300 C.3    84  ASN84       0.1653
    112  C          2.7850   -8.6150   13.2460 C.2    84  ASN84       0.2266
    113  O          3.2720   -8.5070   14.3690 O.2    84  ASN84      -0.2867
    114  CB         4.1950   -8.9430   11.1560 C.3    84  ASN84       0.1155
    115  CG         5.3670   -9.5910   11.8840 C.2    84  ASN84       0.2627
    116  OD1        6.2410   -8.9140   12.4070 O.2    84  ASN84      -0.2716
    117  ND2        5.3860  -10.9200   11.9110 N.am   84  ASN84      -0.0877
    118  N          9.3640   -4.2370    2.5120 N.3   139  ASN139     -0.1240
    119  CA        10.7710   -4.6760    2.6890 C.3   139  ASN139      0.1653
    120  C         11.8020   -3.9490    1.8430 C.2   139  ASN139      0.2266
    121  O         12.6910   -4.5780    1.2740 O.2   139  ASN139     -0.2867
    122  CB        10.9090   -6.1860    2.4770 C.3   139  ASN139      0.1155
    123  CG        10.4000   -6.9790    3.6670 C.2   139  ASN139      0.2627
    124  OD1       10.6000   -6.5850    4.8170 O.2   139  ASN139     -0.2716
    125  ND2        9.7490   -8.0960    3.3990 N.am  139  ASN139     -0.0877
    126  N         14.0230    0.0780    1.6150 N.3   141  GLN141     -0.1245
    127  CA        14.3490    1.3410    2.2330 C.3   141  GLN141      0.1566
    128  C         13.7810    2.4920    1.4030 C.2   141  GLN141      0.2260
    129  O         14.0240    2.5740    0.1850 O.2   141  GLN141     -0.2867
    130  CB        15.8670    1.4720    2.4170 C.3   141  GLN141      0.0367
    131  CG        16.2850    2.7070    3.1800 C.3   141  GLN141      0.0905
    132  CD        17.7540    2.6800    3.5740 C.2   141  GLN141      0.2608
    133  OE1       18.2860    1.6360    3.9640 O.2   141  GLN141     -0.2717
    134  NE2       18.4110    3.8370    3.4930 N.am  141  GLN141     -0.0878
@<TRIPOS>BOND
     1   129   128    2
     2   121   120    2
     3   128   127    1
     4   126   127    1
     5   120   119    1
     6   127   130    1
     7   130   131    1
     8   122   119    1
     9   122   123    1
    10   118   119    1
    11   131   132    1
    12   125   123   am
    13   134   132   am
    14   132   133    2
    15   123   124    2
    16     9    11   ar
    17     9     7   ar
    18    11    10   ar
    19     7     6   ar
    20    10     8   ar
    21     6     8   ar
    22     6     5    1
    23    21    22    2
    24    21    20    1
    25     2     3    1
    26     2     5    1
    27     2     1    1
    28     3     4    2
    29    15    14    2
    30    12    13    1
    31    14    19   am
    32    14    13    1
    33    20    19    1
    34    20    23    1
    35    43    41    1
    36    13    16    1
    37    26    25   ar
    38    42    41    1
    39    27    25   ar
    40    25    24    1
    41    41    38    1
    42    23    24    1
    43    16    18    1
    44    16    17    1
    45    65    63    1
    46    31    30    2
    47    38    37    1
    48    38    39    1
    49    62    61    2
    50    28    29    1
    51    63    64    1
    52    63    60    1
    53    58    57   ar
    54    58    56   ar
    55    70    67    1
    56    70    71    1
    57    35    34    2
    58    57    55   ar
    59    39    40    2
    60    67    66    1
    61    67    68    1
    62    30    29    1
    63    61    66   am
    64    61    60    1
    65    29    32    1
    66   114   115    1
    67   114   111    1
    68    32    33    1
    69    34    33    1
    70    34    36   am
    71    60    59    1
    72    56    54   ar
    73   101   100    2
    74    73    71   ar
    75    71    72   ar
    76    55    53   ar
    77   104   106   ar
    78   104   103   ar
    79    69    68    2
    80   106   108   ar
    81   115   117   am
    82   115   116    2
    83   111   110    1
    84   111   112    1
    85    59    50   am
    86   102   103    1
    87   102    99    1
    88   100    99    1
    89    54    53   ar
    90    45    44    1
    91    45    46    1
    92    53    52    1
    93   103   105   ar
    94    85    84    1
    95    99    98    1
    96   108   109    1
    97   108   107   ar
    98   112   113    2
    99    46    47    2
   100    50    51    2
   101    50    49    1
   102    84    83   ar
   103    84    82   ar
   104    52    49    1
   105   105   107   ar
   106    83    81   ar
   107    82    80   ar
   108    49    48    1
   109    93    95   ar
   110    93    91   ar
   111    95    96   ar
   112    81    79   ar
   113    80    79   ar
   114    90    91    1
   115    90    87    1
   116    89    88    2
   117    91    92   ar
   118    79    78    1
   119    96    97    1
   120    96    94   ar
   121    92    94   ar
   122    86    87    1
   123    88    87    1
   124    78    75    1
   125    75    74    1
   126    75    76    1
   127    76    77    2
