@<TRIPOS>MOLECULE
tmp/3omgB00.pdb
 152 144 0 0 0
SMALL
GASTEIGER

@<TRIPOS>ATOM
      1  N         13.1460    3.5280   46.5320 N.3     5  PHE5       -0.1241
      2  CA        13.0600    2.1680   46.0560 C.3     5  PHE5        0.1605
      3  C         11.6030    1.7440   46.1760 C.2     5  PHE5        0.2264
      4  O         11.0470    1.7540   47.2770 O.2     5  PHE5       -0.2867
      5  CB        13.9910    1.2320   46.8490 C.3     5  PHE5        0.0534
      6  CG        14.0390   -0.1600   46.2920 C.ar    5  PHE5       -0.0203
      7  CD1       14.7390   -0.4280   45.1150 C.ar    5  PHE5       -0.0042
      8  CD2       13.3600   -1.1930   46.9160 C.ar    5  PHE5       -0.0042
      9  CE1       14.7740   -1.6970   44.5750 C.ar    5  PHE5       -0.0003
     10  CE2       13.3780   -2.4740   46.3780 C.ar    5  PHE5       -0.0003
     11  CZ        14.0910   -2.7260   45.1980 C.ar    5  PHE5       -0.0000
     12  N          8.6600   -0.6820   46.5040 N.3     7  THR7       -0.1203
     13  CA         8.5950   -2.0300   47.0870 C.3     7  THR7        0.1994
     14  C          7.2630   -2.7660   46.8770 C.2     7  THR7        0.2617
     15  O          7.2140   -4.0070   46.9340 O.2     7  THR7       -0.2717
     16  CB         8.8740   -1.9780   48.6150 C.3     7  THR7        0.1784
     17  OG1        8.0520   -0.9640   49.2090 O.3     7  THR7       -0.2211
     18  CG2       10.3330   -1.6580   48.8580 C.3     7  THR7        0.0376
     19  N          6.1930   -2.0140   46.6360 N.am    8  GLU8       -0.1979
     20  CA         4.8500   -2.5870   46.5460 C.3     8  GLU8        0.1602
     21  C          3.8620   -1.6920   45.7940 C.2     8  GLU8        0.2287
     22  O          3.6990   -0.5000   46.1210 O.2     8  GLU8       -0.2864
     23  CB         4.3140   -2.8900   47.9620 C.3     8  GLU8        0.0415
     24  CG         2.8010   -3.1160   48.0950 C.3     8  GLU8        0.1163
     25  CD         2.3600   -4.5220   47.6940 C.2     8  GLU8        0.3649
     26  OE1        3.1400   -5.2380   47.0370 O.co2   8  GLU8       -0.2457
     27  OE2        1.2210   -4.9030   48.0320 O.co2   8  GLU8       -0.2457
     28  N         10.5930    3.0670   49.7550 N.3    18  GLN18      -0.1245
     29  CA        11.6150    3.3020   50.7700 C.3    18  GLN18       0.1566
     30  C         12.4970    4.4740   50.3530 C.2    18  GLN18       0.2260
     31  O         12.8500    4.6130   49.1800 O.2    18  GLN18      -0.2867
     32  CB        12.4920    2.0610   50.9460 C.3    18  GLN18       0.0367
     33  CG        11.7500    0.8140   51.4580 C.3    18  GLN18       0.0905
     34  CD        12.5550   -0.4750   51.2610 C.2    18  GLN18       0.2608
     35  OE1       13.4740   -0.5320   50.4390 O.2    18  GLN18      -0.2717
     36  NE2       12.2030   -1.5120   52.0030 N.am   18  GLN18      -0.0878
     37  N         15.8590    6.0350   49.7830 N.3    20  VAL20      -0.1245
     38  CA        17.2250    5.5190   49.5840 C.3    20  VAL20       0.1561
     39  C         18.1980    6.0840   50.6370 C.2    20  VAL20       0.2260
     40  O         19.1810    5.4390   50.9860 O.2    20  VAL20      -0.2867
     41  CB        17.7500    5.7720   48.1320 C.3    20  VAL20       0.0252
     42  CG1       19.2540    5.5820   48.0440 C.3    20  VAL20       0.0019
     43  CG2       17.0630    4.8460   47.1430 C.3    20  VAL20       0.0019
     44  N         18.4980    3.7910   53.4390 N.3    23  GLY23      -0.1225
     45  CA        18.6140    2.4280   52.9260 C.3    23  GLY23       0.1811
     46  C         19.6380    1.5480   53.6180 C.2    23  GLY23       0.2280
     47  O         19.3660    0.3750   53.9010 O.2    23  GLY23      -0.2866
     48  N         19.1380   -1.8410   55.8240 N.3    27  GLU27      -0.1245
     49  CA        19.8780   -3.0760   55.5550 C.3    27  GLU27       0.1567
     50  C         20.6800   -3.5300   56.7870 C.2    27  GLU27       0.2260
     51  O         20.7220   -4.7190   57.1020 O.2    27  GLU27      -0.2867
     52  CB        20.7610   -2.9670   54.2970 C.3    27  GLU27       0.0388
     53  CG        21.3590   -4.3220   53.8440 C.3    27  GLU27       0.1160
     54  CD        20.3660   -5.5110   53.9380 C.2    27  GLU27       0.3649
     55  OE1       19.2820   -5.4770   53.3000 O.co2  27  GLU27      -0.2457
     56  OE2       20.6680   -6.4910   54.6600 O.co2  27  GLU27      -0.2457
     57  N          8.7440  -14.0940   55.0970 N.3    59  PHE59      -0.1227
     58  CA         8.1370  -13.8070   53.8130 C.3    59  PHE59       0.1736
     59  C          8.3230  -14.9940   52.8540 C.2    59  PHE59       0.2595
     60  O          8.9780  -15.9720   53.2080 O.2    59  PHE59      -0.2718
     61  CB         8.7880  -12.5380   53.2560 C.3    59  PHE59       0.0547
     62  CG         8.1670  -12.0190   51.9900 C.ar   59  PHE59      -0.0202
     63  CD1        6.7910  -11.8590   51.8800 C.ar   59  PHE59      -0.0042
     64  CD2        8.9750  -11.6310   50.9230 C.ar   59  PHE59      -0.0042
     65  CE1        6.2270  -11.3670   50.7060 C.ar   59  PHE59      -0.0003
     66  CE2        8.4280  -11.1350   49.7660 C.ar   59  PHE59      -0.0003
     67  CZ         7.0530  -10.9940   49.6490 C.ar   59  PHE59      -0.0000
     68  N          7.7530  -14.9060   51.6540 N.am   60  VAL60      -0.1966
     69  CA         7.8400  -16.0060   50.6610 C.3    60  VAL60       0.1727
     70  C          9.2520  -16.3570   50.1870 C.2    60  VAL60       0.2616
     71  O          9.4710  -17.4400   49.6250 O.2    60  VAL60      -0.2715
     72  CB         6.9330  -15.7560   49.4310 C.3    60  VAL60       0.0290
     73  CG1        5.5190  -15.4020   49.8720 C.3    60  VAL60       0.0023
     74  CG2        7.5260  -14.6810   48.5180 C.3    60  VAL60       0.0023
     75  N         10.2000  -15.4390   50.3890 N.am   61  ASP61      -0.1971
     76  CA        11.6270  -15.6940   50.1150 C.3    61  ASP61       0.1709
     77  C         12.3320  -16.4070   51.2820 C.2    61  ASP61       0.2293
     78  O         13.5510  -16.6190   51.2530 O.2    61  ASP61      -0.2864
     79  CB        12.3540  -14.3750   49.7680 C.3    61  ASP61       0.1436
     80  CG        12.3380  -13.3610   50.9240 C.2    61  ASP61       0.3671
     81  OD1       11.7720  -13.6530   51.9930 O.co2  61  ASP61      -0.2456
     82  OD2       12.8960  -12.2600   50.7630 O.co2  61  ASP61      -0.2456
     83  N         11.3800  -10.3450   58.1700 N.3    65  TYR65      -0.1241
     84  CA        11.1800   -8.9120   57.9850 C.3    65  TYR65       0.1605
     85  C         10.3630   -8.3720   59.1530 C.2    65  TYR65       0.2264
     86  O          9.6540   -9.1260   59.8250 O.2    65  TYR65      -0.2867
     87  CB        10.4310   -8.6280   56.6780 C.3    65  TYR65       0.0534
     88  CG        11.1880   -9.0560   55.4470 C.ar   65  TYR65      -0.0201
     89  CD1       11.9950   -8.1510   54.7580 C.ar   65  TYR65      -0.0009
     90  CD2       11.1280  -10.3690   54.9940 C.ar   65  TYR65      -0.0009
     91  CE1       12.7060   -8.5400   53.6330 C.ar   65  TYR65       0.0417
     92  CE2       11.8300  -10.7740   53.8780 C.ar   65  TYR65       0.0417
     93  CZ        12.6280   -9.8520   53.2050 C.ar   65  TYR65       0.1957
     94  OH        13.3300  -10.2450   52.0980 O.3    65  TYR65      -0.2866
     95  N          3.8510   -5.7160   56.3510 N.3    82  TYR82      -0.1241
     96  CA         5.3180   -5.5710   56.3880 C.3    82  TYR82       0.1605
     97  C          5.6990   -4.0970   56.3900 C.2    82  TYR82       0.2264
     98  O          5.6560   -3.4170   55.3520 O.2    82  TYR82      -0.2867
     99  CB         5.9700   -6.2800   55.2070 C.3    82  TYR82       0.0534
    100  CG         5.9500   -7.8090   55.3400 C.ar   82  TYR82      -0.0201
    101  CD1        6.9510   -8.4750   56.0370 C.ar   82  TYR82      -0.0009
    102  CD2        4.9370   -8.5790   54.7410 C.ar   82  TYR82      -0.0009
    103  CE1        6.9490   -9.8780   56.1610 C.ar   82  TYR82       0.0417
    104  CE2        4.9350   -9.9850   54.8490 C.ar   82  TYR82       0.0417
    105  CZ         5.9350  -10.6190   55.5710 C.ar   82  TYR82       0.1957
    106  OH         5.9620  -11.9950   55.6770 O.3    82  TYR82      -0.2866
    107  N          8.0600   -2.4780   53.7940 N.3    85  TYR85      -0.1241
    108  CA         7.7830   -2.7780   52.3790 C.3    85  TYR85       0.1605
    109  C          6.3820   -2.3910   51.9270 C.2    85  TYR85       0.2264
    110  O          6.2050   -1.9350   50.7930 O.2    85  TYR85      -0.2867
    111  CB         8.1010   -4.2550   52.0440 C.3    85  TYR85       0.0534
    112  CG         9.5700   -4.5650   52.2270 C.ar   85  TYR85      -0.0201
    113  CD1       10.4600   -4.5670   51.1460 C.ar   85  TYR85      -0.0009
    114  CD2       10.0870   -4.8170   53.5040 C.ar   85  TYR85      -0.0009
    115  CE1       11.8370   -4.8240   51.3500 C.ar   85  TYR85       0.0417
    116  CE2       11.3940   -5.0530   53.7010 C.ar   85  TYR85       0.0417
    117  CZ        12.2690   -5.0710   52.6330 C.ar   85  TYR85       0.1957
    118  OH        13.5780   -5.3330   52.9130 O.3    85  TYR85      -0.2866
    119  N          3.6130   -4.5430   51.8040 N.3    87  ASN87      -0.1240
    120  CA         2.7770   -5.6700   51.4260 C.3    87  ASN87       0.1653
    121  C          2.1370   -6.3330   52.6610 C.2    87  ASN87       0.2266
    122  O          2.5640   -6.1030   53.8130 O.2    87  ASN87      -0.2867
    123  CB         3.5440   -6.6620   50.5350 C.3    87  ASN87       0.1155
    124  CG         4.6980   -7.3190   51.2540 C.2    87  ASN87       0.2627
    125  OD1        5.6230   -6.6550   51.7450 O.2    87  ASN87      -0.2716
    126  ND2        4.6500   -8.6460   51.3270 N.am   87  ASN87      -0.0877
    127  N          7.9970   -1.9660   40.1430 N.3   141  GLN141     -0.1231
    128  CA         8.0290   -2.7010   41.4260 C.3   141  GLN141      0.1698
    129  C          9.4010   -3.3270   41.6030 C.2   141  GLN141      0.2592
    130  O          9.8890   -4.0340   40.7200 O.2   141  GLN141     -0.2718
    131  CB         6.9120   -3.7520   41.5610 C.3   141  GLN141      0.0381
    132  CG         6.7140   -4.2220   43.0340 C.3   141  GLN141      0.0905
    133  CD         5.5470   -5.1660   43.2300 C.2   141  GLN141      0.2608
    134  OE1        4.4820   -4.7730   43.7370 O.2   141  GLN141     -0.2717
    135  NE2        5.7420   -6.4250   42.8580 N.am  141  GLN141     -0.0878
    136  N         10.0180   -3.0320   42.7470 N.am  142  ASN142     -0.1974
    137  CA        11.3250   -3.5330   43.1240 C.3   142  ASN142      0.1688
    138  C         12.4530   -2.9580   42.2670 C.2   142  ASN142      0.2292
    139  O         13.3620   -3.6710   41.8570 O.2   142  ASN142     -0.2864
    140  CB        11.3320   -5.0710   43.1880 C.3   142  ASN142      0.1181
    141  CG        10.5220   -5.6020   44.3640 C.2   142  ASN142      0.2629
    142  OD1        9.5780   -6.3760   44.1980 O.2   142  ASN142     -0.2716
    143  ND2       10.8630   -5.1440   45.5560 N.am  142  ASN142     -0.0877
    144  N         14.6780    1.0530   41.7660 N.3   144  GLN144     -0.1245
    145  CA        14.9220    2.4030   42.2190 C.3   144  GLN144      0.1566
    146  C         14.3360    3.4000   41.2290 C.2   144  GLN144      0.2260
    147  O         14.4330    3.2070   40.0120 O.2   144  GLN144     -0.2867
    148  CB        16.4230    2.6480   42.4130 C.3   144  GLN144      0.0367
    149  CG        16.7080    3.9100   43.1790 C.3   144  GLN144      0.0905
    150  CD        18.1300    4.0140   43.6380 C.2   144  GLN144      0.2608
    151  OE1       18.6350    3.1520   44.3580 O.2   144  GLN144     -0.2717
    152  NE2       18.7910    5.0810   43.2300 N.am  144  GLN144     -0.0878
@<TRIPOS>BOND
     1   147   146    2
     2   127   128    1
     3   130   129    2
     4   146   145    1
     5   128   131    1
     6   128   129    1
     7   131   132    1
     8   129   136   am
     9   144   145    1
    10   139   138    2
    11   145   148    1
    12   138   137    1
    13   148   149    1
    14   136   137    1
    15   135   133   am
    16   132   133    1
    17   137   140    1
    18   149   150    1
    19   140   141    1
    20   133   134    2
    21   152   150   am
    22   150   151    2
    23   142   141    2
    24   141   143   am
    25     9     7   ar
    26     9    11   ar
    27     7     6   ar
    28    11    10   ar
    29    21    22    2
    30    21    20    1
    31     2     3    1
    32     2     1    1
    33     2     5    1
    34     3     4    2
    35     6     5    1
    36     6     8   ar
    37    10     8   ar
    38    12    13    1
    39    20    19    1
    40    20    23    1
    41    19    14   am
    42    14    15    2
    43    14    13    1
    44    26    25   ar
    45    13    16    1
    46    43    41    1
    47    25    27   ar
    48    25    24    1
    49    23    24    1
    50    42    41    1
    51    41    38    1
    52    74    72    1
    53    16    18    1
    54    16    17    1
    55    31    30    2
    56    72    73    1
    57    72    69    1
    58    38    37    1
    59    38    39    1
    60    71    70    2
    61    67    66   ar
    62    67    65   ar
    63    28    29    1
    64    66    64   ar
    65    79    76    1
    66    79    80    1
    67    76    75    1
    68    76    77    1
    69    70    75   am
    70    70    69    1
    71    30    29    1
    72    35    34    2
    73   123   124    1
    74   123   120    1
    75    39    40    2
    76    69    68    1
    77    65    63   ar
    78    82    80   ar
    79    29    32    1
    80   110   109    2
    81    64    62   ar
    82    80    81   ar
    83    32    33    1
    84   113   115   ar
    85   113   112   ar
    86    78    77    2
    87   124   126   am
    88   124   125    2
    89    34    33    1
    90    34    36   am
    91   115   117   ar
    92   120   119    1
    93   120   121    1
    94    68    59   am
    95    63    62   ar
    96   109   108    1
    97    62    61    1
    98   111   112    1
    99   111   108    1
   100    94    93    1
   101   112   114   ar
   102   108   107    1
   103   117   118    1
   104   117   116   ar
   105   121   122    2
   106    59    60    2
   107    59    58    1
   108    45    44    1
   109    45    46    1
   110    93    91   ar
   111    93    92   ar
   112    61    58    1
   113    55    54   ar
   114   114   116   ar
   115    46    47    2
   116    91    89   ar
   117    58    57    1
   118    53    54    1
   119    53    52    1
   120    92    90   ar
   121    54    56   ar
   122    52    49    1
   123   102   104   ar
   124   102   100   ar
   125    89    88   ar
   126   104   105   ar
   127    90    88   ar
   128    99   100    1
   129    99    96    1
   130   100   101   ar
   131    98    97    2
   132    88    87    1
   133    49    48    1
   134    49    50    1
   135   105   106    1
   136   105   103   ar
   137   101   103   ar
   138    95    96    1
   139    96    97    1
   140    87    84    1
   141    50    51    2
   142    84    83    1
   143    84    85    1
   144    85    86    2
