@<TRIPOS>MOLECULE
tmp/3omhA00.pdb
 187 181 0 0 0
SMALL
GASTEIGER

@<TRIPOS>ATOM
      1  N         42.6510  -24.9210   54.6200 N.3    28  PHE28      -0.1241
      2  CA        41.3920  -24.3000   54.2080 C.3    28  PHE28       0.1605
      3  C         40.2060  -24.7350   55.0780 C.2    28  PHE28       0.2264
      4  O         39.1330  -24.1470   55.0190 O.2    28  PHE28      -0.2867
      5  CB        41.1290  -24.6070   52.7230 C.3    28  PHE28       0.0534
      6  CG        39.8030  -24.1170   52.2210 C.ar   28  PHE28      -0.0203
      7  CD1       39.3440  -22.8420   52.5400 C.ar   28  PHE28      -0.0042
      8  CD2       39.0090  -24.9330   51.4200 C.ar   28  PHE28      -0.0042
      9  CE1       38.1030  -22.3920   52.0800 C.ar   28  PHE28      -0.0003
     10  CE2       37.7670  -24.4900   50.9550 C.ar   28  PHE28      -0.0003
     11  CZ        37.3160  -23.2170   51.2840 C.ar   28  PHE28      -0.0000
     12  N         37.1800  -22.0720   56.9250 N.3    32  LYS32      -0.1245
     13  CA        35.7890  -22.4950   56.9080 C.3    32  LYS32       0.1561
     14  C         35.2560  -22.5850   58.3330 C.2    32  LYS32       0.2260
     15  O         34.1350  -22.1430   58.6180 O.2    32  LYS32      -0.2867
     16  CB        35.6690  -23.8560   56.2260 C.3    32  LYS32       0.0271
     17  CG        35.9240  -23.8370   54.7260 C.3    32  LYS32       0.0035
     18  CD        34.6740  -23.4560   53.9280 C.3    32  LYS32       0.0206
     19  CE        33.5940  -24.5390   54.0190 C.3    32  LYS32       0.1093
     20  NZ        32.5040  -24.3790   53.0020 N.3    32  LYS32      -0.1314
     21  N         20.8940   -7.8200   47.2300 N.3    58  ASN58      -0.1225
     22  CA        21.8200   -8.8970   47.5790 C.3    58  ASN58       0.1785
     23  C         21.7730   -9.9470   46.4750 C.2    58  ASN58       0.2597
     24  O         20.7580  -10.6200   46.3110 O.2    58  ASN58      -0.2718
     25  CB        21.4040   -9.5370   48.9010 C.3    58  ASN58       0.1169
     26  CG        21.4610   -8.5670   50.0530 C.2    58  ASN58       0.2627
     27  OD1       22.4810   -7.9110   50.2680 O.2    58  ASN58      -0.2716
     28  ND2       20.3700   -8.4690   50.8060 N.am   58  ASN58      -0.0877
     29  N         22.8630  -10.0900   45.7220 N.am   59  ARG59      -0.1966
     30  CA        22.9010  -11.0530   44.6220 C.3    59  ARG59       0.1729
     31  C         22.8600  -12.4950   45.0930 C.2    59  ARG59       0.2616
     32  O         22.2940  -13.3550   44.4250 O.2    59  ARG59      -0.2715
     33  CB        24.1320  -10.8370   43.7480 C.3    59  ARG59       0.0348
     34  CG        24.2330  -11.8380   42.6210 C.3    59  ARG59       0.0492
     35  CD        25.5230  -11.6940   41.8360 C.3    59  ARG59       0.2205
     36  NE        25.4880  -10.6240   40.8440 N.pl3  59  ARG59      -0.0865
     37  CZ        24.6140  -10.5780   39.8480 C.cat  59  ARG59       0.5346
     38  NH1       23.7120  -11.5350   39.7270 N.pl3  59  ARG59       0.1354
     39  NH2       24.6510   -9.5920   38.9700 N.pl3  59  ARG59       0.1354
     40  N         23.4740  -12.7690   46.2380 N.am   60  TYR60      -0.1960
     41  CA        23.4550  -14.1190   46.8080 C.3    60  TYR60       0.1771
     42  C         22.9390  -13.9810   48.2420 C.2    60  TYR60       0.2619
     43  O         23.4520  -13.1550   49.0050 O.2    60  TYR60      -0.2715
     44  CB        24.8580  -14.7230   46.8000 C.3    60  TYR60       0.0574
     45  CG        25.4370  -14.8940   45.4140 C.ar   60  TYR60      -0.0198
     46  CD1       24.9170  -15.8480   44.5380 C.ar   60  TYR60      -0.0009
     47  CD2       26.4870  -14.0890   44.9630 C.ar   60  TYR60      -0.0009
     48  CE1       25.4160  -15.9890   43.2620 C.ar   60  TYR60       0.0417
     49  CE2       26.9960  -14.2380   43.6780 C.ar   60  TYR60       0.0417
     50  CZ        26.4470  -15.1830   42.8370 C.ar   60  TYR60       0.1957
     51  OH        26.8820  -15.2940   41.5420 O.3    60  TYR60      -0.2866
     52  N         21.9240  -14.7650   48.6100 N.am   61  LYS61      -0.1963
     53  CA        21.3530  -14.6620   49.9560 C.3    61  LYS61       0.1728
     54  C         22.2880  -15.0720   51.0840 C.2    61  LYS61       0.2616
     55  O         21.9780  -14.8660   52.2570 O.2    61  LYS61      -0.2715
     56  CB        20.0420  -15.4560   50.0670 C.3    61  LYS61       0.0311
     57  CG        20.1540  -16.9570   49.8500 C.3    61  LYS61       0.0038
     58  CD        19.1180  -17.7160   50.7060 C.3    61  LYS61       0.0206
     59  CE        17.6780  -17.2370   50.4630 C.3    61  LYS61       0.1093
     60  NZ        16.6960  -17.8840   51.3870 N.3    61  LYS61      -0.1314
     61  N         23.4250  -15.6580   50.7280 N.am   62  ASP62      -0.1957
     62  CA        24.4020  -16.0710   51.7270 C.3    62  ASP62       0.1840
     63  C         25.5450  -15.0580   51.8120 C.2    62  ASP62       0.2621
     64  O         25.9440  -14.6520   52.8990 O.2    62  ASP62      -0.2715
     65  CB        24.9470  -17.4650   51.4010 C.3    62  ASP62       0.1450
     66  CG        25.2170  -17.6570   49.9220 C.2    62  ASP62       0.3671
     67  OD1       25.3320  -16.6520   49.1820 O.co2  62  ASP62      -0.2456
     68  OD2       25.3230  -18.8240   49.4960 O.co2  62  ASP62      -0.2456
     69  N         26.0610  -14.6410   50.6620 N.am   63  ILE63      -0.1977
     70  CA        27.1450  -13.6710   50.6240 C.3    63  ILE63       0.1596
     71  C         26.6460  -12.3060   51.0830 C.2    63  ILE63       0.2287
     72  O         26.1190  -11.5480   50.2890 O.2    63  ILE63      -0.2864
     73  CB        27.7140  -13.5590   49.1980 C.3    63  ILE63       0.0276
     74  CG1       28.2710  -14.9140   48.7720 C.3    63  ILE63       0.0022
     75  CG2       28.7860  -12.5070   49.1350 C.3    63  ILE63       0.0022
     76  CD1       29.1170  -15.5930   49.8360 C.3    63  ILE63       0.0001
     77  N         23.6830   -5.9500   40.4000 N.3   106  LEU106     -0.1245
     78  CA        22.4220   -6.4380   39.8810 C.3   106  LEU106      0.1561
     79  C         21.9100   -5.2760   39.0430 C.2   106  LEU106      0.2260
     80  O         22.6040   -4.2780   38.8640 O.2   106  LEU106     -0.2867
     81  CB        21.4520   -6.7340   41.0260 C.3   106  LEU106      0.0270
     82  CG        21.8950   -7.7630   42.0740 C.3   106  LEU106      0.0019
     83  CD1       20.8540   -7.8310   43.1960 C.3   106  LEU106      0.0001
     84  CD2       22.0980   -9.1290   41.4060 C.3   106  LEU106      0.0001
     85  N         24.5890  -19.3470   33.1060 N.3   136  LYS136     -0.1231
     86  CA        23.8780  -18.5390   34.0880 C.3   136  LYS136      0.1693
     87  C         24.4780  -17.1460   34.1650 C.2   136  LYS136      0.2592
     88  O         25.6880  -16.9690   33.9930 O.2   136  LYS136     -0.2718
     89  CB        23.9580  -19.1890   35.4730 C.3   136  LYS136      0.0285
     90  CG        23.0820  -20.4190   35.6400 C.3   136  LYS136      0.0035
     91  CD        21.6430  -20.0440   35.9800 C.3   136  LYS136      0.0206
     92  CE        21.5720  -19.3460   37.3390 C.3   136  LYS136      0.1093
     93  NZ        20.1750  -19.1460   37.8360 N.3   136  LYS136     -0.1314
     94  N         23.6240  -16.1600   34.4230 N.am  137  LYS137     -0.1966
     95  CA        24.0730  -14.7830   34.5520 C.3   137  LYS137      0.1728
     96  C         24.8500  -14.6390   35.8530 C.2   137  LYS137      0.2616
     97  O         24.5210  -15.2570   36.8710 O.2   137  LYS137     -0.2715
     98  CB        22.8840  -13.8260   34.5650 C.3   137  LYS137      0.0311
     99  CG        23.2820  -12.3680   34.7490 C.3   137  LYS137      0.0038
    100  CD        24.1560  -11.8890   33.6030 C.3   137  LYS137      0.0206
    101  CE        23.3960  -11.9500   32.2910 C.3   137  LYS137      0.1093
    102  NZ        22.1070  -11.2050   32.3950 N.3   137  LYS137     -0.1314
    103  N         25.8760  -13.8020   35.8150 N.am  138  LYS138     -0.1977
    104  CA        26.7250  -13.5720   36.9750 C.3   138  LYS138      0.1596
    105  C         26.8260  -12.0910   37.3110 C.2   138  LYS138      0.2287
    106  O         26.5330  -11.6690   38.4300 O.2   138  LYS138     -0.2864
    107  CB        28.1180  -14.1370   36.6900 C.3   138  LYS138      0.0298
    108  CG        28.1020  -15.6240   36.4090 C.3   138  LYS138      0.0038
    109  CD        28.4190  -16.4060   37.6610 C.3   138  LYS138      0.0206
    110  CE        27.5350  -17.6240   37.8000 C.3   138  LYS138      0.1093
    111  NZ        26.1290  -17.2290   38.0650 N.3   138  LYS138     -0.1314
    112  N         33.7610   -9.6940   41.6620 N.3   227  SER227     -0.1202
    113  CA        33.6620  -10.9550   40.9360 C.3   227  SER227      0.2020
    114  C         32.1600  -11.2010   40.8450 C.2   227  SER227      0.2619
    115  O         31.3850  -10.2470   40.7830 O.2   227  SER227     -0.2717
    116  CB        34.3390  -12.0680   41.7250 C.3   227  SER227      0.2103
    117  OG        33.8730  -12.0760   43.0620 O.3   227  SER227     -0.2182
    118  N         31.7320  -12.4560   40.8340 N.am  228  SER228     -0.1937
    119  CA        30.3010  -12.7090   40.7760 C.3   228  SER228      0.2055
    120  C         29.7290  -12.3510   42.1490 C.2   228  SER228      0.2643
    121  O         28.7290  -11.6340   42.2540 O.2   228  SER228     -0.2714
    122  CB        30.0100  -14.1760   40.4350 C.3   228  SER228      0.2130
    123  OG        28.6120  -14.3980   40.2760 O.3   228  SER228     -0.2179
    124  N         30.3290  -12.8370   43.2930 N.am  229  ALA229     -0.1963
    125  CA        29.8750  -12.4500   44.6270 C.3   229  ALA229      0.1728
    126  C         30.8400  -11.4720   45.2760 C.2   229  ALA229      0.2617
    127  O         30.5740  -10.9420   46.3610 O.2   229  ALA229     -0.2715
    128  CB        29.7380  -13.6780   45.5120 C.3   229  ALA229      0.0334
    129  N         31.9590  -11.2240   44.6040 N.am  230  GLY230     -0.1940
    130  CA        32.9510  -10.3380   45.1750 C.3   230  GLY230      0.2014
    131  C         33.5280  -11.0480   46.3940 C.2   230  GLY230      0.2639
    132  O         33.6150  -10.4930   47.4880 O.2   230  GLY230     -0.2714
    133  N         33.8850  -12.3120   46.1920 N.am  231  CYS231     -0.1953
    134  CA        34.4660  -13.1480   47.2290 C.3   231  CYS231      0.1843
    135  C         35.5770  -13.9120   46.5500 C.2   231  CYS231      0.2626
    136  O         36.6100  -13.3480   46.2060 O.2   231  CYS231     -0.2714
    137  CB        33.4420  -14.1430   47.7770 C.3   231  CYS231      0.0997
    138  SG        32.1430  -13.4300   48.7900 S.3   231  CYS231     -0.0797
    139  N         35.3360  -15.1990   46.3420 N.am  232  GLY232     -0.1940
    140  CA        36.3120  -16.0600   45.7050 C.3   232  GLY232      0.2014
    141  C         37.3950  -15.3280   44.9480 C.2   232  GLY232      0.2638
    142  O         38.3400  -14.8160   45.5480 O.2   232  GLY232     -0.2714
    143  N         37.2580  -15.2640   43.6310 N.am  233  ARG233     -0.1977
    144  CA        38.2560  -14.6010   42.8030 C.3   233  ARG233      0.1597
    145  C         38.6710  -13.2070   43.2910 C.2   233  ARG233      0.2287
    146  O         39.7990  -12.7730   43.0570 O.2   233  ARG233     -0.2864
    147  CB        37.7500  -14.5470   41.3570 C.3   233  ARG233      0.0334
    148  CG        37.7260  -15.9070   40.6870 C.3   233  ARG233      0.0492
    149  CD        36.8800  -15.8870   39.4470 C.3   233  ARG233      0.2205
    150  NE        35.4650  -15.7920   39.7870 N.pl3 233  ARG233     -0.0865
    151  CZ        34.4880  -15.6680   38.8990 C.cat 233  ARG233      0.5346
    152  NH1       34.7710  -15.6190   37.6050 N.pl3 233  ARG233      0.1354
    153  NH2       33.2290  -15.5910   39.3130 N.pl3 233  ARG233      0.1354
    154  N         36.9130  -18.4060   48.5930 N.3   274  GLN274     -0.1231
    155  CA        35.8620  -19.3780   48.8960 C.3   274  GLN274      0.1698
    156  C         36.1340  -20.8780   48.7680 C.2   274  GLN274      0.2592
    157  O         35.3720  -21.6830   49.3100 O.2   274  GLN274     -0.2718
    158  CB        34.6170  -19.0130   48.0770 C.3   274  GLN274      0.0381
    159  CG        33.3780  -19.8390   48.3900 C.3   274  GLN274      0.0905
    160  CD        32.9240  -19.6880   49.8310 C.2   274  GLN274      0.2608
    161  OE1       32.6590  -18.5750   50.2980 O.2   274  GLN274     -0.2717
    162  NE2       32.8270  -20.8120   50.5450 N.am  274  GLN274     -0.0878
    163  N         37.1900  -21.2690   48.0600 N.am  275  THR275     -0.1953
    164  CA        37.4860  -22.6930   47.9300 C.3   275  THR275      0.1897
    165  C         38.9590  -23.0340   47.9650 C.2   275  THR275      0.2313
    166  O         39.8210  -22.1770   47.7580 O.2   275  THR275     -0.2863
    167  CB        36.9490  -23.2720   46.6390 C.3   275  THR275      0.1794
    168  OG1       37.5760  -22.6070   45.5410 O.3   275  THR275     -0.2208
    169  CG2       35.4520  -23.1100   46.5690 C.3   275  THR275      0.0378
    170  N         40.8100  -24.7990   45.8520 N.3   277  GLU277     -0.1231
    171  CA        41.5220  -24.5480   44.6020 C.3   277  GLU277      0.1699
    172  C         41.9740  -23.1000   44.4960 C.2   277  GLU277      0.2592
    173  O         42.9930  -22.8060   43.8610 O.2   277  GLU277     -0.2718
    174  CB        40.6570  -24.9140   43.3890 C.3   277  GLU277      0.0402
    175  CG        40.4130  -26.4200   43.2230 C.3   277  GLU277      0.1161
    176  CD        39.3460  -26.9570   44.1690 C.2   277  GLU277      0.3649
    177  OE1       38.1390  -26.7310   43.9050 O.co2 277  GLU277     -0.2457
    178  OE2       39.7190  -27.6010   45.1800 O.co2 277  GLU277     -0.2457
    179  N         41.2220  -22.1940   45.1160 N.am  278  GLN278     -0.1979
    180  CA        41.5840  -20.7790   45.0900 C.3   278  GLN278      0.1601
    181  C         42.6460  -20.5210   46.1460 C.2   278  GLN278      0.2287
    182  O         43.6160  -19.8080   45.9020 O.2   278  GLN278     -0.2864
    183  CB        40.3650  -19.9070   45.3520 C.3   278  GLN278      0.0394
    184  CG        39.2630  -20.1180   44.3400 C.3   278  GLN278      0.0908
    185  CD        38.2530  -19.0090   44.3670 C.2   278  GLN278      0.2608
    186  OE1       37.6380  -18.7290   45.4010 O.2   278  GLN278     -0.2717
    187  NE2       38.0750  -18.3590   43.2290 N.am  278  GLN278     -0.0878
@<TRIPOS>BOND
     1   101   102    1
     2   101   100    1
     3    85    86    1
     4   100    99    1
     5    88    87    2
     6    86    87    1
     7    86    89    1
     8    87    94   am
     9    94    95    1
    10    95    98    1
    11    95    96    1
    12    98    99    1
    13    89    90    1
    14    90    91    1
    15   103    96   am
    16   103   104    1
    17    96    97    2
    18    91    92    1
    19   108   107    1
    20   108   109    1
    21   107   104    1
    22   104   105    1
    23   105   106    2
    24    92    93    1
    25   152   151    1
    26   109   110    1
    27   110   111    1
    28    80    79    2
    29   151   153    1
    30   151   150    2
    31    39    37    1
    32    79    78    1
    33   149   150    1
    34   149   148    1
    35    38    37    1
    36    37    36    2
    37    78    77    1
    38    78    81    1
    39   123   122    1
    40   122   119    1
    41   148   147    1
    42   119   118    1
    43   119   120    1
    44   115   114    2
    45   118   114   am
    46    36    35    1
    47   114   113    1
    48   113   112    1
    49   113   116    1
    50    81    82    1
    51   147   144    1
    52    84    82    1
    53    51    50    1
    54   116   117    1
    55    35    34    1
    56    82    83    1
    57   120   121    2
    58   120   124   am
    59    34    33    1
    60   144   145    1
    61   144   143    1
    62    50    48   ar
    63    50    49   ar
    64   146   145    2
    65   175   174    1
    66   175   176    1
    67   187   185   am
    68    48    46   ar
    69   124   125    1
    70   174   171    1
    71   143   141   am
    72    49    47   ar
    73    33    30    1
    74   173   172    2
    75   177   176   ar
    76   176   178   ar
    77   184   185    1
    78   184   183    1
    79   185   186    2
    80    32    31    2
    81   172   171    1
    82   172   179   am
    83    46    45   ar
    84   171   170    1
    85   129   130    1
    86   129   126   am
    87    30    31    1
    88    30    29    1
    89   125   126    1
    90   125   128    1
    91   141   142    2
    92   141   140    1
    93    47    45   ar
    94   180   179    1
    95   180   183    1
    96   180   181    1
    97    31    40   am
    98   130   131    1
    99   126   127    2
   100    45    44    1
   101   168   167    1
   102   140   139    1
   103    29    23   am
   104   182   181    2
   105   133   131   am
   106   133   134    1
   107   136   135    2
   108    40    41    1
   109    24    23    2
   110   139   135   am
   111   131   132    2
   112    23    22    1
   113   135   134    1
   114   169   167    1
   115   167   164    1
   116    44    41    1
   117    41    42    1
   118   134   137    1
   119    21    22    1
   120    22    25    1
   121   166   165    2
   122   137   138    1
   123   164   165    1
   124   164   163    1
   125   163   156   am
   126   158   159    1
   127   158   155    1
   128    42    52   am
   129    42    43    2
   130   159   160    1
   131   154   155    1
   132    52    53    1
   133   156   155    1
   134   156   157    2
   135    74    73    1
   136    74    76    1
   137    25    26    1
   138    75    73    1
   139    67    66   ar
   140    73    70    1
   141    68    66   ar
   142   160   161    2
   143   160   162   am
   144    57    56    1
   145    57    58    1
   146    66    65    1
   147    53    56    1
   148    53    54    1
   149    26    27    2
   150    26    28   am
   151    72    71    2
   152    59    58    1
   153    59    60    1
   154    70    69    1
   155    70    71    1
   156    69    63   am
   157    61    54   am
   158    61    62    1
   159    10    11   ar
   160    10     8   ar
   161    54    55    2
   162    11     9   ar
   163    65    62    1
   164     8     6   ar
   165    62    63    1
   166    63    64    2
   167     9     7   ar
   168     6     7   ar
   169     6     5    1
   170     5     2    1
   171    20    19    1
   172    18    19    1
   173    18    17    1
   174     2     1    1
   175     2     3    1
   176    17    16    1
   177     4     3    2
   178    16    13    1
   179    13    12    1
   180    13    14    1
   181    14    15    2
