@<TRIPOS>MOLECULE
tmp/3omnA00.pdb
 90 86 0 0 0
SMALL
GASTEIGER

@<TRIPOS>ATOM
      1  N         -6.2850  -34.4640    1.1680 N.3    33  VAL33      -0.1245
      2  CA        -6.7420  -35.3950    0.1440 C.3    33  VAL33       0.1561
      3  C         -5.5430  -36.0070   -0.5950 C.2    33  VAL33       0.2260
      4  O         -5.4720  -37.2260   -0.7850 O.2    33  VAL33      -0.2867
      5  CB        -7.6840  -34.6710   -0.8480 C.3    33  VAL33       0.0252
      6  CG1       -7.9630  -35.5250   -2.0760 C.3    33  VAL33       0.0019
      7  CG2       -9.0020  -34.2750   -0.1290 C.3    33  VAL33       0.0019
      8  N         -4.2430  -39.7590   -0.5980 N.3    37  MET37      -0.1245
      9  CA        -4.0010  -40.4940   -1.8430 C.3    37  MET37       0.1570
     10  C         -2.7140  -41.3090   -1.7460 C.2    37  MET37       0.2261
     11  O         -2.7080  -42.5050   -2.0430 O.2    37  MET37      -0.2867
     12  CB        -3.9570  -39.5370   -3.0400 C.3    37  MET37       0.0387
     13  CG        -5.3450  -39.0710   -3.4840 C.3    37  MET37       0.0595
     14  SD        -5.2880  -37.5880   -4.4850 S.3    37  MET37      -0.1393
     15  CE        -4.4980  -38.2110   -5.9740 C.3    37  MET37       0.0692
     16  N         -3.0480  -44.1100    0.9410 N.3    40  MET40      -0.1230
     17  CA        -4.0730  -45.1150    0.6350 C.3    40  MET40       0.1702
     18  C         -3.4880  -46.5280    0.4650 C.2    40  MET40       0.2592
     19  O         -4.1250  -47.5050    0.8550 O.2    40  MET40      -0.2718
     20  CB        -4.8640  -44.7100   -0.6090 C.3    40  MET40       0.0401
     21  CG        -6.0390  -45.6140   -0.9340 C.3    40  MET40       0.0596
     22  SD        -6.8800  -45.1440   -2.4580 S.3    40  MET40      -0.1393
     23  CE        -5.6270  -44.0440   -3.1690 C.3    40  MET40       0.0692
     24  N         -2.2790  -46.6170   -0.0930 N.am   41  ALA41      -0.1980
     25  CA        -1.5910  -47.9040   -0.3110 C.3    41  ALA41       0.1597
     26  C         -0.0800  -47.8230   -0.0440 C.2    41  ALA41       0.2287
     27  O          0.5410  -46.7900   -0.3120 O.2    41  ALA41      -0.2864
     28  CB        -1.8530  -48.4280   -1.7330 C.3    41  ALA41       0.0319
     29  N          3.5630  -43.8470   -4.8630 N.3    45  GLN45      -0.1231
     30  CA         3.0160  -43.8540   -6.2180 C.3    45  GLN45       0.1698
     31  C          2.8050  -42.4470   -6.7780 C.2    45  GLN45       0.2592
     32  O          2.7320  -42.2730   -7.9940 O.2    45  GLN45      -0.2718
     33  CB         1.6640  -44.6010   -6.2620 C.3    45  GLN45       0.0381
     34  CG         1.7370  -46.1030   -6.0160 C.3    45  GLN45       0.0905
     35  CD         1.5740  -46.4760   -4.5610 C.2    45  GLN45       0.2608
     36  OE1        1.1620  -45.6500   -3.7280 O.2    45  GLN45      -0.2717
     37  NE2        1.9140  -47.7210   -4.2300 N.am   45  GLN45      -0.0878
     38  N          2.6860  -41.4510   -5.9010 N.am   46  PHE46      -0.1976
     39  CA         2.3260  -40.0900   -6.3290 C.3    46  PHE46       0.1639
     40  C          3.4910  -39.1150   -6.1830 C.2    46  PHE46       0.2290
     41  O          3.7620  -38.3280   -7.0800 O.2    46  PHE46      -0.2864
     42  CB         1.1010  -39.5700   -5.5460 C.3    46  PHE46       0.0560
     43  CG        -0.1680  -40.3640   -5.7760 C.ar   46  PHE46      -0.0200
     44  CD1       -0.4340  -41.5110   -5.0290 C.ar   46  PHE46      -0.0042
     45  CD2       -1.0970  -39.9580   -6.7360 C.ar   46  PHE46      -0.0042
     46  CE1       -1.6070  -42.2660   -5.2400 C.ar   46  PHE46      -0.0003
     47  CE2       -2.2690  -40.6970   -6.9630 C.ar   46  PHE46      -0.0003
     48  CZ        -2.5290  -41.8520   -6.1950 C.ar   46  PHE46      -0.0000
     49  N         -1.2560  -41.8200  -10.3060 N.3    66  PRO66      -0.2116
     50  CA        -0.2930  -42.7720   -9.7550 C.3    66  PRO66       0.1372
     51  C          0.6360  -43.3880  -10.8000 C.2    66  PRO66       0.2244
     52  O          0.2160  -43.6680  -11.9320 O.2    66  PRO66      -0.2868
     53  CB        -1.1760  -43.8460   -9.1090 C.3    66  PRO66       0.0268
     54  CG        -2.4730  -43.7610   -9.8260 C.3    66  PRO66       0.0207
     55  CD        -2.6310  -42.3550  -10.3180 C.3    66  PRO66       0.0892
     56  N        -11.7650  -39.1760    1.5780 N.3   486  PHE486     -0.1241
     57  CA       -12.3440  -38.8220    0.2850 C.3   486  PHE486      0.1605
     58  C        -13.8350  -38.4990    0.4080 C.2   486  PHE486      0.2264
     59  O        -14.3220  -37.5830   -0.2510 O.2   486  PHE486     -0.2867
     60  CB       -12.1030  -39.8990   -0.7890 C.3   486  PHE486      0.0534
     61  CG       -10.6520  -40.2890   -0.9700 C.ar  486  PHE486     -0.0203
     62  CD1       -9.6140  -39.3890   -0.6910 C.ar  486  PHE486     -0.0042
     63  CD2      -10.3230  -41.5570   -1.4570 C.ar  486  PHE486     -0.0042
     64  CE1       -8.2750  -39.7540   -0.8600 C.ar  486  PHE486     -0.0003
     65  CE2       -8.9920  -41.9300   -1.6330 C.ar  486  PHE486     -0.0003
     66  CZ        -7.9640  -41.0180   -1.3330 C.ar  486  PHE486     -0.0000
     67  N        -14.2040  -35.0790    2.0470 N.3   489  PHE489     -0.1227
     68  CA       -13.9130  -34.0610    1.0430 C.3   489  PHE489      0.1736
     69  C        -15.1310  -33.7920    0.1540 C.2   489  PHE489      0.2595
     70  O        -15.4940  -32.6370   -0.0600 O.2   489  PHE489     -0.2718
     71  CB       -12.6950  -34.4620    0.1990 C.3   489  PHE489      0.0547
     72  CG       -12.2620  -33.4120   -0.8000 C.ar  489  PHE489     -0.0202
     73  CD1      -11.9970  -32.1050   -0.3970 C.ar  489  PHE489     -0.0042
     74  CD2      -12.0930  -33.7410   -2.1400 C.ar  489  PHE489     -0.0042
     75  CE1      -11.5860  -31.1340   -1.3090 C.ar  489  PHE489     -0.0003
     76  CE2      -11.6730  -32.7770   -3.0640 C.ar  489  PHE489     -0.0003
     77  CZ       -11.4250  -31.4760   -2.6500 C.ar  489  PHE489     -0.0000
     78  N        -15.7390  -34.8680   -0.3500 N.am  490  ALA490     -0.1980
     79  CA       -17.0320  -34.8190   -1.0320 C.3   490  ALA490      0.1597
     80  C        -18.0850  -34.0270   -0.2210 C.2   490  ALA490      0.2287
     81  O        -18.7850  -33.2060   -0.7780 O.2   490  ALA490     -0.2864
     82  CB       -17.5310  -36.2490   -1.3140 C.3   490  ALA490      0.0319
     83  N        -17.1120  -30.2210   -0.3400 N.3   493  LEU493     -0.1245
     84  CA       -17.4890  -29.6250   -1.6260 C.3   493  LEU493      0.1561
     85  C        -19.0170  -29.4180   -1.7270 C.2   493  LEU493      0.2260
     86  O        -19.4630  -28.4240   -2.2760 O.2   493  LEU493     -0.2867
     87  CB       -16.9890  -30.4700   -2.8220 C.3   493  LEU493      0.0270
     88  CG       -15.4640  -30.6440   -3.0070 C.3   493  LEU493      0.0019
     89  CD1      -15.1680  -31.7130   -4.0440 C.3   493  LEU493      0.0001
     90  CD2      -14.7740  -29.3310   -3.3700 C.3   493  LEU493      0.0001
@<TRIPOS>BOND
     1    52    51    2
     2    51    50    1
     3    55    49    1
     4    55    54    1
     5    49    50    1
     6    54    53    1
     7    50    53    1
     8    32    31    2
     9    41    40    2
    10    47    45   ar
    11    47    48   ar
    12    31    30    1
    13    31    38   am
    14    45    43   ar
    15    39    40    1
    16    39    38    1
    17    39    42    1
    18    33    30    1
    19    33    34    1
    20    30    29    1
    21    48    46   ar
    22    34    35    1
    23    15    14    1
    24    43    42    1
    25    43    44   ar
    26    46    44   ar
    27    35    37   am
    28    35    36    2
    29    14    13    1
    30    89    88    1
    31    13    12    1
    32    90    88    1
    33    23    22    1
    34    76    77   ar
    35    76    74   ar
    36    12     9    1
    37    88    87    1
    38    87    84    1
    39    77    75   ar
    40    22    21    1
    41    86    85    2
    42    74    72   ar
    43     6     5    1
    44    11    10    2
    45     9    10    1
    46     9     8    1
    47    28    25    1
    48    85    84    1
    49    65    63   ar
    50    65    66   ar
    51    84    83    1
    52    63    61   ar
    53    66    64   ar
    54    82    79    1
    55    75    73   ar
    56    79    78    1
    57    79    80    1
    58    61    60    1
    59    61    62   ar
    60    21    20    1
    61    64    62   ar
    62     5     7    1
    63     5     2    1
    64    72    73   ar
    65    72    71    1
    66    60    57    1
    67     4     3    2
    68    81    80    2
    69    20    17    1
    70     3     2    1
    71    78    69   am
    72    27    26    2
    73    25    24    1
    74    25    26    1
    75    59    58    2
    76    24    18   am
    77    70    69    2
    78     2     1    1
    79    69    68    1
    80    71    68    1
    81    57    58    1
    82    57    56    1
    83    18    17    1
    84    18    19    2
    85    17    16    1
    86    68    67    1
