@<TRIPOS>MOLECULE
tmp/3omnC01.pdb
 123 119 0 0 0
SMALL
GASTEIGER

@<TRIPOS>ATOM
      1  N         62.4560  -39.9480   48.4000 N.3    30  VAL30      -0.1245
      2  CA        63.5430  -40.7050   47.7740 C.3    30  VAL30       0.1561
      3  C         64.3840  -39.7660   46.9170 C.2    30  VAL30       0.2260
      4  O         65.6100  -39.8500   46.9230 O.2    30  VAL30      -0.2867
      5  CB        63.0080  -41.8780   46.9100 C.3    30  VAL30       0.0252
      6  CG1       64.1090  -42.4610   46.0290 C.3    30  VAL30       0.0019
      7  CG2       62.4250  -42.9620   47.8080 C.3    30  VAL30       0.0019
      8  N         68.2240  -38.7190   47.2740 N.3    34  MET34      -0.1245
      9  CA        69.1710  -38.8810   46.1700 C.3    34  MET34       0.1570
     10  C         70.0890  -37.6500   46.1140 C.2    34  MET34       0.2261
     11  O         71.3180  -37.7780   46.1030 O.2    34  MET34      -0.2867
     12  CB        68.4350  -39.0850   44.8410 C.3    34  MET34       0.0387
     13  CG        67.8840  -40.5120   44.6410 C.3    34  MET34       0.0595
     14  SD        66.5460  -40.6130   43.4370 S.3    34  MET34      -0.1393
     15  CE        67.4270  -40.2860   41.9080 C.3    34  MET34       0.0692
     16  N         72.4040  -37.3420   49.1630 N.3    37  MET37      -0.1230
     17  CA        73.3500  -38.4520   49.2970 C.3    37  MET37       0.1702
     18  C         74.8050  -37.9890   49.1760 C.2    37  MET37       0.2592
     19  O         75.6970  -38.5410   49.8300 O.2    37  MET37      -0.2718
     20  CB        73.0300  -39.5380   48.2660 C.3    37  MET37       0.0401
     21  CG        74.0390  -40.6570   48.1780 C.3    37  MET37       0.0596
     22  SD        73.5330  -41.9480   47.0290 S.3    37  MET37      -0.1393
     23  CE        72.7470  -40.9650   45.7450 C.3    37  MET37       0.0692
     24  N         75.0380  -36.9790   48.3440 N.am   38  ALA38      -0.1966
     25  CA        76.3840  -36.4290   48.1640 C.3    38  ALA38       0.1713
     26  C         76.3760  -34.9010   48.0820 C.2    38  ALA38       0.2458
     27  O         75.4440  -34.3200   47.5070 O.2    38  ALA38      -0.2730
     28  CB        77.0440  -37.0260   46.9180 C.3    38  ALA38       0.0333
     29  N         77.4250  -34.2480   48.6310 N.am   39  PRO39      -0.2727
     30  CA        77.5380  -32.7830   48.5460 C.3    39  PRO39       0.1402
     31  C         77.7480  -32.3680   47.0920 C.2    39  PRO39       0.2269
     32  O         78.2400  -33.1750   46.2860 O.2    39  PRO39      -0.2865
     33  CB        78.7830  -32.4680   49.3840 C.3    39  PRO39       0.0296
     34  CG        79.5970  -33.7380   49.3590 C.3    39  PRO39       0.0237
     35  CD        78.5780  -34.8520   49.3320 C.3    39  PRO39       0.0939
     36  N         73.6340  -32.5280   41.9220 N.3    42  GLN42      -0.1231
     37  CA        73.7830  -33.4190   40.7590 C.3    42  GLN42       0.1698
     38  C         72.4640  -33.7500   40.0710 C.2    42  GLN42       0.2592
     39  O         72.4660  -34.2130   38.9290 O.2    42  GLN42      -0.2718
     40  CB        74.4850  -34.7260   41.1360 C.3    42  GLN42       0.0381
     41  CG        75.8880  -34.5540   41.6750 C.3    42  GLN42       0.0905
     42  CD        75.9140  -34.3910   43.1840 C.2    42  GLN42       0.2608
     43  OE1       74.8690  -34.4090   43.8410 O.2    42  GLN42      -0.2717
     44  NE2       77.1100  -34.2430   43.7420 N.am   42  GLN42      -0.0878
     45  N         71.3450  -33.5110   40.7510 N.am   43  PHE43      -0.1976
     46  CA        70.0280  -33.8570   40.2050 C.3    43  PHE43       0.1639
     47  C         69.1780  -32.6340   39.9030 C.2    43  PHE43       0.2290
     48  O         68.6260  -32.5110   38.8130 O.2    43  PHE43      -0.2864
     49  CB        69.2750  -34.8120   41.1520 C.3    43  PHE43       0.0560
     50  CG        69.9710  -36.1230   41.3510 C.ar   43  PHE43      -0.0200
     51  CD1       70.9030  -36.2790   42.3730 C.ar   43  PHE43      -0.0042
     52  CD2       69.7240  -37.1980   40.4910 C.ar   43  PHE43      -0.0042
     53  CE1       71.5740  -37.4900   42.5490 C.ar   43  PHE43      -0.0003
     54  CE2       70.3890  -38.4140   40.6590 C.ar   43  PHE43      -0.0003
     55  CZ        71.3130  -38.5600   41.6870 C.ar   43  PHE43      -0.0000
     56  N         66.2470  -37.4470   37.1500 N.3    61  LEU61      -0.1245
     57  CA        66.4380  -38.6630   37.9510 C.3    61  LEU61       0.1561
     58  C         67.8280  -39.2700   37.7700 C.2    61  LEU61       0.2260
     59  O         68.1970  -40.2270   38.4610 O.2    61  LEU61      -0.2867
     60  CB        65.3510  -39.7050   37.6530 C.3    61  LEU61       0.0270
     61  CG        63.8980  -39.3890   38.0350 C.3    61  LEU61       0.0019
     62  CD1       62.9800  -40.5080   37.5670 C.3    61  LEU61       0.0001
     63  CD2       63.7360  -39.1560   39.5370 C.3    61  LEU61       0.0001
     64  N         72.0670  -38.4980   37.6650 N.3    63  PRO63      -0.2102
     65  CA        73.0730  -37.5490   38.1480 C.3    63  PRO63       0.1504
     66  C         73.9070  -36.8900   37.0430 C.2    63  PRO63       0.2576
     67  O         74.4180  -37.5700   36.1520 O.2    63  PRO63      -0.2718
     68  CB        73.9610  -38.4080   39.0550 C.3    63  PRO63       0.0282
     69  CG        73.8040  -39.7940   38.5510 C.3    63  PRO63       0.0208
     70  CD        72.4150  -39.8910   38.0050 C.3    63  PRO63       0.0893
     71  N         74.0180  -35.5660   37.1070 N.am   64  SER64      -0.1938
     72  CA        74.9310  -34.8090   36.2530 C.3    64  SER64       0.2055
     73  C         76.1800  -34.4400   37.0440 C.2    64  SER64       0.2643
     74  O         76.1710  -34.4630   38.2780 O.2    64  SER64      -0.2714
     75  CB        74.2590  -33.5350   35.7380 C.3    64  SER64       0.2130
     76  OG        73.0580  -33.8370   35.0530 O.3    64  SER64      -0.2179
     77  N         77.2580  -34.1150   36.3390 N.am   65  ALA65      -0.1963
     78  CA        78.4610  -33.6070   36.9910 C.3    65  ALA65       0.1728
     79  C         78.2050  -32.1810   37.4630 C.2    65  ALA65       0.2616
     80  O         77.4300  -31.4480   36.8440 O.2    65  ALA65      -0.2715
     81  CB        79.6440  -33.6550   36.0440 C.3    65  ALA65       0.0334
     82  N         78.8520  -31.7940   38.5600 N.am   66  VAL66      -0.1977
     83  CA        78.6660  -30.4540   39.1380 C.3    66  VAL66       0.1596
     84  C         78.8460  -29.3670   38.0690 C.2    66  VAL66       0.2287
     85  O         78.0480  -28.4330   37.9790 O.2    66  VAL66      -0.2864
     86  CB        79.5990  -30.2090   40.3610 C.3    66  VAL66       0.0276
     87  CG1       79.4960  -28.7590   40.8510 C.3    66  VAL66       0.0022
     88  CG2       79.2630  -31.1800   41.4920 C.3    66  VAL66       0.0022
     89  N         66.6200  -45.3950   51.0140 N.3   483  PHE483     -0.1241
     90  CA        66.4470  -46.2430   49.8310 C.3   483  PHE483      0.1605
     91  C         65.9730  -47.6400   50.2390 C.2   483  PHE483      0.2264
     92  O         65.1240  -48.2190   49.5700 O.2   483  PHE483     -0.2867
     93  CB        67.7250  -46.3180   48.9720 C.3   483  PHE483      0.0534
     94  CG        68.2210  -44.9730   48.4720 C.ar  483  PHE483     -0.0203
     95  CD1       67.3350  -43.9330   48.1970 C.ar  483  PHE483     -0.0042
     96  CD2       69.5770  -44.7600   48.2640 C.ar  483  PHE483     -0.0042
     97  CE1       67.7950  -42.7000   47.7400 C.ar  483  PHE483     -0.0003
     98  CE2       70.0450  -43.5330   47.8050 C.ar  483  PHE483     -0.0003
     99  CZ        69.1520  -42.5050   47.5410 C.ar  483  PHE483     -0.0000
    100  N         62.3320  -47.4070   51.3700 N.3   486  PHE486     -0.1227
    101  CA        61.4820  -47.3240   50.1890 C.3   486  PHE486      0.1736
    102  C         61.2520  -48.7030   49.5650 C.2   486  PHE486      0.2595
    103  O         60.1510  -48.9960   49.1130 O.2   486  PHE486     -0.2718
    104  CB        62.0780  -46.3690   49.1580 C.3   486  PHE486      0.0547
    105  CG        61.1940  -46.1260   47.9680 C.ar  486  PHE486     -0.0202
    106  CD1       59.9090  -45.6120   48.1240 C.ar  486  PHE486     -0.0042
    107  CD2       61.6560  -46.3900   46.6820 C.ar  486  PHE486     -0.0042
    108  CE1       59.0930  -45.3750   47.0210 C.ar  486  PHE486     -0.0003
    109  CE2       60.8490  -46.1550   45.5680 C.ar  486  PHE486     -0.0003
    110  CZ        59.5640  -45.6470   45.7390 C.ar  486  PHE486     -0.0000
    111  N         62.3020  -49.5230   49.5370 N.am  487  ALA487     -0.1980
    112  CA        62.2170  -50.8930   49.0450 C.3   487  ALA487      0.1597
    113  C         61.2830  -51.7150   49.9340 C.2   487  ALA487      0.2287
    114  O         60.5510  -52.5750   49.4470 O.2   487  ALA487     -0.2864
    115  CB        63.6040  -51.5270   48.9880 C.3   487  ALA487      0.0319
    116  N         57.6040  -50.6460   49.0170 N.3   490  LEU490     -0.1245
    117  CA        57.1750  -51.2700   47.7610 C.3   490  LEU490      0.1561
    118  C         56.8130  -52.7380   48.0190 C.2   490  LEU490      0.2260
    119  O         55.7740  -53.2200   47.5560 O.2   490  LEU490     -0.2867
    120  CB        58.2610  -51.1610   46.6820 C.3   490  LEU490      0.0270
    121  CG        58.6640  -49.7690   46.1790 C.3   490  LEU490      0.0019
    122  CD1       59.8300  -49.8870   45.2140 C.3   490  LEU490      0.0001
    123  CD2       57.4940  -49.0240   45.5330 C.3   490  LEU490      0.0001
@<TRIPOS>BOND
     1    76    75    1
     2    75    72    1
     3    81    78    1
     4    67    66    2
     5    72    73    1
     6    72    71    1
     7    77    78    1
     8    77    73   am
     9    80    79    2
    10    78    79    1
    11    66    71   am
    12    66    65    1
    13    73    74    2
    14    56    57    1
    15    79    82   am
    16    62    61    1
    17    60    57    1
    18    60    61    1
    19    64    70    1
    20    64    65    1
    21    58    57    1
    22    58    59    2
    23    85    84    2
    24    70    69    1
    25    61    63    1
    26    84    83    1
    27    65    68    1
    28    69    68    1
    29    82    83    1
    30    48    47    2
    31    39    38    2
    32    83    86    1
    33    47    46    1
    34    38    45   am
    35    38    37    1
    36    46    45    1
    37    46    49    1
    38    86    87    1
    39    86    88    1
    40    52    54   ar
    41    52    50   ar
    42    54    55   ar
    43    37    40    1
    44    37    36    1
    45    40    41    1
    46    49    50    1
    47    50    51   ar
    48    41    42    1
    49    55    53   ar
    50    15    14    1
    51    51    53   ar
    52    42    44   am
    53    42    43    2
    54    14    13    1
    55    13    12    1
    56    12     9    1
    57   122   121    1
    58   123   121    1
    59   109   110   ar
    60   109   107   ar
    61   110   108   ar
    62    23    22    1
    63     6     5    1
    64    11    10    2
    65    10     9    1
    66     9     8    1
    67   121   120    1
    68    32    31    2
    69   107   105   ar
    70   120   117    1
    71     5     2    1
    72     5     7    1
    73     3     4    2
    74     3     2    1
    75    28    25    1
    76   108   106   ar
    77    22    21    1
    78    31    30    1
    79    27    26    2
    80    99    97   ar
    81    99    98   ar
    82   119   118    2
    83    97    95   ar
    84   117   118    1
    85   117   116    1
    86     2     1    1
    87    98    96   ar
    88   105   106   ar
    89   105   104    1
    90    26    25    1
    91    26    29   am
    92    25    24    1
    93    21    20    1
    94    95    94   ar
    95    96    94   ar
    96    20    17    1
    97    24    18   am
    98    94    93    1
    99    30    29    1
   100    30    33    1
   101    29    35    1
   102    93    90    1
   103   115   112    1
   104   112   111    1
   105   112   113    1
   106   103   102    2
   107   104   101    1
   108    16    17    1
   109    18    17    1
   110    18    19    2
   111    35    34    1
   112    34    33    1
   113   114   113    2
   114   111   102   am
   115   102   101    1
   116    92    91    2
   117    90    91    1
   118    90    89    1
   119   101   100    1
