@<TRIPOS>MOLECULE
tmp/3omnC00.pdb
 108 104 0 0 0
SMALL
GASTEIGER

@<TRIPOS>ATOM
      1  N         31.2630  -48.2960   45.9650 N.3     1  TRP1       -0.1241
      2  CA        32.4460  -47.9320   46.8000 C.3     1  TRP1        0.1605
      3  C         32.4830  -46.4310   47.1130 C.2     1  TRP1        0.2264
      4  O         32.3700  -46.0360   48.2780 O.2     1  TRP1       -0.2867
      5  CB        33.7460  -48.3900   46.1240 C.3     1  TRP1        0.0550
      6  CG        33.9530  -49.8600   46.0430 C.ar    1  TRP1        0.0003
      7  CD1       33.0720  -50.8530   46.3590 C.ar    1  TRP1        0.0946
      8  CD2       35.1350  -50.5310   45.6750 C.ar    1  TRP1        0.0152
      9  NE1       33.6440  -52.0890   46.1500 N.ar    1  TRP1       -0.2442
     10  CE2       34.9220  -51.9080   45.7530 C.ar    1  TRP1        0.0810
     11  CE3       36.4020  -50.0380   45.3490 C.ar    1  TRP1        0.0012
     12  CZ2       35.8970  -52.8200   45.4410 C.ar    1  TRP1        0.0191
     13  CZ3       37.3630  -50.9710   45.0370 C.ar    1  TRP1        0.0001
     14  CH2       37.1240  -52.3180   45.1190 C.ar    1  TRP1        0.0015
     15  N         32.8530  -48.4240   54.5070 N.3     9  ASP9       -0.1239
     16  CA        33.2570  -48.1090   53.1390 C.3     9  ASP9        0.1674
     17  C         34.0640  -46.8110   53.0670 C.2     9  ASP9        0.2266
     18  O         35.0520  -46.7330   52.3320 O.2     9  ASP9       -0.2867
     19  CB        32.0360  -48.0130   52.2270 C.3     9  ASP9        0.1410
     20  CG        31.2380  -49.3040   52.1800 C.2     9  ASP9        0.3668
     21  OD1       31.7380  -50.3060   51.6170 O.co2   9  ASP9       -0.2456
     22  OD2       30.1060  -49.3070   52.7100 O.co2   9  ASP9       -0.2456
     23  N         37.5320  -47.4170   54.5200 N.3    12  VAL12      -0.1245
     24  CA        38.3660  -48.1080   53.5280 C.3    12  VAL12       0.1561
     25  C         38.8270  -47.1680   52.4060 C.2    12  VAL12       0.2260
     26  O         39.9180  -47.3440   51.8450 O.2    12  VAL12      -0.2867
     27  CB        37.6410  -49.3570   52.9350 C.3    12  VAL12       0.0252
     28  CG1       38.3750  -49.9020   51.7130 C.3    12  VAL12       0.0019
     29  CG2       37.5060  -50.4500   53.9870 C.3    12  VAL12       0.0019
     30  N         42.8930  -46.4850   51.5570 N.3    16  PHE16      -0.1241
     31  CA        43.5010  -46.6490   50.2330 C.3    16  PHE16       0.1605
     32  C         44.0610  -45.3390   49.6670 C.2    16  PHE16       0.2264
     33  O         45.1300  -45.3420   49.0530 O.2    16  PHE16      -0.2867
     34  CB        42.5050  -47.2530   49.2390 C.3    16  PHE16       0.0534
     35  CG        42.5070  -48.7550   49.2090 C.ar   16  PHE16      -0.0203
     36  CD1       43.6010  -49.4550   48.7010 C.ar   16  PHE16      -0.0042
     37  CD2       41.4020  -49.4700   49.6640 C.ar   16  PHE16      -0.0042
     38  CE1       43.6030  -50.8490   48.6610 C.ar   16  PHE16      -0.0003
     39  CE2       41.3860  -50.8680   49.6290 C.ar   16  PHE16      -0.0003
     40  CZ        42.4890  -51.5600   49.1250 C.ar   16  PHE16      -0.0000
     41  N         36.1600  -46.6220   60.3000 N.3   103  TYR103     -0.1241
     42  CA        35.8690  -48.0510   60.2450 C.3   103  TYR103      0.1605
     43  C         35.5630  -48.6410   61.6220 C.2   103  TYR103      0.2264
     44  O         34.5430  -49.3200   61.7860 O.2   103  TYR103     -0.2867
     45  CB        36.9950  -48.8430   59.5610 C.3   103  TYR103      0.0534
     46  CG        36.5470  -50.1900   59.0110 C.ar  103  TYR103     -0.0201
     47  CD1       36.1610  -51.2320   59.8650 C.ar  103  TYR103     -0.0009
     48  CD2       36.5130  -50.4260   57.6370 C.ar  103  TYR103     -0.0009
     49  CE1       35.7420  -52.4620   59.3680 C.ar  103  TYR103      0.0417
     50  CE2       36.1020  -51.6610   57.1240 C.ar  103  TYR103      0.0417
     51  CZ        35.7150  -52.6740   57.9970 C.ar  103  TYR103      0.1957
     52  OH        35.3080  -53.8960   57.4980 O.3   103  TYR103     -0.2866
     53  N         38.6980  -56.5080   57.7470 N.3   424  MET424     -0.1230
     54  CA        38.1810  -55.5920   56.7360 C.3   424  MET424      0.1702
     55  C         37.9670  -56.2790   55.3920 C.2   424  MET424      0.2593
     56  O         37.0290  -55.9460   54.6720 O.2   424  MET424     -0.2718
     57  CB        39.1300  -54.3960   56.5470 C.3   424  MET424      0.0401
     58  CG        39.2930  -53.5000   57.7660 C.3   424  MET424      0.0596
     59  SD        40.4220  -52.1070   57.4810 S.3   424  MET424     -0.1393
     60  CE        41.9560  -52.9670   57.1200 C.3   424  MET424      0.0692
     61  N         38.8370  -57.2290   55.0580 N.am  425  SER425     -0.1952
     62  CA        38.8520  -57.8200   53.7230 C.3   425  SER425      0.1924
     63  C         38.3660  -59.2690   53.6170 C.2   425  SER425      0.2314
     64  O         38.0020  -59.7210   52.5240 O.2   425  SER425     -0.2863
     65  CB        40.2570  -57.7310   53.1300 C.3   425  SER425      0.2116
     66  OG        41.1350  -58.6660   53.7350 O.3   425  SER425     -0.2180
     67  N         45.0370  -59.1650   49.2230 N.3   500  LEU500     -0.1245
     68  CA        43.6890  -58.8790   48.7430 C.3   500  LEU500      0.1561
     69  C         43.3390  -59.6600   47.4670 C.2   500  LEU500      0.2260
     70  O         42.1880  -59.6590   47.0280 O.2   500  LEU500     -0.2867
     71  CB        43.5040  -57.3690   48.5400 C.3   500  LEU500      0.0270
     72  CG        43.6760  -56.4660   49.7730 C.3   500  LEU500      0.0019
     73  CD1       43.7980  -55.0030   49.3650 C.3   500  LEU500      0.0001
     74  CD2       42.5410  -56.6450   50.7640 C.3   500  LEU500      0.0001
     75  N         41.7880  -67.0970   52.8170 N.3   505  ARG505     -0.1245
     76  CA        40.5240  -66.5060   53.2510 C.3   505  ARG505      0.1563
     77  C         40.3400  -66.6580   54.7570 C.2   505  ARG505      0.2260
     78  O         40.8830  -67.5830   55.3680 O.2   505  ARG505     -0.2867
     79  CB        39.3450  -67.1270   52.4970 C.3   505  ARG505      0.0307
     80  CG        39.5820  -67.2070   51.0160 C.3   505  ARG505      0.0489
     81  CD        38.8780  -66.1370   50.2850 C.3   505  ARG505      0.2205
     82  NE        37.4470  -66.0830   50.6410 N.pl3 505  ARG505     -0.0865
     83  CZ        36.7820  -64.9860   50.4200 C.cat 505  ARG505      0.5346
     84  NH1       37.3950  -63.9630   49.8380 N.pl3 505  ARG505      0.1354
     85  NH2       35.4840  -64.9210   50.7210 N.pl3 505  ARG505      0.1354
     86  N         34.6180  -60.1280   56.2260 N.3   526  PRO526     -0.2103
     87  CA        34.2460  -58.7790   56.6800 C.3   526  PRO526      0.1489
     88  C         32.8630  -58.7140   57.3340 C.2   526  PRO526      0.2417
     89  O         32.0290  -59.5740   57.0590 O.2   526  PRO526     -0.2734
     90  CB        34.2470  -57.9670   55.3810 C.3   526  PRO526      0.0282
     91  CG        33.9140  -58.9540   54.3220 C.3   526  PRO526      0.0208
     92  CD        34.5220  -60.2570   54.7580 C.3   526  PRO526      0.0893
     93  N         32.6210  -57.7040   58.2000 N.am  527  PRO527     -0.2729
     94  CA        31.3040  -57.4820   58.8090 C.3   527  PRO527      0.1401
     95  C         30.2000  -57.2650   57.7620 C.2   527  PRO527      0.2269
     96  O         30.4950  -56.8070   56.6540 O.2   527  PRO527     -0.2865
     97  CB        31.5110  -56.2040   59.6330 C.3   527  PRO527      0.0296
     98  CG        32.9570  -56.1590   59.9040 C.3   527  PRO527      0.0237
     99  CD        33.6020  -56.7110   58.6740 C.3   527  PRO527      0.0939
    100  N         26.9940  -55.7660   55.5920 N.3   529  GLU529     -0.1245
    101  CA        26.5900  -54.4220   55.1550 C.3   529  GLU529      0.1567
    102  C         25.9130  -53.6250   56.2770 C.2   529  GLU529      0.2260
    103  O         26.3030  -52.4900   56.5600 O.2   529  GLU529     -0.2867
    104  CB        25.6800  -54.5000   53.9250 C.3   529  GLU529      0.0388
    105  CG        25.3050  -53.1600   53.3240 C.3   529  GLU529      0.1160
    106  CD        26.4930  -52.4180   52.7410 C.2   529  GLU529      0.3649
    107  OE1       27.4480  -53.0910   52.2840 O.co2 529  GLU529     -0.2457
    108  OE2       26.4700  -51.1660   52.7480 O.co2 529  GLU529     -0.2457
@<TRIPOS>BOND
     1    13    14   ar
     2    13    11   ar
     3    14    12   ar
     4    11     8   ar
     5    12    10   ar
     6     8    10   ar
     7     8     6   ar
     8    10     9   ar
     9     1     2    1
    10     6     5    1
    11     6     7   ar
    12     5     2    1
    13     9     7   ar
    14     2     3    1
    15    70    69    2
    16     3     4    2
    17    69    68    1
    18    71    68    1
    19    71    72    1
    20    38    36   ar
    21    38    40   ar
    22    36    35   ar
    23    68    67    1
    24    33    32    2
    25    40    39   ar
    26    35    34    1
    27    35    37   ar
    28    34    31    1
    29    73    72    1
    30    39    37   ar
    31    32    31    1
    32    72    74    1
    33    84    83    1
    34    31    30    1
    35    81    82    1
    36    81    80    1
    37    83    82    2
    38    83    85    1
    39    80    79    1
    40    21    20   ar
    41    28    27    1
    42    26    25    2
    43    20    19    1
    44    20    22   ar
    45    19    16    1
    46   107   106   ar
    47    18    17    2
    48    25    24    1
    49    79    76    1
    50    64    63    2
    51   106   108   ar
    52   106   105    1
    53    75    76    1
    54    27    24    1
    55    27    29    1
    56    17    16    1
    57    65    62    1
    58    65    66    1
    59    16    15    1
    60    76    77    1
    61   105   104    1
    62    24    23    1
    63    63    62    1
    64    62    61    1
    65   104   101    1
    66    91    92    1
    67    91    90    1
    68    56    55    2
    69    77    78    2
    70    92    86    1
    71    61    55   am
    72   101   100    1
    73   101   102    1
    74    90    87    1
    75    55    54    1
    76    86    87    1
    77   102   103    2
    78    57    54    1
    79    57    58    1
    80    96    95    2
    81    87    88    1
    82    54    53    1
    83    89    88    2
    84    60    59    1
    85    50    48   ar
    86    50    51   ar
    87    88    93   am
    88    59    58    1
    89    52    51    1
    90    48    46   ar
    91    95    94    1
    92    51    49   ar
    93    93    99    1
    94    93    94    1
    95    99    98    1
    96    94    97    1
    97    46    45    1
    98    46    47   ar
    99    49    47   ar
   100    45    42    1
   101    97    98    1
   102    42    41    1
   103    42    43    1
   104    43    44    2
