@<TRIPOS>MOLECULE
tmp/3omoB01.pdb
 156 145 0 0 0
SMALL
GASTEIGER

@<TRIPOS>ATOM
      1  N         -9.2580   11.9590  -17.8660 N.3    32  MET32      -0.1245
      2  CA        -8.9870   11.5120  -16.4990 C.3    32  MET32       0.1570
      3  C         -8.9710    9.9740  -16.4210 C.2    32  MET32       0.2261
      4  O         -8.2700    9.3770  -15.6280 O.2    32  MET32      -0.2867
      5  CB        -9.9560   12.1410  -15.4610 C.3    32  MET32       0.0387
      6  CG        -9.7050   13.6580  -15.2040 C.3    32  MET32       0.0595
      7  SD        -7.9150   14.1360  -15.0000 S.3    32  MET32      -0.1393
      8  CE        -7.5460   13.1320  -13.5130 C.3    32  MET32       0.0692
      9  N         -5.4500    8.9570  -17.5640 N.3    35  LEU35      -0.1231
     10  CA        -4.4060    9.2860  -16.6240 C.3    35  LEU35       0.1693
     11  C         -4.4740    8.4780  -15.3280 C.2    35  LEU35       0.2592
     12  O         -3.4290    8.0550  -14.8130 O.2    35  LEU35      -0.2718
     13  CB        -4.4350   10.7920  -16.3240 C.3    35  LEU35       0.0284
     14  CG        -4.0740   11.7320  -17.4560 C.3    35  LEU35       0.0019
     15  CD1       -4.2230   13.1250  -16.8800 C.3    35  LEU35       0.0001
     16  CD2       -2.6690   11.5080  -18.0070 C.3    35  LEU35       0.0001
     17  N         -5.6840    8.2560  -14.8000 N.am   36  THR36      -0.1953
     18  CA        -5.8640    7.4050  -13.6060 C.3    36  THR36       0.1897
     19  C         -5.6480    5.8900  -13.8680 C.2    36  THR36       0.2313
     20  O         -5.0650    5.1870  -13.0720 O.2    36  THR36      -0.2863
     21  CB        -7.2610    7.6020  -12.9500 C.3    36  THR36       0.1794
     22  OG1       -8.2640    7.2890  -13.9090 O.3    36  THR36      -0.2208
     23  CG2       -7.4740    9.0520  -12.4870 C.3    36  THR36       0.0378
     24  N         -3.4660    4.7670  -16.0440 N.3    38  LEU38      -0.1231
     25  CA        -2.0080    4.7350  -16.0830 C.3    38  LEU38       0.1693
     26  C         -1.4410    4.7830  -14.6340 C.2    38  LEU38       0.2591
     27  O         -0.5920    3.9660  -14.2750 O.2    38  LEU38      -0.2718
     28  CB        -1.4750    5.8910  -16.9750 C.3    38  LEU38       0.0284
     29  CG         0.0480    6.0310  -17.0490 C.3    38  LEU38       0.0019
     30  CD1        0.7820    4.7350  -17.4600 C.3    38  LEU38       0.0001
     31  CD2        0.4520    7.1190  -18.0800 C.3    38  LEU38       0.0001
     32  N         -1.9470    5.7130  -13.8100 N.am   39  ALA39      -0.1980
     33  CA        -1.3740    5.9560  -12.4560 C.3    39  ALA39       0.1597
     34  C         -1.5630    4.6900  -11.6480 C.2    39  ALA39       0.2287
     35  O         -0.6640    4.2620  -10.9230 O.2    39  ALA39      -0.2864
     36  CB        -2.0340    7.0960  -11.7240 C.3    39  ALA39       0.0319
     37  N          0.9890    2.1370  -12.7620 N.3    42  GLU42      -0.1245
     38  CA         2.3380    2.5020  -12.3920 C.3    42  GLU42       0.1567
     39  C          2.5280    2.3420  -10.8800 C.2    42  GLU42       0.2260
     40  O          3.6190    2.0520  -10.4500 O.2    42  GLU42      -0.2867
     41  CB         2.6400    3.9280  -12.7580 C.3    42  GLU42       0.0388
     42  CG         2.8380    4.1780  -14.2210 C.3    42  GLU42       0.1160
     43  CD         3.2000    5.6400  -14.4860 C.2    42  GLU42       0.3649
     44  OE1        2.3270    6.5340  -14.4230 O.co2  42  GLU42      -0.2457
     45  OE2        4.3650    5.9240  -14.7630 O.co2  42  GLU42      -0.2457
     46  N          2.4510   10.1220   -5.4580 N.3    73  MET73      -0.1245
     47  CA         2.2130   11.0600   -6.5110 C.3    73  MET73       0.1570
     48  C          3.5160   11.7790   -6.8530 C.2    73  MET73       0.2261
     49  O          3.8180   11.9650   -8.0400 O.2    73  MET73      -0.2867
     50  CB         1.1130   12.0810   -6.1290 C.3    73  MET73       0.0387
     51  CG         0.8560   13.0940   -7.2460 C.3    73  MET73       0.0595
     52  SD         0.1650   12.3320   -8.7880 S.3    73  MET73      -0.1393
     53  CE        -1.5190   12.0100   -8.2180 C.3    73  MET73       0.0692
     54  N          5.2770    9.2910   -8.9630 N.3    76  LEU76      -0.1231
     55  CA         4.6700    9.2770  -10.3240 C.3    76  LEU76       0.1693
     56  C          5.2100   10.4580  -11.0700 C.2    76  LEU76       0.2591
     57  O          5.6450   10.3130  -12.2210 O.2    76  LEU76      -0.2718
     58  CB         3.1470    9.3720  -10.3310 C.3    76  LEU76       0.0284
     59  CG         2.5500    8.0850   -9.8070 C.3    76  LEU76       0.0019
     60  CD1        1.0290    8.1000  -10.0130 C.3    76  LEU76       0.0001
     61  CD2        3.2120    6.8730  -10.5350 C.3    76  LEU76       0.0001
     62  N          5.2280   11.6120  -10.4230 N.am   77  MET77      -0.1979
     63  CA         5.5970   12.8360  -11.1500 C.3    77  MET77       0.1605
     64  C          7.0320   12.9420  -11.5480 C.2    77  MET77       0.2287
     65  O          7.3270   13.4580  -12.6160 O.2    77  MET77      -0.2864
     66  CB         5.1810   14.0950  -10.3970 C.3    77  MET77       0.0413
     67  CG         3.6350   14.2080  -10.3310 C.3    77  MET77       0.0598
     68  SD         3.0480   15.6390   -9.3480 S.3    77  MET77      -0.1393
     69  CE         2.1520   16.4130  -10.5860 C.3    77  MET77       0.0692
     70  N          7.4980   10.9110  -14.4970 N.3    80  LEU80      -0.1245
     71  CA         6.9650   11.5780  -15.7050 C.3    80  LEU80       0.1561
     72  C          7.9510   12.6110  -16.1880 C.2    80  LEU80       0.2260
     73  O          8.2290   12.7090  -17.4140 O.2    80  LEU80      -0.2867
     74  CB         5.6110   12.2520  -15.4360 C.3    80  LEU80       0.0270
     75  CG         4.9450   13.0940  -16.4930 C.3    80  LEU80       0.0019
     76  CD1        4.5940   12.1780  -17.7330 C.3    80  LEU80       0.0001
     77  CD2        3.6490   13.6380  -15.8370 C.3    80  LEU80       0.0001
     78  N         10.8960   11.0930  -18.0050 N.3    83  ARG83      -0.1245
     79  CA        10.5330   10.7300  -19.3630 C.3    83  ARG83       0.1563
     80  C         10.3540   11.9100  -20.2810 C.2    83  ARG83       0.2260
     81  O         10.5920   11.7530  -21.4550 O.2    83  ARG83      -0.2867
     82  CB         9.2040    9.9620  -19.3970 C.3    83  ARG83       0.0307
     83  CG         9.2770    8.6440  -18.7160 C.3    83  ARG83       0.0489
     84  CD         8.0820    7.7870  -19.0150 C.3    83  ARG83       0.2205
     85  NE         6.7830    8.2860  -18.4790 N.pl3  83  ARG83      -0.0865
     86  CZ         6.3440    8.0970  -17.2340 C.cat  83  ARG83       0.5346
     87  NH1        7.1370    7.5340  -16.2630 N.pl3  83  ARG83       0.1354
     88  NH2        5.1280    8.5350  -16.9200 N.pl3  83  ARG83       0.1354
     89  N          3.5710   10.7630  -20.9310 N.3    93  PHE93      -0.1241
     90  CA         2.9880    9.8470  -19.9490 C.3    93  PHE93       0.1605
     91  C          3.3160    8.4300  -20.2770 C.2    93  PHE93       0.2264
     92  O          3.4730    7.6340  -19.3840 O.2    93  PHE93      -0.2867
     93  CB         1.4860   10.0020  -19.8430 C.3    93  PHE93       0.0534
     94  CG         1.1070   11.2000  -19.0740 C.ar   93  PHE93      -0.0203
     95  CD1        0.8690   12.4270  -19.7320 C.ar   93  PHE93      -0.0042
     96  CD2        1.0390   11.1320  -17.6910 C.ar   93  PHE93      -0.0042
     97  CE1        0.5630   13.6040  -18.9860 C.ar   93  PHE93      -0.0003
     98  CE2        0.7100   12.2670  -16.9440 C.ar   93  PHE93      -0.0003
     99  CZ         0.4760   13.5320  -17.6060 C.ar   93  PHE93      -0.0000
    100  N         -6.3780   21.0090  -14.5130 N.3   110  ILE110     -0.1245
    101  CA        -5.2210   20.1790  -14.7990 C.3   110  ILE110      0.1561
    102  C         -4.1220   20.9410  -15.4920 C.2   110  ILE110      0.2260
    103  O         -2.9570   20.5950  -15.3650 O.2   110  ILE110     -0.2867
    104  CB        -5.6170   18.8330  -15.4640 C.3   110  ILE110      0.0252
    105  CG1       -5.2330   17.6820  -14.5380 C.3   110  ILE110      0.0019
    106  CG2       -5.0390   18.6960  -16.8690 C.3   110  ILE110      0.0019
    107  CD1       -4.7180   16.3810  -15.2270 C.3   110  ILE110      0.0001
    108  N         -1.4040   22.1560  -13.3050 N.3   113  ILE113     -0.1231
    109  CA        -0.5700   21.0390  -12.8940 C.3   113  ILE113      0.1692
    110  C          0.4420   20.6200  -13.9770 C.2   113  ILE113      0.2592
    111  O          1.5780   20.3290  -13.6860 O.2   113  ILE113     -0.2718
    112  CB        -1.4200   19.8550  -12.5120 C.3   113  ILE113      0.0266
    113  CG1       -2.1390   20.1840  -11.1770 C.3   113  ILE113      0.0019
    114  CG2       -0.4700   18.6180  -12.3130 C.3   113  ILE113      0.0020
    115  CD1       -3.2770   19.1680  -10.8240 C.3   113  ILE113      0.0001
    116  N          0.0220   20.6880  -15.2300 N.am  114  PHE114     -0.1976
    117  CA         0.8770   20.4050  -16.3640 C.3   114  PHE114      0.1639
    118  C          1.9070   21.4710  -16.3850 C.2   114  PHE114      0.2290
    119  O          3.0990   21.1670  -16.6220 O.2   114  PHE114     -0.2864
    120  CB         0.0620   20.4480  -17.6530 C.3   114  PHE114      0.0560
    121  CG        -0.6820   19.1770  -17.9550 C.ar  114  PHE114     -0.0200
    122  CD1       -0.8630   18.2120  -16.9850 C.ar  114  PHE114     -0.0042
    123  CD2       -1.1140   18.9180  -19.2590 C.ar  114  PHE114     -0.0042
    124  CE1       -1.5230   17.0020  -17.2850 C.ar  114  PHE114     -0.0003
    125  CE2       -1.7810   17.6870  -19.6000 C.ar  114  PHE114     -0.0003
    126  CZ        -1.9850   16.7530  -18.6290 C.ar  114  PHE114     -0.0000
    127  N          4.4340   20.8370  -13.8370 N.3   117  LEU117     -0.1245
    128  CA         5.2900   19.6760  -14.1910 C.3   117  LEU117      0.1561
    129  C          6.2180   20.0510  -15.3000 C.2   117  LEU117      0.2260
    130  O          7.3700   19.6660  -15.3050 O.2   117  LEU117     -0.2867
    131  CB         4.4390   18.4710  -14.6370 C.3   117  LEU117      0.0270
    132  CG         3.6200   17.7880  -13.5520 C.3   117  LEU117      0.0019
    133  CD1        2.5870   16.9580  -14.2280 C.3   117  LEU117      0.0001
    134  CD2        4.5530   16.9160  -12.5800 C.3   117  LEU117      0.0001
    135  N         -1.8030   17.7000   -7.5760 N.3   201  GLY201     -0.1225
    136  CA        -2.3180   16.4970   -8.2430 C.3   201  GLY201      0.1811
    137  C         -3.2490   15.6890   -7.3310 C.2   201  GLY201      0.2280
    138  O         -4.2860   15.1620   -7.7710 O.2   201  GLY201     -0.2866
    139  N         -6.4840   17.4440   -6.9450 N.3   204  HIS204     -0.1226
    140  CA        -7.2210   17.2790   -8.2060 C.3   204  HIS204      0.1752
    141  C         -7.9720   15.9560   -8.2200 C.2   204  HIS204      0.2595
    142  O         -9.1680   15.9090   -8.4260 O.2   204  HIS204     -0.2718
    143  CB        -6.3340   17.3540   -9.4360 C.3   204  HIS204      0.0759
    144  CG        -7.1340   17.5100  -10.6720 C.ar  204  HIS204      0.0818
    145  ND1       -7.5650   16.4340  -11.4220 N.ar  204  HIS204     -0.2268
    146  CD2       -7.6680   18.6100  -11.2370 C.ar  204  HIS204      0.1154
    147  CE1       -8.3070   16.8760  -12.4150 C.ar  204  HIS204      0.1986
    148  NE2       -8.4080   18.1890  -12.3080 N.ar  204  HIS204     -0.2212
    149  N         -7.2540   14.8940   -7.9190 N.am  205  LEU205     -0.1980
    150  CA        -7.8190   13.5510   -7.9430 C.3   205  LEU205      0.1596
    151  C         -8.8530   13.2790   -6.8470 C.2   205  LEU205      0.2287
    152  O         -9.8220   12.5710   -7.0850 O.2   205  LEU205     -0.2864
    153  CB        -6.6990   12.5380   -7.8150 C.3   205  LEU205      0.0297
    154  CG        -6.2750   11.6240   -8.9440 C.3   205  LEU205      0.0022
    155  CD1       -6.4500   12.2440  -10.3490 C.3   205  LEU205      0.0001
    156  CD2       -4.8650   11.1860   -8.6630 C.3   205  LEU205      0.0001
@<TRIPOS>BOND
     1    81    80    2
     2    89    90    1
     3    80    79    1
     4    91    90    1
     5    91    92    2
     6    90    93    1
     7    93    94    1
     8    95    94   ar
     9    95    97   ar
    10   125   123   ar
    11   125   126   ar
    12    82    79    1
    13    82    83    1
    14    79    78    1
    15   123   121   ar
    16    94    96   ar
    17    84    83    1
    18    84    85    1
    19    97    99   ar
    20   126   124   ar
    21    85    86    2
    22    31    29    1
    23    16    14    1
    24   121   120    1
    25   121   122   ar
    26     1     2    1
    27    76    75    1
    28    96    98   ar
    29   120   117    1
    30    99    98   ar
    31     9    10    1
    32    30    29    1
    33    14    15    1
    34    14    13    1
    35    73    72    2
    36   124   122   ar
    37    86    88    1
    38    86    87    1
    39    29    28    1
    40    28    25    1
    41   106   104    1
    42    10    13    1
    43    10    11    1
    44   119   118    2
    45     2     3    1
    46     2     5    1
    47    75    77    1
    48    75    74    1
    49     3     4    2
    50   118   117    1
    51   117   116    1
    52    72    71    1
    53    25    24    1
    54    25    26    1
    55    71    74    1
    56    71    70    1
    57   102   103    2
    58   102   101    1
    59   104   101    1
    60   104   105    1
    61     5     6    1
    62    11    12    2
    63    11    17   am
    64   130   129    2
    65   129   128    1
    66   116   110   am
    67   107   105    1
    68     6     7    1
    69     7     8    1
    70    17    18    1
    71   101   100    1
    72    45    43   ar
    73   131   128    1
    74   131   132    1
    75    26    27    2
    76    26    32   am
    77    43    44   ar
    78    43    42    1
    79   133   132    1
    80    42    41    1
    81   128   127    1
    82   110   111    2
    83   110   109    1
    84    22    21    1
    85    19    18    1
    86    19    20    2
    87    32    33    1
    88    18    21    1
    89   132   134    1
    90   108   109    1
    91    21    23    1
    92   109   112    1
    93    37    38    1
    94    41    38    1
    95    65    64    2
    96   112   114    1
    97   112   113    1
    98    33    36    1
    99    33    34    1
   100   147   148   ar
   101   147   145   ar
   102    38    39    1
   103   148   146   ar
   104    57    56    2
   105    34    35    2
   106    64    63    1
   107   145   144   ar
   108   146   144   ar
   109   113   115    1
   110    63    62    1
   111    63    66    1
   112    56    62   am
   113    56    55    1
   114    39    40    2
   115   144   143    1
   116    69    68    1
   117    61    59    1
   118    66    67    1
   119   155   154    1
   120    67    68    1
   121    58    55    1
   122    58    59    1
   123    55    54    1
   124    60    59    1
   125   143   140    1
   126   154   156    1
   127   154   153    1
   128    52    53    1
   129    52    51    1
   130   142   141    2
   131   136   135    1
   132   136   137    1
   133   141   140    1
   134   141   149   am
   135   140   139    1
   136    49    48    2
   137   150   149    1
   138   150   153    1
   139   150   151    1
   140   138   137    2
   141    51    50    1
   142   152   151    2
   143    48    47    1
   144    47    50    1
   145    47    46    1
