@<TRIPOS>MOLECULE
tmp/3ompA01.pdb
 156 145 0 0 0
SMALL
GASTEIGER

@<TRIPOS>ATOM
      1  N         -9.2200   28.8610   16.3030 N.3    32  MET32      -0.1245
      2  CA        -9.0080   29.3370   14.9270 C.3    32  MET32       0.1570
      3  C         -9.0060   30.8730   14.8140 C.2    32  MET32       0.2261
      4  O         -8.2650   31.4200   14.0340 O.2    32  MET32      -0.2867
      5  CB       -10.0100   28.7120   13.9450 C.3    32  MET32       0.0387
      6  CG        -9.8360   27.1860   13.7340 C.3    32  MET32       0.0595
      7  SD        -8.1120   26.7620   13.3180 S.3    32  MET32      -0.1393
      8  CE        -7.8230   27.7540   11.7820 C.3    32  MET32       0.0692
      9  N         -5.4750   31.8830   15.9380 N.3    35  LEU35      -0.1231
     10  CA        -4.4130   31.5680   15.0200 C.3    35  LEU35       0.1693
     11  C         -4.4690   32.3620   13.7110 C.2    35  LEU35       0.2592
     12  O         -3.4140   32.7770   13.1590 O.2    35  LEU35      -0.2718
     13  CB        -4.4320   30.0810   14.7250 C.3    35  LEU35       0.0284
     14  CG        -4.1070   29.1540   15.9070 C.3    35  LEU35       0.0019
     15  CD1       -4.3010   27.7510   15.3950 C.3    35  LEU35       0.0001
     16  CD2       -2.6850   29.3410   16.4500 C.3    35  LEU35       0.0001
     17  N         -5.6770   32.5910   13.2040 N.am   36  THR36      -0.1953
     18  CA        -5.8210   33.4090   11.9850 C.3    36  THR36       0.1897
     19  C         -5.5940   34.9120   12.2400 C.2    36  THR36       0.2313
     20  O         -5.0550   35.5680   11.4090 O.2    36  THR36      -0.2863
     21  CB        -7.1970   33.2190   11.3210 C.3    36  THR36       0.1794
     22  OG1       -8.2340   33.4590   12.2540 O.3    36  THR36      -0.2208
     23  CG2       -7.3280   31.7580   10.8080 C.3    36  THR36       0.0378
     24  N         -3.5020   36.0260   14.4210 N.3    38  LEU38      -0.1231
     25  CA        -2.0450   36.0630   14.4640 C.3    38  LEU38       0.1693
     26  C         -1.4540   36.0000   13.0540 C.2    38  LEU38       0.2591
     27  O         -0.5870   36.8000   12.6890 O.2    38  LEU38      -0.2718
     28  CB        -1.5050   34.9280   15.3760 C.3    38  LEU38       0.0284
     29  CG         0.0100   34.8510   15.5000 C.3    38  LEU38       0.0019
     30  CD1        0.6820   36.1560   16.0560 C.3    38  LEU38       0.0001
     31  CD2        0.3620   33.6220   16.4010 C.3    38  LEU38       0.0001
     32  N         -1.9560   35.0610   12.2490 N.am   39  ALA39      -0.1980
     33  CA        -1.3850   34.8270   10.9190 C.3    39  ALA39       0.1597
     34  C         -1.5160   36.0870   10.0510 C.2    39  ALA39       0.2287
     35  O         -0.5700   36.4570    9.3300 O.2    39  ALA39      -0.2864
     36  CB        -2.0410   33.6150   10.2100 C.3    39  ALA39       0.0319
     37  N          1.0750   38.6480   11.2040 N.3    42  GLU42      -0.1245
     38  CA         2.3780   38.2450   10.7390 C.3    42  GLU42       0.1567
     39  C          2.5490   38.3550    9.2250 C.2    42  GLU42       0.2260
     40  O          3.6380   38.6840    8.7780 O.2    42  GLU42      -0.2867
     41  CB         2.6870   36.8410   11.1670 C.3    42  GLU42       0.0388
     42  CG         2.9280   36.7080   12.6330 C.3    42  GLU42       0.1160
     43  CD         3.5490   35.3550   12.9590 C.2    42  GLU42       0.3649
     44  OE1        4.7560   35.2920   13.1590 O.co2  42  GLU42      -0.2457
     45  OE2        2.8690   34.3290   12.9490 O.co2  42  GLU42      -0.2457
     46  N          2.4810   30.7460    3.7920 N.3    73  MET73      -0.1245
     47  CA         2.2280   29.7850    4.8620 C.3    73  MET73       0.1570
     48  C          3.5340   29.0460    5.2540 C.2    73  MET73       0.2261
     49  O          3.8030   28.8160    6.4500 O.2    73  MET73      -0.2867
     50  CB         1.1390   28.7530    4.4300 C.3    73  MET73       0.0387
     51  CG         0.7500   27.7050    5.5520 C.3    73  MET73       0.0595
     52  SD         0.0170   28.5050    7.0370 S.3    73  MET73      -0.1393
     53  CE        -1.6860   28.6750    6.4540 C.3    73  MET73       0.0692
     54  N          5.3210   31.5490    7.3890 N.3    76  LEU76      -0.1231
     55  CA         4.7210   31.5650    8.7290 C.3    76  LEU76       0.1693
     56  C          5.1910   30.3690    9.5060 C.2    76  LEU76       0.2591
     57  O          5.6000   30.4910   10.6550 O.2    76  LEU76      -0.2718
     58  CB         3.1940   31.5410    8.6740 C.3    76  LEU76       0.0284
     59  CG         2.5320   32.8140    8.1930 C.3    76  LEU76       0.0019
     60  CD1        1.0150   32.6640    8.3290 C.3    76  LEU76       0.0001
     61  CD2        3.0620   34.0490    9.0150 C.3    76  LEU76       0.0001
     62  N          5.1250   29.2010    8.8780 N.am   77  MET77      -0.1979
     63  CA         5.4640   27.9920    9.5780 C.3    77  MET77       0.1605
     64  C          6.9250   27.9260    9.9360 C.2    77  MET77       0.2287
     65  O          7.2600   27.4710   11.0210 O.2    77  MET77      -0.2864
     66  CB         5.0950   26.7500    8.7610 C.3    77  MET77       0.0413
     67  CG         3.5430   26.5460    8.7400 C.3    77  MET77       0.0598
     68  SD         3.0750   25.1310    7.7130 S.3    77  MET77      -0.1393
     69  CE         1.5850   24.7630    8.5620 C.3    77  MET77       0.0692
     70  N          7.4710   30.0340   12.8950 N.3    80  LEU80      -0.1245
     71  CA         6.9150   29.2630   14.0730 C.3    80  LEU80       0.1561
     72  C          7.8610   28.1620   14.5910 C.2    80  LEU80       0.2260
     73  O          8.1380   28.0710   15.8000 O.2    80  LEU80      -0.2867
     74  CB         5.5130   28.6480   13.7470 C.3    80  LEU80       0.0270
     75  CG         4.9060   27.7280   14.7820 C.3    80  LEU80       0.0019
     76  CD1        4.6210   28.6050   16.0160 C.3    80  LEU80       0.0001
     77  CD2        3.5860   27.1270   14.2100 C.3    80  LEU80       0.0001
     78  N         10.7970   29.6670   16.3400 N.3    83  ARG83      -0.1245
     79  CA        10.4380   30.0610   17.7010 C.3    83  ARG83       0.1563
     80  C         10.3590   28.9210   18.6530 C.2    83  ARG83       0.2260
     81  O         10.6970   29.0860   19.8140 O.2    83  ARG83      -0.2867
     82  CB         9.1210   30.8580   17.7720 C.3    83  ARG83       0.0307
     83  CG         9.2050   32.2130   17.0800 C.3    83  ARG83       0.0489
     84  CD         8.0040   33.0940   17.4620 C.3    83  ARG83       0.2205
     85  NE         6.7040   32.6310   16.9480 N.pl3  83  ARG83      -0.0865
     86  CZ         6.2340   32.8210   15.7140 C.cat  83  ARG83       0.5346
     87  NH1        6.9970   33.3520   14.7350 N.pl3  83  ARG83       0.1354
     88  NH2        5.0090   32.4240   15.4500 N.pl3  83  ARG83       0.1354
     89  N          3.5700   30.1110   19.3020 N.3    93  PHE93      -0.1241
     90  CA         2.9240   31.0250   18.3190 C.3    93  PHE93       0.1605
     91  C          3.2520   32.4690   18.6720 C.2    93  PHE93       0.2264
     92  O          3.4620   33.2740   17.7950 O.2    93  PHE93      -0.2867
     93  CB         1.4220   30.8350   18.2530 C.3    93  PHE93       0.0534
     94  CG         1.0360   29.6200   17.4900 C.ar   93  PHE93      -0.0203
     95  CD1        0.9670   28.3800   18.1290 C.ar   93  PHE93      -0.0042
     96  CD2        0.8640   29.7010   16.1210 C.ar   93  PHE93      -0.0042
     97  CE1        0.6790   27.1870   17.4010 C.ar   93  PHE93      -0.0003
     98  CE2        0.5430   28.5710   15.3790 C.ar   93  PHE93      -0.0003
     99  CZ         0.4390   27.2810   16.0130 C.ar   93  PHE93      -0.0000
    100  N         -6.4930   19.8780   12.9050 N.3   110  ILE110     -0.1245
    101  CA        -5.2740   20.6160   13.2480 C.3   110  ILE110      0.1561
    102  C         -4.1650   19.8620   14.0240 C.2   110  ILE110      0.2260
    103  O         -2.9980   20.2310   13.9000 O.2   110  ILE110     -0.2867
    104  CB        -5.6210   21.9690   13.8830 C.3   110  ILE110      0.0252
    105  CG1       -5.2570   23.0960   12.9160 C.3   110  ILE110      0.0019
    106  CG2       -4.8720   22.1410   15.1910 C.3   110  ILE110      0.0019
    107  CD1       -4.7240   24.3820   13.6660 C.3   110  ILE110      0.0001
    108  N         -1.4290   18.6350   11.5930 N.3   113  ILE113     -0.1231
    109  CA        -0.5580   19.7620   11.2410 C.3   113  ILE113      0.1692
    110  C          0.4290   20.1350   12.3760 C.2   113  ILE113      0.2592
    111  O          1.6130   20.3370   12.1280 O.2   113  ILE113     -0.2718
    112  CB        -1.4170   20.9600   10.9080 C.3   113  ILE113      0.0266
    113  CG1       -2.3420   20.5970    9.7300 C.3   113  ILE113      0.0019
    114  CG2       -0.5040   22.2330   10.5950 C.3   113  ILE113      0.0020
    115  CD1       -3.3060   21.6710    9.4140 C.3   113  ILE113      0.0001
    116  N         -0.0690   20.2190   13.6220 N.am  114  PHE114     -0.1976
    117  CA         0.8220   20.4220   14.7570 C.3   114  PHE114      0.1639
    118  C          1.8860   19.3350   14.7880 C.2   114  PHE114      0.2290
    119  O          3.0600   19.6310   15.0460 O.2   114  PHE114     -0.2864
    120  CB         0.0860   20.4330   16.0980 C.3   114  PHE114      0.0560
    121  CG        -0.6830   21.7030   16.3950 C.ar  114  PHE114     -0.0200
    122  CD1       -0.9140   22.6720   15.4100 C.ar  114  PHE114     -0.0042
    123  CD2       -1.1920   21.9170   17.6860 C.ar  114  PHE114     -0.0042
    124  CE1       -1.6530   23.8630   15.7160 C.ar  114  PHE114     -0.0003
    125  CE2       -1.9160   23.0700   18.0080 C.ar  114  PHE114     -0.0003
    126  CZ        -2.1550   24.0440   17.0490 C.ar  114  PHE114     -0.0000
    127  N          4.4820   19.9540   12.0900 N.3   117  LEU117     -0.1245
    128  CA         5.2750   21.1340   12.4930 C.3   117  LEU117      0.1561
    129  C          6.1930   20.7360   13.6430 C.2   117  LEU117      0.2260
    130  O          7.3800   21.0640   13.6590 O.2   117  LEU117     -0.2867
    131  CB         4.3580   22.2730   12.9650 C.3   117  LEU117      0.0270
    132  CG         3.5860   23.0040   11.9040 C.3   117  LEU117      0.0019
    133  CD1        2.4720   23.7620   12.6100 C.3   117  LEU117      0.0001
    134  CD2        4.4560   23.9230   11.0620 C.3   117  LEU117      0.0001
    135  N         -1.7980   23.0290    5.9990 N.3   204  GLY204     -0.1225
    136  CA        -2.2620   24.2710    6.6280 C.3   204  GLY204      0.1811
    137  C         -3.1950   25.0650    5.7100 C.2   204  GLY204      0.2280
    138  O         -4.3020   25.4740    6.1430 O.2   204  GLY204     -0.2866
    139  N         -6.4260   23.3560    5.2730 N.3   207  HIS207     -0.1226
    140  CA        -7.1800   23.4470    6.5180 C.3   207  HIS207      0.1752
    141  C         -7.9470   24.7470    6.6420 C.2   207  HIS207      0.2595
    142  O         -9.1810   24.7730    6.8870 O.2   207  HIS207     -0.2718
    143  CB        -6.3150   23.2930    7.7540 C.3   207  HIS207      0.0759
    144  CG        -7.1320   23.1320    8.9770 C.ar  207  HIS207      0.0818
    145  ND1       -7.5090   24.2010    9.7630 N.ar  207  HIS207     -0.2268
    146  CD2       -7.7060   22.0440    9.5150 C.ar  207  HIS207      0.1154
    147  CE1       -8.2540   23.7650   10.7530 C.ar  207  HIS207      0.1986
    148  NE2       -8.4040   22.4610   10.6090 N.ar  207  HIS207     -0.2212
    149  N         -7.2220   25.8340    6.4520 N.am  208  LEU208     -0.1980
    150  CA        -7.8000   27.1580    6.4420 C.3   208  LEU208      0.1596
    151  C         -8.8050   27.4540    5.2810 C.2   208  LEU208      0.2287
    152  O         -9.7890   28.1750    5.4490 O.2   208  LEU208     -0.2864
    153  CB        -6.6320   28.0930    6.3290 C.3   208  LEU208      0.0297
    154  CG        -6.5370   29.3770    7.0490 C.3   208  LEU208      0.0022
    155  CD1       -7.0970   29.2460    8.4910 C.3   208  LEU208      0.0001
    156  CD2       -5.0280   29.7970    7.0600 C.3   208  LEU208      0.0001
@<TRIPOS>BOND
     1    46    47    1
     2    50    47    1
     3    50    51    1
     4    47    48    1
     5    48    49    2
     6   139   140    1
     7   151   152    2
     8   151   150    1
     9    51    52    1
    10   137   138    2
    11   137   136    1
    12   135   136    1
    13   153   150    1
    14   153   154    1
    15   150   149    1
    16   149   141   am
    17    53    52    1
    18   140   141    1
    19   140   143    1
    20   141   142    2
    21   154   156    1
    22   154   155    1
    23    54    55    1
    24    68    69    1
    25    68    67    1
    26   143   144    1
    27    59    60    1
    28    59    58    1
    29    59    61    1
    30    58    55    1
    31    55    56    1
    32    67    66    1
    33    66    63    1
    34    40    39    2
    35    62    56   am
    36    62    63    1
    37   144   146   ar
    38   144   145   ar
    39    39    38    1
    40    35    34    2
    41   115   113    1
    42    56    57    2
    43   146   148   ar
    44    63    64    1
    45   113   112    1
    46   145   147   ar
    47    64    65    2
    48    34    33    1
    49    36    33    1
    50   114   112    1
    51   148   147   ar
    52    38    41    1
    53    38    37    1
    54    23    21    1
    55   112   109    1
    56    33    32    1
    57   134   132    1
    58    41    42    1
    59   109   108    1
    60   109   110    1
    61    21    18    1
    62    21    22    1
    63    20    19    2
    64     8     7    1
    65   132   133    1
    66   132   131    1
    67    18    19    1
    68    18    17    1
    69   127   128    1
    70   111   110    2
    71    32    26   am
    72   110   116   am
    73   128   131    1
    74   128   129    1
    75    42    43    1
    76    27    26    2
    77    70    71    1
    78   100   101    1
    79   105   107    1
    80   105   104    1
    81    45    43   ar
    82    43    44   ar
    83    26    25    1
    84    12    11    2
    85    17    11   am
    86   101   104    1
    87   101   102    1
    88     7     6    1
    89   116   117    1
    90   129   130    2
    91    11    10    1
    92     6     5    1
    93    74    71    1
    94    74    75    1
    95   104   106    1
    96   103   102    2
    97     5     2    1
    98     4     3    2
    99    71    72    1
   100    77    75    1
   101    24    25    1
   102    25    28    1
   103    72    73    2
   104    13    10    1
   105    13    14    1
   106    87    86    1
   107   117   118    1
   108   117   120    1
   109    75    76    1
   110   118   119    2
   111     3     2    1
   112     2     1    1
   113    10     9    1
   114    28    29    1
   115    98    99   ar
   116    98    96   ar
   117    15    14    1
   118   122   124   ar
   119   122   121   ar
   120    88    86    1
   121    29    30    1
   122    29    31    1
   123    86    85    2
   124   124   126   ar
   125    14    16    1
   126    99    97   ar
   127   120   121    1
   128    96    94   ar
   129    78    79    1
   130   121   123   ar
   131    85    84    1
   132   126   125   ar
   133    83    84    1
   134    83    82    1
   135    97    95   ar
   136    94    95   ar
   137    94    93    1
   138   123   125   ar
   139    79    82    1
   140    79    80    1
   141    92    91    2
   142    93    90    1
   143    90    91    1
   144    90    89    1
   145    80    81    2
