@<TRIPOS>MOLECULE
tmp/3omqA01.pdb
 156 145 0 0 0
SMALL
GASTEIGER

@<TRIPOS>ATOM
      1  N          9.3100   28.8950  -16.8430 N.3    32  MET32      -0.1245
      2  CA         9.0670   29.3380  -15.4820 C.3    32  MET32       0.1570
      3  C          9.0770   30.8740  -15.3670 C.2    32  MET32       0.2261
      4  O          8.4040   31.4220  -14.5490 O.2    32  MET32      -0.2867
      5  CB        10.0660   28.6970  -14.5030 C.3    32  MET32       0.0387
      6  CG         9.8660   27.2060  -14.2660 C.3    32  MET32       0.0595
      7  SD         8.1490   26.7540  -13.8900 S.3    32  MET32      -0.1393
      8  CE         7.8100   27.6730  -12.3490 C.3    32  MET32       0.0692
      9  N          5.4970   31.9340  -16.4560 N.3    35  LEU35      -0.1231
     10  CA         4.3960   31.6110  -15.5730 C.3    35  LEU35       0.1693
     11  C          4.4640   32.3750  -14.2640 C.2    35  LEU35       0.2592
     12  O          3.4140   32.7740  -13.6780 O.2    35  LEU35      -0.2718
     13  CB         4.4020   30.1190  -15.2820 C.3    35  LEU35       0.0284
     14  CG         4.0780   29.2250  -16.4780 C.3    35  LEU35       0.0019
     15  CD1        4.3150   27.7660  -16.0410 C.3    35  LEU35       0.0001
     16  CD2        2.6350   29.4330  -16.9870 C.3    35  LEU35       0.0001
     17  N          5.6810   32.6000  -13.7780 N.am   36  THR36      -0.1953
     18  CA         5.8190   33.4050  -12.5550 C.3    36  THR36       0.1897
     19  C          5.6040   34.9120  -12.7990 C.2    36  THR36       0.2313
     20  O          5.0110   35.5830  -11.9810 O.2    36  THR36      -0.2863
     21  CB         7.1970   33.1680  -11.8860 C.3    36  THR36       0.1794
     22  OG1        8.2360   33.4120  -12.8260 O.3    36  THR36      -0.2208
     23  CG2        7.2860   31.6980  -11.4510 C.3    36  THR36       0.0378
     24  N          3.5550   36.0600  -14.9990 N.3    38  LEU38      -0.1231
     25  CA         2.0880   36.0990  -15.0330 C.3    38  LEU38       0.1693
     26  C          1.5150   36.0710  -13.6110 C.2    38  LEU38       0.2591
     27  O          0.6730   36.9000  -13.2580 O.2    38  LEU38      -0.2718
     28  CB         1.5150   34.9210  -15.8700 C.3    38  LEU38       0.0284
     29  CG        -0.0090   34.8000  -15.9770 C.3    38  LEU38       0.0019
     30  CD1       -0.7420   36.0870  -16.5230 C.3    38  LEU38       0.0001
     31  CD2       -0.4480   33.5440  -16.7800 C.3    38  LEU38       0.0001
     32  N          2.0100   35.1350  -12.7950 N.am   39  ALA39      -0.1980
     33  CA         1.4520   34.9320  -11.4500 C.3    39  ALA39       0.1597
     34  C          1.6100   36.1960  -10.5830 C.2    39  ALA39       0.2287
     35  O          0.6940   36.5740   -9.8240 O.2    39  ALA39      -0.2864
     36  CB         2.0510   33.6810  -10.7630 C.3    39  ALA39       0.0319
     37  N         -0.9310   38.7480  -11.6910 N.3    42  GLU42      -0.1245
     38  CA        -2.2520   38.3290  -11.2250 C.3    42  GLU42       0.1567
     39  C         -2.4270   38.5270   -9.7100 C.2    42  GLU42       0.2260
     40  O         -3.5280   38.8750   -9.2490 O.2    42  GLU42      -0.2867
     41  CB        -2.5020   36.9000  -11.6220 C.3    42  GLU42       0.0388
     42  CG        -2.7370   36.7150  -13.1090 C.3    42  GLU42       0.1160
     43  CD        -3.1330   35.3050  -13.3960 C.2    42  GLU42       0.3649
     44  OE1       -4.3200   35.0520  -13.6340 O.co2  42  GLU42      -0.2457
     45  OE2       -2.2550   34.4200  -13.2830 O.co2  42  GLU42      -0.2457
     46  N         -2.4240   30.7780   -4.3710 N.3    73  MET73      -0.1245
     47  CA        -2.2170   29.8080   -5.4460 C.3    73  MET73       0.1570
     48  C         -3.5360   29.0950   -5.8230 C.2    73  MET73       0.2261
     49  O         -3.8230   28.8650   -7.0090 O.2    73  MET73      -0.2867
     50  CB        -1.1360   28.7640   -5.0410 C.3    73  MET73       0.0387
     51  CG        -0.8070   27.7380   -6.1430 C.3    73  MET73       0.0595
     52  SD        -0.1070   28.5510   -7.6410 S.3    73  MET73      -0.1393
     53  CE         1.6290   28.7600   -7.0890 C.3    73  MET73       0.0692
     54  N         -5.3650   31.5790   -8.0090 N.3    76  LEU76      -0.1231
     55  CA        -4.7600   31.5820   -9.3690 C.3    76  LEU76       0.1693
     56  C         -5.2250   30.3500  -10.1310 C.2    76  LEU76       0.2591
     57  O         -5.6600   30.4510  -11.2810 O.2    76  LEU76      -0.2718
     58  CB        -3.2330   31.5890   -9.3240 C.3    76  LEU76       0.0284
     59  CG        -2.5450   32.8240   -8.7890 C.3    76  LEU76       0.0019
     60  CD1       -1.0520   32.6190   -8.9380 C.3    76  LEU76       0.0001
     61  CD2       -3.0110   34.1070   -9.5630 C.3    76  LEU76       0.0001
     62  N         -5.1770   29.1900   -9.4920 N.am   77  MET77      -0.1979
     63  CA        -5.5260   27.9520  -10.1660 C.3    77  MET77       0.1605
     64  C         -6.9850   27.8830  -10.5100 C.2    77  MET77       0.2287
     65  O         -7.3410   27.4070  -11.5740 O.2    77  MET77      -0.2864
     66  CB        -5.1660   26.7770   -9.2740 C.3    77  MET77       0.0413
     67  CG        -3.6100   26.5800   -9.2430 C.3    77  MET77       0.0598
     68  SD        -3.1830   25.1880   -8.1950 S.3    77  MET77      -0.1393
     69  CE        -3.0220   26.0830   -6.6940 C.3    77  MET77       0.0692
     70  N         -7.5020   30.0780  -13.5100 N.3    80  LEU80      -0.1245
     71  CA        -6.9600   29.2810  -14.6810 C.3    80  LEU80       0.1561
     72  C         -7.9160   28.1750  -15.1790 C.2    80  LEU80       0.2260
     73  O         -8.1980   28.0530  -16.3940 O.2    80  LEU80      -0.2867
     74  CB        -5.5950   28.6390  -14.3350 C.3    80  LEU80       0.0270
     75  CG        -5.0000   27.6570  -15.3450 C.3    80  LEU80       0.0019
     76  CD1       -4.6110   28.5660  -16.5660 C.3    80  LEU80       0.0001
     77  CD2       -3.7420   27.0200  -14.7210 C.3    80  LEU80       0.0001
     78  N        -10.8930   29.6550  -16.9820 N.3    83  ARG83      -0.1245
     79  CA       -10.5160   30.0560  -18.3150 C.3    83  ARG83       0.1563
     80  C        -10.3850   28.8900  -19.2360 C.2    83  ARG83       0.2260
     81  O        -10.6960   29.0180  -20.4240 O.2    83  ARG83      -0.2867
     82  CB        -9.2020   30.8370  -18.3690 C.3    83  ARG83       0.0307
     83  CG        -9.2280   32.1480  -17.6650 C.3    83  ARG83       0.0489
     84  CD        -8.0100   33.0160  -18.0340 C.3    83  ARG83       0.2205
     85  NE        -6.7000   32.5840  -17.5110 N.pl3  83  ARG83      -0.0865
     86  CZ        -6.2770   32.6890  -16.2480 C.cat  83  ARG83       0.5346
     87  NH1       -7.0950   33.1090  -15.2590 N.pl3  83  ARG83       0.1354
     88  NH2       -5.0410   32.3150  -15.9650 N.pl3  83  ARG83       0.1354
     89  N         -3.5430   30.0560  -19.8560 N.3    93  PHE93      -0.1241
     90  CA        -2.9140   30.9690  -18.8850 C.3    93  PHE93       0.1605
     91  C         -3.2340   32.4150  -19.2060 C.2    93  PHE93       0.2264
     92  O         -3.4720   33.2010  -18.2960 O.2    93  PHE93      -0.2867
     93  CB        -1.4030   30.7560  -18.8100 C.3    93  PHE93       0.0534
     94  CG        -1.0540   29.5480  -18.0630 C.ar   93  PHE93      -0.0203
     95  CD1       -0.9160   28.3280  -18.7290 C.ar   93  PHE93      -0.0042
     96  CD2       -0.9030   29.6080  -16.6910 C.ar   93  PHE93      -0.0042
     97  CE1       -0.6490   27.1420  -18.0150 C.ar   93  PHE93      -0.0003
     98  CE2       -0.6240   28.4550  -15.9740 C.ar   93  PHE93      -0.0003
     99  CZ        -0.4900   27.2090  -16.6300 C.ar   93  PHE93      -0.0000
    100  N          6.5010   19.7910  -13.4730 N.3   110  ILE110     -0.1245
    101  CA         5.2940   20.5790  -13.7940 C.3   110  ILE110      0.1561
    102  C          4.1800   19.7970  -14.5440 C.2   110  ILE110      0.2260
    103  O          2.9890   20.1660  -14.4520 O.2   110  ILE110     -0.2867
    104  CB         5.7050   21.8940  -14.4790 C.3   110  ILE110      0.0252
    105  CG1        5.5390   23.0930  -13.5500 C.3   110  ILE110      0.0019
    106  CG2        4.8690   22.2010  -15.7120 C.3   110  ILE110      0.0019
    107  CD1        4.8190   24.2560  -14.3900 C.3   110  ILE110      0.0001
    108  N          1.5330   18.6670  -12.1450 N.3   113  ILE113     -0.1231
    109  CA         0.6410   19.8080  -11.7960 C.3   113  ILE113      0.1692
    110  C         -0.3620   20.1370  -12.9420 C.2   113  ILE113      0.2592
    111  O         -1.5410   20.3040  -12.7040 O.2   113  ILE113     -0.2718
    112  CB         1.4570   20.9970  -11.4010 C.3   113  ILE113      0.0266
    113  CG1        2.3810   20.5960  -10.2000 C.3   113  ILE113      0.0019
    114  CG2        0.5440   22.2150  -11.0610 C.3   113  ILE113      0.0020
    115  CD1        3.4880   21.5910   -9.9780 C.3   113  ILE113      0.0001
    116  N          0.1200   20.1530  -14.1950 N.am  114  PHE114     -0.1976
    117  CA        -0.7540   20.3940  -15.3100 C.3   114  PHE114      0.1639
    118  C         -1.8380   19.3310  -15.3490 C.2   114  PHE114      0.2290
    119  O         -3.0280   19.6510  -15.6010 O.2   114  PHE114     -0.2864
    120  CB        -0.0080   20.4060  -16.6590 C.3   114  PHE114      0.0560
    121  CG         0.7340   21.6840  -16.9550 C.ar  114  PHE114     -0.0200
    122  CD1        0.9800   22.6290  -15.9540 C.ar  114  PHE114     -0.0042
    123  CD2        1.1990   21.9390  -18.2740 C.ar  114  PHE114     -0.0042
    124  CE1        1.6870   23.8390  -16.2480 C.ar  114  PHE114     -0.0003
    125  CE2        1.9150   23.1240  -18.5960 C.ar  114  PHE114     -0.0003
    126  CZ         2.1450   24.0890  -17.6010 C.ar  114  PHE114     -0.0000
    127  N         -4.4060   19.9500  -12.6630 N.3   117  LEU117     -0.1245
    128  CA        -5.2130   21.1250  -13.0900 C.3   117  LEU117      0.1561
    129  C         -6.1760   20.7310  -14.2250 C.2   117  LEU117      0.2260
    130  O         -7.3340   21.0600  -14.2010 O.2   117  LEU117     -0.2867
    131  CB        -4.3290   22.2880  -13.5340 C.3   117  LEU117      0.0270
    132  CG        -3.5460   22.9660  -12.4390 C.3   117  LEU117      0.0019
    133  CD1       -2.4270   23.7950  -13.0720 C.3   117  LEU117      0.0001
    134  CD2       -4.4320   23.8470  -11.5690 C.3   117  LEU117      0.0001
    135  N          1.8610   22.9990   -6.4930 N.3   204  GLY204     -0.1225
    136  CA         2.3390   24.2350   -7.1110 C.3   204  GLY204      0.1811
    137  C          3.2850   25.0710   -6.2340 C.2   204  GLY204      0.2280
    138  O          4.3710   25.4940   -6.6850 O.2   204  GLY204     -0.2866
    139  N          6.6240   23.3330   -5.7590 N.3   207  HIS207     -0.1226
    140  CA         7.3710   23.4580   -7.0000 C.3   207  HIS207      0.1752
    141  C          8.0890   24.7790   -7.0700 C.2   207  HIS207      0.2595
    142  O          9.3350   24.8330   -7.2690 O.2   207  HIS207     -0.2718
    143  CB         6.5040   23.3270   -8.2390 C.3   207  HIS207      0.0759
    144  CG         7.3290   23.1730   -9.4580 C.ar  207  HIS207      0.0818
    145  ND1        7.7870   24.2600  -10.1750 N.ar  207  HIS207     -0.2268
    146  CD2        7.8770   22.0890  -10.0250 C.ar  207  HIS207      0.1154
    147  CE1        8.5400   23.8330  -11.1730 C.ar  207  HIS207      0.1986
    148  NE2        8.6320   22.5230  -11.0800 N.ar  207  HIS207     -0.2212
    149  N          7.3070   25.8480   -6.9080 N.am  208  LEU208     -0.1980
    150  CA         7.8560   27.1810   -6.8610 C.3   208  LEU208      0.1596
    151  C          8.8800   27.4570   -5.7340 C.2   208  LEU208      0.2287
    152  O          9.8780   28.1650   -5.9280 O.2   208  LEU208     -0.2864
    153  CB         6.7000   28.1620   -6.7080 C.3   208  LEU208      0.0297
    154  CG         6.5560   29.3880   -7.5530 C.3   208  LEU208      0.0022
    155  CD1        7.1070   29.1420   -8.9680 C.3   208  LEU208      0.0001
    156  CD2        5.0350   29.7640   -7.5940 C.3   208  LEU208      0.0001
@<TRIPOS>BOND
     1    81    80    2
     2    89    90    1
     3    80    79    1
     4    91    90    1
     5    91    92    2
     6    90    93    1
     7    93    94    1
     8    95    94   ar
     9    95    97   ar
    10   125   123   ar
    11   125   126   ar
    12    82    79    1
    13    82    83    1
    14    79    78    1
    15   123   121   ar
    16    94    96   ar
    17    84    83    1
    18    84    85    1
    19    97    99   ar
    20   126   124   ar
    21    85    86    2
    22    16    14    1
    23   121   120    1
    24   121   122   ar
    25     1     2    1
    26    31    29    1
    27    96    98   ar
    28   120   117    1
    29    99    98   ar
    30    76    75    1
    31    30    29    1
    32    14    15    1
    33    14    13    1
    34     9    10    1
    35    73    72    2
    36    86    88    1
    37    86    87    1
    38   124   122   ar
    39    29    28    1
    40    28    25    1
    41   106   104    1
    42   119   118    2
    43    10    13    1
    44    10    11    1
    45     2     3    1
    46     2     5    1
    47     3     4    2
    48   118   117    1
    49    75    77    1
    50    75    74    1
    51   117   116    1
    52    72    71    1
    53    25    24    1
    54    25    26    1
    55    71    74    1
    56    71    70    1
    57   102   103    2
    58   102   101    1
    59     5     6    1
    60   104   101    1
    61   104   105    1
    62   107   105    1
    63     6     7    1
    64    11    17   am
    65    11    12    2
    66   129   130    2
    67   129   128    1
    68   116   110   am
    69     7     8    1
    70   101   100    1
    71    17    18    1
    72    44    43   ar
    73    26    27    2
    74    26    32   am
    75   131   128    1
    76   131   132    1
    77    43    45   ar
    78    43    42    1
    79    42    41    1
    80   128   127    1
    81   133   132    1
    82   110   111    2
    83   110   109    1
    84    22    21    1
    85    19    18    1
    86    19    20    2
    87    32    33    1
    88    18    21    1
    89   132   134    1
    90   108   109    1
    91    21    23    1
    92   109   112    1
    93    37    38    1
    94    41    38    1
    95    65    64    2
    96    33    36    1
    97    33    34    1
    98   112   114    1
    99   112   113    1
   100    57    56    2
   101    38    39    1
   102   147   148   ar
   103   147   145   ar
   104   148   146   ar
   105    34    35    2
   106    64    63    1
   107   113   115    1
   108   145   144   ar
   109    63    62    1
   110    63    66    1
   111    56    62   am
   112    56    55    1
   113   146   144   ar
   114    39    40    2
   115    61    59    1
   116   144   143    1
   117    55    58    1
   118    55    54    1
   119    58    59    1
   120    66    67    1
   121    67    68    1
   122   155   154    1
   123    60    59    1
   124   143   140    1
   125    68    69    1
   126    52    53    1
   127    52    51    1
   128   156   154    1
   129   154   153    1
   130   142   141    2
   131   136   135    1
   132   136   137    1
   133   141   140    1
   134   141   149   am
   135    49    48    2
   136   140   139    1
   137   149   150    1
   138   150   153    1
   139   150   151    1
   140   138   137    2
   141    51    50    1
   142   152   151    2
   143    48    47    1
   144    47    50    1
   145    47    46    1
