@<TRIPOS>MOLECULE
tmp/3omuB01.pdb
 165 152 0 0 0
SMALL
GASTEIGER

@<TRIPOS>ATOM
      1  N         14.8970    6.7740   24.1290 N.3    33  LEU33      -0.1245
      2  CA        16.2260    6.2470   23.7840 C.3    33  LEU33       0.1561
      3  C         16.3290    4.7640   24.1070 C.2    33  LEU33       0.2260
      4  O         16.9770    4.0090   23.3810 O.2    33  LEU33      -0.2867
      5  CB        17.3460    7.0120   24.4970 C.3    33  LEU33       0.0270
      6  CG        17.4420    8.5270   24.3100 C.3    33  LEU33       0.0019
      7  CD1       18.4740    9.1300   25.2650 C.3    33  LEU33       0.0001
      8  CD2       17.7490    8.8730   22.8630 C.3    33  LEU33       0.0001
      9  N         14.5320    2.8800   21.3410 N.3    36  ASN36      -0.1225
     10  CA        15.4430    2.8180   20.1920 C.3    36  ASN36       0.1785
     11  C         16.5440    1.7680   20.3480 C.2    36  ASN36       0.2597
     12  O         16.8570    1.0590   19.3920 O.2    36  ASN36      -0.2718
     13  CB        16.0900    4.1880   19.9240 C.3    36  ASN36       0.1169
     14  CG        15.1610    5.1430   19.2000 C.2    36  ASN36       0.2627
     15  OD1       14.0790    4.7480   18.7620 O.2    36  ASN36      -0.2716
     16  ND2       15.5750    6.4130   19.0730 N.am   36  ASN36      -0.0877
     17  N         17.1300    1.6990   21.5440 N.am   37  SER37      -0.1952
     18  CA        18.1370    0.6920   21.9020 C.3    37  SER37       0.1924
     19  C         17.5780   -0.7250   21.8600 C.2    37  SER37       0.2314
     20  O         18.2840   -1.6550   21.4500 O.2    37  SER37      -0.2863
     21  CB        18.7270    0.9820   23.2910 C.3    37  SER37       0.2116
     22  OG        19.4880    2.1910   23.3020 O.3    37  SER37      -0.2180
     23  N         17.0870   -1.7410   18.2380 N.3    40  ALA40      -0.1245
     24  CA        18.4000   -2.0640   17.6390 C.3    40  ALA40       0.1562
     25  C         18.8800   -3.4720   18.0210 C.2    40  ALA40       0.2260
     26  O         19.5420   -4.1600   17.2180 O.2    40  ALA40      -0.2867
     27  CB        19.4550   -1.0220   18.0490 C.3    40  ALA40       0.0290
     28  N         16.9690   -5.9390   15.8200 N.3    43  LYS43      -0.1245
     29  CA        17.5390   -6.0200   14.4720 C.3    43  LYS43       0.1561
     30  C         18.7180   -7.0080   14.3470 C.2    43  LYS43       0.2260
     31  O         18.7610   -7.8310   13.4190 O.2    43  LYS43      -0.2867
     32  CB        17.9240   -4.6210   13.9650 C.3    43  LYS43       0.0271
     33  CG        16.7130   -3.6990   13.7600 C.3    43  LYS43       0.0035
     34  CD        17.1750   -2.2920   13.3220 C.3    43  LYS43       0.0206
     35  CE        16.0200   -1.4140   13.7330 C.3    43  LYS43       0.1093
     36  NZ        16.1740    0.0040   13.3750 N.3    43  LYS43      -0.1314
     37  N         23.9870    0.6150   23.9790 N.3    76  ASP76      -0.1239
     38  CA        23.4740   -0.7070   23.6740 C.3    76  ASP76       0.1674
     39  C         24.4580   -1.5090   22.8540 C.2    76  ASP76       0.2266
     40  O         25.4270   -0.9660   22.3320 O.2    76  ASP76      -0.2867
     41  CB        22.0930   -0.6410   22.9820 C.3    76  ASP76       0.1410
     42  CG        22.1360    0.0640   21.6180 C.2    76  ASP76       0.3668
     43  OD1       22.7160   -0.4940   20.6560 O.co2  76  ASP76      -0.2456
     44  OD2       21.5860    1.1860   21.5230 O.co2  76  ASP76      -0.2456
     45  N         22.3200   -3.3580   16.8000 N.3    79  ILE79      -0.1231
     46  CA        22.9110   -3.5010   15.4830 C.3    79  ILE79       0.1692
     47  C         23.8800   -2.3600   15.0880 C.2    79  ILE79       0.2593
     48  O         24.7930   -2.5630   14.2710 O.2    79  ILE79      -0.2718
     49  CB        21.8000   -3.6780   14.4220 C.3    79  ILE79       0.0266
     50  CG1       22.3840   -4.2320   13.1070 C.3    79  ILE79       0.0019
     51  CG2       20.9930   -2.3720   14.2800 C.3    79  ILE79       0.0020
     52  CD1       21.3500   -4.7150   12.0960 C.3    79  ILE79       0.0001
     53  N         23.6750   -1.1750   15.6590 N.am   80  GLY80      -0.1942
     54  CA        24.4700    0.0000   15.3090 C.3    80  GLY80       0.2014
     55  C         24.2000    0.5550   13.9230 C.2    80  GLY80       0.2638
     56  O         23.4300   -0.0110   13.1420 O.2    80  GLY80      -0.2714
     57  N         24.8640    1.6720   13.6250 N.am   81  MET81      -0.1976
     58  CA        24.6780    2.4110   12.3890 C.3    81  MET81       0.1605
     59  C         26.0110    2.6120   11.6810 C.2    81  MET81       0.2287
     60  O         27.0290    2.8710   12.3210 O.2    81  MET81      -0.2864
     61  CB        24.0720    3.7820   12.6890 C.3    81  MET81       0.0413
     62  CG        22.6360    3.7270   13.1860 C.3    81  MET81       0.0598
     63  SD        22.0680    5.3550   13.6900 S.3    81  MET81      -0.1393
     64  CE        22.6620    5.4000   15.3880 C.3    81  MET81       0.0692
     65  N         24.0300    5.1290    7.6860 N.3    85  ASP85      -0.1239
     66  CA        22.8640    4.9640    8.5610 C.3    85  ASP85       0.1674
     67  C         22.6630    6.1640    9.4890 C.2    85  ASP85       0.2266
     68  O         21.5280    6.5610    9.7700 O.2    85  ASP85      -0.2867
     69  CB        22.9880    3.6940    9.4060 C.3    85  ASP85       0.1410
     70  CG        22.9780    2.4130    8.5760 C.2    85  ASP85       0.3668
     71  OD1       22.3490    2.3450    7.4990 O.co2  85  ASP85      -0.2456
     72  OD2       23.5910    1.4450    9.0290 O.co2  85  ASP85      -0.2456
     73  N         19.2230    8.1240    9.3150 N.3    89  ASN89      -0.1225
     74  CA        18.3620    8.1180   10.4990 C.3    89  ASN89       0.1785
     75  C         18.1400    9.4980   11.0890 C.2    89  ASN89       0.2597
     76  O         16.9930    9.9080   11.3370 O.2    89  ASN89      -0.2718
     77  CB        18.9240    7.2140   11.5920 C.3    89  ASN89       0.1169
     78  CG        18.4260    5.7840   11.4870 C.2    89  ASN89       0.2627
     79  OD1       17.2590    5.4950   11.7580 O.2    89  ASN89      -0.2716
     80  ND2       19.3160    4.8830   11.1270 N.am   89  ASN89      -0.0877
     81  N         19.2340   10.2180   11.3100 N.am   90  LEU90      -0.1980
     82  CA        19.1630   11.4560   12.0580 C.3    90  LEU90       0.1596
     83  C         18.7730   12.6400   11.1620 C.2    90  LEU90       0.2287
     84  O         18.1420   13.6020   11.6230 O.2    90  LEU90      -0.2864
     85  CB        20.4860   11.6770   12.8060 C.3    90  LEU90       0.0297
     86  CG        20.7520   10.8480   14.0770 C.3    90  LEU90       0.0022
     87  CD1       20.4280    9.3720   13.9490 C.3    90  LEU90       0.0001
     88  CD2       22.1940   10.9380   14.4770 C.3    90  LEU90       0.0001
     89  N         15.7370   10.4770    6.7050 N.3    93  ILE93      -0.1231
     90  CA        14.4730    9.8030    7.0150 C.3    93  ILE93       0.1692
     91  C         13.6410   10.5400    8.0530 C.2    93  ILE93       0.2591
     92  O         12.4200   10.5020    7.9980 O.2    93  ILE93      -0.2718
     93  CB        14.6800    8.3630    7.5530 C.3    93  ILE93       0.0266
     94  CG1       15.2330    7.4430    6.4670 C.3    93  ILE93       0.0019
     95  CG2       13.3610    7.8160    8.0770 C.3    93  ILE93       0.0020
     96  CD1       15.4870    6.0210    6.9520 C.3    93  ILE93       0.0001
     97  N         14.2940   11.1860    9.0120 N.am   94  ALA94      -0.1980
     98  CA        13.5890   11.8940   10.0780 C.3    94  ALA94       0.1597
     99  C         12.6700   13.0150    9.5710 C.2    94  ALA94       0.2287
    100  O         11.7270   13.3950   10.2550 O.2    94  ALA94      -0.2864
    101  CB        14.5900   12.4550   11.0910 C.3    94  ALA94       0.0319
    102  N          8.2800    8.4510   14.8670 N.3   118  GLY118     -0.1210
    103  CA         9.5970    7.8590   14.6060 C.3   118  GLY118      0.1956
    104  C         10.7790    8.7680   14.9070 C.2   118  GLY118      0.2611
    105  O         11.9120    8.4560   14.5290 O.2   118  GLY118     -0.2717
    106  N         10.5430    9.8840   15.6020 N.am  119  VAL119     -0.1979
    107  CA        11.6330   10.8330   15.8300 C.3   119  VAL119      0.1595
    108  C         11.9630   11.0430   17.3080 C.2   119  VAL119      0.2287
    109  O         12.4600   12.1000   17.7060 O.2   119  VAL119     -0.2864
    110  CB        11.4370   12.1630   15.0500 C.3   119  VAL119      0.0276
    111  CG1       11.4530   11.8920   13.5340 C.3   119  VAL119      0.0022
    112  CG2       10.1290   12.8710   15.4510 C.3   119  VAL119      0.0022
    113  N         14.2570   10.0980   19.1940 N.3   121  PHE121     -0.1227
    114  CA        15.6410   10.4650   19.4890 C.3   121  PHE121      0.1736
    115  C         15.7670   11.9350   19.9070 C.2   121  PHE121      0.2595
    116  O         16.4370   12.2520   20.8940 O.2   121  PHE121     -0.2718
    117  CB        16.5550   10.1820   18.2900 C.3   121  PHE121      0.0547
    118  CG        17.9150   10.8060   18.4140 C.ar  121  PHE121     -0.0202
    119  CD1       18.9190   10.1760   19.1470 C.ar  121  PHE121     -0.0042
    120  CD2       18.1840   12.0270   17.8200 C.ar  121  PHE121     -0.0042
    121  CE1       20.1750   10.7690   19.2930 C.ar  121  PHE121     -0.0003
    122  CE2       19.4360   12.6260   17.9540 C.ar  121  PHE121     -0.0003
    123  CZ        20.4350   11.9900   18.6880 C.ar  121  PHE121     -0.0000
    124  N         15.0990   12.8240   19.1830 N.am  122  TYR122     -0.1976
    125  CA        15.2160   14.2670   19.4500 C.3   122  TYR122      0.1639
    126  C         14.6460   14.7650   20.7700 C.2   122  TYR122      0.2290
    127  O         14.9520   15.8860   21.1890 O.2   122  TYR122     -0.2864
    128  CB        14.6970   15.0880   18.2790 C.3   122  TYR122      0.0560
    129  CG        15.6140   14.9630   17.1110 C.ar  122  TYR122     -0.0198
    130  CD1       16.7750   15.7240   17.0350 C.ar  122  TYR122     -0.0009
    131  CD2       15.3580   14.0370   16.0940 C.ar  122  TYR122     -0.0009
    132  CE1       17.6450   15.5960   15.9600 C.ar  122  TYR122      0.0417
    133  CE2       16.2200   13.9060   15.0150 C.ar  122  TYR122      0.0417
    134  CZ        17.3610   14.6870   14.9630 C.ar  122  TYR122      0.1957
    135  OH        18.2190   14.5600   13.9080 O.3   122  TYR122     -0.2866
    136  N         26.5100   10.9980   19.4220 N.3   133  VAL133     -0.1245
    137  CA        26.1280    9.6350   19.0990 C.3   133  VAL133      0.1561
    138  C         27.3290    8.9100   18.5300 C.2   133  VAL133      0.2260
    139  O         27.8710    9.2920   17.4850 O.2   133  VAL133     -0.2867
    140  CB        24.9740    9.5830   18.0810 C.3   133  VAL133      0.0252
    141  CG1       24.5270    8.1300   17.8570 C.3   133  VAL133      0.0019
    142  CG2       23.8010   10.4490   18.5480 C.3   133  VAL133      0.0019
    143  N         28.4800   -0.4290   13.6020 N.3   137  ASN137     -0.1240
    144  CA        27.7420   -1.4700   12.9130 C.3   137  ASN137      0.1653
    145  C         28.7870   -2.4130   12.2790 C.2   137  ASN137      0.2266
    146  O         29.9090   -1.9870   11.9820 O.2   137  ASN137     -0.2867
    147  CB        26.8420   -0.7750   11.8880 C.3   137  ASN137      0.1155
    148  CG        26.0600   -1.7310   11.0070 C.2   137  ASN137      0.2627
    149  OD1       26.6370   -2.4560   10.1940 O.2   137  ASN137     -0.2716
    150  ND2       24.7310   -1.6810   11.1130 N.am  137  ASN137     -0.0877
    151  N         25.4340    1.3220   19.9100 N.3   164  THR164     -0.1218
    152  CA        25.3330    2.7740   19.8470 C.3   164  THR164      0.1862
    153  C         25.4680    3.3550   21.2440 C.2   164  THR164      0.2287
    154  O         24.9110    2.8340   22.1950 O.2   164  THR164     -0.2866
    155  CB        24.0040    3.2040   19.1510 C.3   164  THR164      0.1770
    156  OG1       23.9460    2.6200   17.8490 O.3   164  THR164     -0.2211
    157  CG2       23.8850    4.7030   19.0090 C.3   164  THR164      0.0375
    158  N         24.9360    6.9120   23.1710 N.3   166  ILE166     -0.1245
    159  CA        24.4310    8.2780   23.1070 C.3   166  ILE166      0.1561
    160  C         24.7550    8.9890   24.4080 C.2   166  ILE166      0.2260
    161  O         24.3170    8.5680   25.4890 O.2   166  ILE166     -0.2867
    162  CB        22.9240    8.3210   22.8360 C.3   166  ILE166      0.0252
    163  CG1       22.6170    7.6670   21.4840 C.3   166  ILE166      0.0019
    164  CG2       22.4320    9.7690   22.8160 C.3   166  ILE166      0.0019
    165  CD1       21.1750    7.3230   21.2810 C.3   166  ILE166      0.0001
@<TRIPOS>BOND
     1    94    96    1
     2    94    93    1
     3    89    90    1
     4    90    93    1
     5    90    91    1
     6    71    70   ar
     7    93    95    1
     8    65    66    1
     9    92    91    2
    10    91    97   am
    11    66    69    1
    12    66    67    1
    13    70    72   ar
    14    70    69    1
    15    97    98    1
    16    73    74    1
    17    67    68    2
    18    99    98    1
    19    99   100    2
    20    98   101    1
    21   149   148    2
    22    74    75    1
    23    74    77    1
    24   148   150   am
    25   148   147    1
    26    75    81   am
    27    75    76    2
    28    80    78   am
    29    83    84    2
    30    83    82    1
    31    81    82    1
    32    78    77    1
    33    78    79    2
    34    59    60    2
    35    59    58    1
    36   147   144    1
    37   146   145    2
    38    82    85    1
    39    52    50    1
    40   145   144    1
    41    58    61    1
    42    58    57    1
    43    61    62    1
    44    85    86    1
    45   144   143    1
    46    50    49    1
    47    56    55    2
    48    62    63    1
    49    34    35    1
    50    34    33    1
    51    36    35    1
    52    31    30    2
    53   111   110    1
    54    57    55   am
    55    63    64    1
    56    33    32    1
    57   135   134    1
    58    55    54    1
    59    87    86    1
    60    32    29    1
    61    86    88    1
    62    48    47    2
    63    51    49    1
    64    30    29    1
    65    49    46    1
    66    29    28    1
    67   105   104    2
    68   103   102    1
    69   103   104    1
    70   104   106   am
    71   134   133   ar
    72   134   132   ar
    73   133   131   ar
    74   110   112    1
    75   110   107    1
    76    47    46    1
    77    47    53   am
    78    54    53    1
    79    46    45    1
    80   106   107    1
    81   107   108    1
    82   132   130   ar
    83   131   129   ar
    84   130   129   ar
    85   129   128    1
    86    26    25    2
    87   108   109    2
    88   139   138    2
    89    24    25    1
    90    24    27    1
    91    24    23    1
    92   120   122   ar
    93   120   118   ar
    94   156   155    1
    95   141   140    1
    96   122   123   ar
    97   140   142    1
    98   140   137    1
    99   128   125    1
   100   117   118    1
   101   117   114    1
   102   118   119   ar
   103   138   137    1
   104   123   121   ar
   105    15    14    2
   106   157   155    1
   107    16    14   am
   108   137   136    1
   109   119   121   ar
   110   155   152    1
   111   124   125    1
   112   124   115   am
   113   113   114    1
   114    14    13    1
   115    12    11    2
   116   125   126    1
   117   114   115    1
   118   152   151    1
   119   152   153    1
   120   115   116    2
   121    13    10    1
   122    10    11    1
   123    10     9    1
   124    11    17   am
   125    43    42   ar
   126   126   127    2
   127   153   154    2
   128   165   163    1
   129    20    19    2
   130   163   162    1
   131    44    42   ar
   132    17    18    1
   133    42    41    1
   134    19    18    1
   135    18    21    1
   136    40    39    2
   137   164   162    1
   138   162   159    1
   139    39    38    1
   140     8     6    1
   141    41    38    1
   142   159   158    1
   143   159   160    1
   144    21    22    1
   145     4     3    2
   146    38    37    1
   147     2     3    1
   148     2     1    1
   149     2     5    1
   150     6     5    1
   151     6     7    1
   152   160   161    2
