@<TRIPOS>MOLECULE
tmp/3omvA00.pdb
 193 184 0 0 0
SMALL
GASTEIGER

@<TRIPOS>ATOM
      1  N          5.8520   13.2470   26.3840 N.3    16  ILE16      -0.1231
      2  CA         6.7380   12.9480   27.4980 C.3    16  ILE16       0.1692
      3  C          5.9790   12.1720   28.5790 C.2    16  ILE16       0.2593
      4  O          6.5820   11.4530   29.3790 O.2    16  ILE16      -0.2718
      5  CB         7.3750   14.2500   28.0560 C.3    16  ILE16       0.0266
      6  CG1        8.3230   14.8820   27.0250 C.3    16  ILE16       0.0019
      7  CG2        8.1170   14.0040   29.3540 C.3    16  ILE16       0.0020
      8  CD1        9.5350   14.0250   26.6400 C.3    16  ILE16       0.0001
      9  N          4.6550   12.3050   28.5780 N.am   17  GLY17      -0.1942
     10  CA         3.8010   11.6000   29.5320 C.3    17  GLY17       0.2014
     11  C          2.4470   12.2630   29.6750 C.2    17  GLY17       0.2640
     12  O          1.7650   12.5180   28.6780 O.2    17  GLY17      -0.2714
     13  N          2.0570   12.5360   30.9200 N.am   18  SER18      -0.1935
     14  CA         0.8040   13.2270   31.2220 C.3    18  SER18       0.2055
     15  C          0.8400   13.8340   32.6250 C.2    18  SER18       0.2644
     16  O          1.9170   14.0810   33.1770 O.2    18  SER18      -0.2714
     17  CB        -0.3950   12.2770   31.0770 C.3    18  SER18       0.2130
     18  OG        -0.6470   11.9480   29.7190 O.3    18  SER18      -0.2179
     19  N         -0.3450   14.0800   33.1840 N.am   19  GLY19      -0.1939
     20  CA        -0.4880   14.5720   34.5500 C.3    19  GLY19       0.2014
     21  C         -0.7020   16.0700   34.6610 C.2    19  GLY19       0.2639
     22  O         -0.3610   16.8270   33.7470 O.2    19  GLY19      -0.2714
     23  N         -1.2880   16.4810   35.7880 N.am   20  SER20      -0.1949
     24  CA        -1.4330   17.8920   36.1760 C.3    20  SER20       0.1924
     25  C         -2.3990   18.6890   35.3070 C.2    20  SER20       0.2314
     26  O         -2.3890   19.9220   35.3330 O.2    20  SER20      -0.2863
     27  CB        -0.0720   18.5780   36.2190 C.3    20  SER20       0.2116
     28  OG         0.8820   17.7290   36.8300 O.3    20  SER20      -0.2180
     29  N          2.4990   16.4270   28.4550 N.3    24  VAL24      -0.1245
     30  CA         3.8240   17.0400   28.4470 C.3    24  VAL24       0.1561
     31  C          4.5660   16.7820   27.1380 C.2    24  VAL24       0.2260
     32  O          4.5680   15.6630   26.6220 O.2    24  VAL24      -0.2867
     33  CB         4.6730   16.5400   29.6350 C.3    24  VAL24       0.0252
     34  CG1        6.0190   17.2470   29.6720 C.3    24  VAL24       0.0019
     35  CG2        3.9190   16.7430   30.9370 C.3    24  VAL24       0.0019
     36  N          9.8850   22.7400   27.9140 N.3    34  ALA34      -0.1231
     37  CA         8.8650   21.7860   28.3310 C.3    34  ALA34       0.1694
     38  C          7.4960   22.4370   28.2070 C.2    34  ALA34       0.2592
     39  O          7.2810   23.5440   28.7000 O.2    34  ALA34      -0.2718
     40  CB         9.1160   21.3320   29.7510 C.3    34  ALA34       0.0304
     41  N          6.5760   21.7500   27.5360 N.am   35  VAL35      -0.1966
     42  CA         5.2640   22.3140   27.2250 C.3    35  VAL35       0.1727
     43  C          4.1380   21.4290   27.7360 C.2    35  VAL35       0.2616
     44  O          4.0910   20.2360   27.4320 O.2    35  VAL35      -0.2715
     45  CB         5.0820   22.5280   25.7000 C.3    35  VAL35       0.0290
     46  CG1        3.6580   22.9630   25.3720 C.3    35  VAL35       0.0023
     47  CG2        6.0800   23.5460   25.1730 C.3    35  VAL35       0.0023
     48  N          3.2330   22.0260   28.5090 N.am   36  LYS36      -0.1977
     49  CA         2.0230   21.3430   28.9500 C.3    36  LYS36       0.1596
     50  C          0.8140   21.8900   28.1910 C.2    36  LYS36       0.2287
     51  O          0.4200   23.0400   28.3800 O.2    36  LYS36      -0.2864
     52  CB         1.8250   21.4940   30.4610 C.3    36  LYS36       0.0298
     53  CG         0.8680   20.4660   31.0570 C.3    36  LYS36       0.0038
     54  CD         0.0150   21.0550   32.1760 C.3    36  LYS36       0.0206
     55  CE         0.7220   21.0110   33.5200 C.3    36  LYS36       0.1093
     56  NZ        -0.0360   21.6960   34.6070 N.3    36  LYS36      -0.1314
     57  N         -3.2690   28.1480   37.8870 N.3    54  GLU54      -0.1245
     58  CA        -1.9500   27.5560   37.7300 C.3    54  GLU54       0.1567
     59  C         -0.9330   28.6170   37.2940 C.2    54  GLU54       0.2260
     60  O          0.1560   28.7120   37.8670 O.2    54  GLU54      -0.2867
     61  CB        -2.0290   26.3930   36.7300 C.3    54  GLU54       0.0388
     62  CG        -0.7480   26.0540   35.9800 C.3    54  GLU54       0.1160
     63  CD         0.1480   25.0960   36.7280 C.2    54  GLU54       0.3649
     64  OE1        0.3340   23.9570   36.2480 O.co2  54  GLU54      -0.2457
     65  OE2        0.6690   25.4820   37.7920 O.co2  54  GLU54      -0.2457
     66  N          2.5000   30.3240   39.0220 N.3    58  LEU58      -0.1245
     67  CA         3.7980   30.3200   38.3510 C.3    58  LEU58       0.1561
     68  C          4.3780   31.7220   38.1770 C.2    58  LEU58       0.2260
     69  O          5.5970   31.9000   38.1910 O.2    58  LEU58      -0.2867
     70  CB         3.6880   29.6230   36.9950 C.3    58  LEU58       0.0270
     71  CG         3.4940   28.1040   37.0200 C.3    58  LEU58       0.0019
     72  CD1        2.8270   27.6290   35.7470 C.3    58  LEU58       0.0001
     73  CD2        4.8150   27.3760   37.2310 C.3    58  LEU58       0.0001
     74  N         10.8070   25.1290   38.6370 N.3    67  LEU67      -0.1245
     75  CA        10.8290   25.0240   37.1830 C.3    67  LEU67       0.1561
     76  C         10.4770   26.3710   36.5600 C.2    67  LEU67       0.2260
     77  O          9.3330   26.8300   36.6400 O.2    67  LEU67      -0.2867
     78  CB         9.8830   23.9210   36.6980 C.3    67  LEU67       0.0270
     79  CG        10.1960   23.2630   35.3490 C.3    67  LEU67       0.0019
     80  CD1       11.6050   22.6930   35.3250 C.3    67  LEU67       0.0001
     81  CD2        9.1800   22.1760   35.0230 C.3    67  LEU67       0.0001
     82  N          1.0550   25.7740   28.5850 N.3    80  ILE80      -0.1245
     83  CA         2.0120   26.3840   29.5110 C.3    80  ILE80       0.1561
     84  C          3.4280   25.9400   29.1480 C.2    80  ILE80       0.2260
     85  O          3.6890   24.7460   28.9820 O.2    80  ILE80      -0.2867
     86  CB         1.7170   26.0010   30.9780 C.3    80  ILE80       0.0252
     87  CG1        0.3860   26.6040   31.4320 C.3    80  ILE80       0.0019
     88  CG2        2.8430   26.4650   31.9000 C.3    80  ILE80       0.0019
     89  CD1       -0.2950   25.8280   32.5360 C.3    80  ILE80       0.0001
     90  N          7.6180   26.0060   29.9980 N.3    82  THR82      -0.1203
     91  CA         8.6490   26.1560   31.0160 C.3    82  THR82       0.1994
     92  C          9.9640   25.5310   30.5420 C.2    82  THR82       0.2618
     93  O          9.9800   24.7630   29.5770 O.2    82  THR82      -0.2717
     94  CB         8.2020   25.5600   32.3690 C.3    82  THR82       0.1784
     95  OG1        9.2510   25.7120   33.3300 O.3    82  THR82      -0.2211
     96  CG2        7.8690   24.0950   32.2270 C.3    82  THR82       0.0376
     97  N         11.0560   25.8690   31.2250 N.am   83  GLN83      -0.1965
     98  CA        12.3990   25.4490   30.8220 C.3    83  GLN83       0.1733
     99  C         12.5220   23.9390   30.6520 C.2    83  GLN83       0.2616
    100  O         11.9630   23.1710   31.4340 O.2    83  GLN83      -0.2715
    101  CB        13.4500   25.9590   31.8150 C.3    83  GLN83       0.0408
    102  CG        13.3350   25.3860   33.2160 C.3    83  GLN83       0.0908
    103  CD        14.6260   25.5010   33.9870 C.2    83  GLN83       0.2608
    104  OE1       14.9660   26.5660   34.4940 O.2    83  GLN83      -0.2717
    105  NE2       15.3550   24.4000   34.0830 N.am   83  GLN83      -0.0878
    106  N         13.2420   23.5220   29.6160 N.am   84  TRP84      -0.1960
    107  CA        13.5160   22.1080   29.4070 C.3    84  TRP84       0.1771
    108  C         14.6910   21.6780   30.2670 C.2    84  TRP84       0.2619
    109  O         15.6490   22.4320   30.4490 O.2    84  TRP84      -0.2715
    110  CB        13.7990   21.8020   27.9340 C.3    84  TRP84       0.0590
    111  CG        14.0700   20.3460   27.6800 C.ar   84  TRP84       0.0006
    112  CD1       15.2840   19.7650   27.4560 C.ar   84  TRP84       0.0946
    113  CD2       13.1080   19.2860   27.6530 C.ar   84  TRP84       0.0152
    114  NE1       15.1370   18.4110   27.2790 N.ar   84  TRP84      -0.2442
    115  CE2       13.8110   18.0900   27.3960 C.ar   84  TRP84       0.0810
    116  CE3       11.7180   19.2320   27.8110 C.ar   84  TRP84       0.0012
    117  CZ2       13.1720   16.8520   27.2980 C.ar   84  TRP84       0.0191
    118  CZ3       11.0830   18.0010   27.7100 C.ar   84  TRP84       0.0001
    119  CH2       11.8120   16.8280   27.4600 C.ar   84  TRP84       0.0015
    120  N         14.5990   20.4630   30.7980 N.am   85  CYS85      -0.1968
    121  CA        15.6630   19.8840   31.6060 C.3    85  CYS85       0.1712
    122  C         16.0610   18.5270   31.0460 C.2    85  CYS85       0.2296
    123  O         15.3460   17.5400   31.2380 O.2    85  CYS85      -0.2864
    124  CB        15.2090   19.7240   33.0570 C.3    85  CYS85       0.0983
    125  SG        14.3630   21.1530   33.7390 S.3    85  CYS85      -0.0798
    126  N         15.8910   13.2550   33.6370 N.3    88  SER88      -0.1202
    127  CA        14.4970   12.9400   33.9510 C.3    88  SER88       0.2020
    128  C         14.0350   13.3600   35.3480 C.2    88  SER88       0.2619
    129  O         14.8130   13.8930   36.1420 O.2    88  SER88      -0.2717
    130  CB        14.2470   11.4420   33.7440 C.3    88  SER88       0.2103
    131  OG        14.6070   11.0370   32.4320 O.3    88  SER88      -0.2182
    132  N         12.7520   13.1240   35.6200 N.am   89  SER89      -0.1951
    133  CA        12.1740   13.2810   36.9490 C.3    89  SER89       0.1924
    134  C         12.7700   12.2460   37.8970 C.2    89  SER89       0.2314
    135  O         13.1570   11.1590   37.4620 O.2    89  SER89      -0.2863
    136  CB        10.6590   13.0960   36.8810 C.3    89  SER89       0.2116
    137  OG        10.0890   13.0490   38.1770 O.3    89  SER89      -0.2180
    138  N         11.4460   10.2780   40.2100 N.3    91  TYR91      -0.1227
    139  CA        10.6900    9.0200   40.2040 C.3    91  TYR91       0.1736
    140  C         11.2980    8.0050   39.2410 C.2    91  TYR91       0.2595
    141  O         11.4030    6.8240   39.5690 O.2    91  TYR91      -0.2718
    142  CB         9.2150    9.2710   39.8620 C.3    91  TYR91       0.0548
    143  CG         8.3590    8.0190   39.7840 C.ar   91  TYR91      -0.0200
    144  CD1        7.8120    7.4480   40.9340 C.ar   91  TYR91      -0.0009
    145  CD2        8.0850    7.4140   38.5560 C.ar   91  TYR91      -0.0009
    146  CE1        7.0230    6.2980   40.8640 C.ar   91  TYR91       0.0417
    147  CE2        7.2980    6.2650   38.4770 C.ar   91  TYR91       0.0417
    148  CZ         6.7720    5.7150   39.6330 C.ar   91  TYR91       0.1957
    149  OH         5.9950    4.5830   39.5550 O.3    91  TYR91      -0.2866
    150  N         11.7020    8.4750   38.0630 N.am   92  LYS92      -0.1980
    151  CA        12.3360    7.6200   37.0690 C.3    92  LYS92       0.1596
    152  C         13.7140    7.1920   37.5390 C.2    92  LYS92       0.2287
    153  O         13.9550    6.0040   37.7540 O.2    92  LYS92      -0.2864
    154  CB        12.4400    8.3240   35.7200 C.3    92  LYS92       0.0298
    155  CG        12.6760    7.3670   34.5630 C.3    92  LYS92       0.0038
    156  CD        12.7200    8.0730   33.2220 C.3    92  LYS92       0.0206
    157  CE        11.3660    8.6380   32.8370 C.3    92  LYS92       0.1093
    158  NZ        11.1100    9.9490   33.4970 N.3    92  LYS92      -0.1314
    159  N          7.6060   12.1840   41.4500 N.3   133  ASN133     -0.1225
    160  CA         7.2360   12.3080   40.0490 C.3   133  ASN133      0.1785
    161  C          7.2700   13.7700   39.6000 C.2   133  ASN133      0.2597
    162  O          7.4120   14.0520   38.4110 O.2   133  ASN133     -0.2718
    163  CB         5.8310   11.7300   39.8450 C.3   133  ASN133      0.1169
    164  CG         5.7040   10.9020   38.5800 C.2   133  ASN133      0.2627
    165  OD1        5.2300    9.7660   38.6230 O.2   133  ASN133     -0.2716
    166  ND2        6.1150   11.4650   37.4500 N.am  133  ASN133     -0.0877
    167  N          7.1400   14.6880   40.5580 N.am  134  ASN134     -0.1974
    168  CA         7.1550   16.1250   40.2800 C.3   134  ASN134      0.1688
    169  C          8.5330   16.7690   40.3940 C.2   134  ASN134      0.2292
    170  O          8.7450   17.8690   39.8900 O.2   134  ASN134     -0.2864
    171  CB         6.1740   16.8660   41.1930 C.3   134  ASN134      0.1181
    172  CG         4.7310   16.7190   40.7510 C.2   134  ASN134      0.2629
    173  OD1        3.8590   16.4010   41.5560 O.2   134  ASN134     -0.2716
    174  ND2        4.4710   16.9550   39.4720 N.am  134  ASN134     -0.0877
    175  N         11.7150   17.3680   39.1350 N.3   136  PHE136     -0.1241
    176  CA        12.5050   17.2510   37.9170 C.3   136  PHE136      0.1605
    177  C         13.9640   17.5670   38.1750 C.2   136  PHE136      0.2264
    178  O         14.2930   18.5670   38.8160 O.2   136  PHE136     -0.2867
    179  CB        11.9150   18.1170   36.8080 C.3   136  PHE136      0.0534
    180  CG        10.5230   17.7270   36.4520 C.ar  136  PHE136     -0.0203
    181  CD1        9.4560   18.5650   36.7440 C.ar  136  PHE136     -0.0042
    182  CD2       10.2710   16.4840   35.8810 C.ar  136  PHE136     -0.0042
    183  CE1        8.1610   18.1870   36.4340 C.ar  136  PHE136     -0.0003
    184  CE2        8.9840   16.0980   35.5780 C.ar  136  PHE136     -0.0003
    185  CZ         7.9270   16.9500   35.8570 C.ar  136  PHE136     -0.0000
    186  N          5.1530   20.9910   38.3510 N.3   147  ASP147     -0.1239
    187  CA         3.9670   21.8060   38.0960 C.3   147  ASP147      0.1674
    188  C          3.0950   22.0420   39.3210 C.2   147  ASP147      0.2266
    189  O          3.1210   21.2760   40.2880 O.2   147  ASP147     -0.2867
    190  CB         3.1220   21.1760   36.9940 C.3   147  ASP147      0.1410
    191  CG         2.7720   19.7400   37.2850 C.2   147  ASP147      0.3668
    192  OD1        3.2250   18.8540   36.5370 O.co2 147  ASP147     -0.2456
    193  OD2        2.0450   19.4860   38.2700 O.co2 147  ASP147     -0.2456
@<TRIPOS>BOND
     1    47    45    1
     2    46    45    1
     3    45    42    1
     4     1     2    1
     5    32    31    2
     6     8     6    1
     7     6     5    1
     8    31    30    1
     9    42    41    1
    10    42    43    1
    11   114   115   ar
    12   114   112   ar
    13   117   115   ar
    14   117   119   ar
    15   115   113   ar
    16    44    43    2
    17   112   111   ar
    18   119   118   ar
    19     2     5    1
    20     2     3    1
    21    41    38   am
    22   113   111   ar
    23   113   116   ar
    24   111   110    1
    25   118   116   ar
    26    43    48   am
    27    36    37    1
    28   110   107    1
    29     5     7    1
    30    50    51    2
    31    50    49    1
    32    38    37    1
    33    38    39    2
    34    37    40    1
    35    30    29    1
    36    30    33    1
    37    48    49    1
    38     9     3   am
    39     9    10    1
    40     3     4    2
    41    82    83    1
    42    12    11    2
    43    49    52    1
    44    85    84    2
    45    84    83    1
    46   107   106    1
    47   107   108    1
    48    83    86    1
    49    10    11    1
    50    93    92    2
    51   106    99   am
    52    33    34    1
    53    33    35    1
    54    11    13   am
    55    18    17    1
    56    90    91    1
    57   108   109    2
    58   108   120   am
    59    52    53    1
    60    92    91    1
    61    92    97   am
    62    99    98    1
    63    99   100    2
    64   120   121    1
    65    98    97    1
    66    98   101    1
    67    13    14    1
    68    86    87    1
    69    86    88    1
    70    91    94    1
    71   122   123    2
    72   122   121    1
    73    53    54    1
    74    17    14    1
    75    14    15    1
    76    87    89    1
    77   121   124    1
    78   101   102    1
    79    54    55    1
    80    96    94    1
    81    94    95    1
    82   131   130    1
    83    15    16    2
    84    15    19   am
    85   157   156    1
    86   157   158    1
    87   124   125    1
    88    19    20    1
    89   102   103    1
    90   156   155    1
    91    55    56    1
    92   126   127    1
    93   130   127    1
    94    22    21    2
    95   127   128    1
    96   103   105   am
    97   103   104    2
    98    20    21    1
    99   155   154    1
   100    21    23   am
   101    81    79    1
   102    25    26    2
   103    25    24    1
   104    80    79    1
   105   128   132   am
   106   128   129    2
   107    79    78    1
   108   184   185   ar
   109   184   182   ar
   110   132   133    1
   111   154   151    1
   112    72    71    1
   113    23    24    1
   114   185   183   ar
   115   182   180   ar
   116    62    63    1
   117    62    61    1
   118    24    27    1
   119    27    28    1
   120    64    63   ar
   121   183   181   ar
   122   180   181   ar
   123   180   179    1
   124   192   191   ar
   125    76    77    2
   126    76    75    1
   127    78    75    1
   128    63    65   ar
   129    61    58    1
   130   179   176    1
   131   136   133    1
   132   136   137    1
   133   133   134    1
   134   190   191    1
   135   190   187    1
   136    70    71    1
   137    70    67    1
   138    71    73    1
   139   151   152    1
   140   151   150    1
   141    75    74    1
   142   191   193   ar
   143    59    58    1
   144    59    60    2
   145   166   164   am
   146   135   134    2
   147   152   153    2
   148    58    57    1
   149   176   177    1
   150   176   175    1
   151   150   140   am
   152   187   186    1
   153   187   188    1
   154   177   178    2
   155    68    69    2
   156    68    67    1
   157    67    66    1
   158   162   161    2
   159   147   145   ar
   160   147   148   ar
   161   145   143   ar
   162   164   165    2
   163   164   163    1
   164   140   141    2
   165   140   139    1
   166   188   189    2
   167   174   172   am
   168   149   148    1
   169   161   160    1
   170   161   167   am
   171   148   146   ar
   172   143   142    1
   173   143   144   ar
   174   163   160    1
   175   142   139    1
   176   170   169    2
   177   160   159    1
   178   139   138    1
   179   168   169    1
   180   168   167    1
   181   168   171    1
   182   172   171    1
   183   172   173    2
   184   146   144   ar
