@<TRIPOS>MOLECULE
tmp/3on2B00.pdb
 164 157 0 0 0
SMALL
GASTEIGER

@<TRIPOS>ATOM
      1  N         36.1390   47.1590   -1.8780 N.3    65  PHE65      -0.1241
      2  CA        36.7140   46.9300   -0.5460 C.3    65  PHE65       0.1605
      3  C         36.8420   48.2120    0.2390 C.2    65  PHE65       0.2264
      4  O         36.5630   48.2310    1.4350 O.2    65  PHE65      -0.2867
      5  CB        38.0560   46.1940   -0.6160 C.3    65  PHE65       0.0534
      6  CG        37.9270   44.7210   -0.7910 C.ar   65  PHE65      -0.0203
      7  CD1       37.3850   43.9250    0.2270 C.ar   65  PHE65      -0.0042
      8  CD2       38.3270   44.1250   -1.9810 C.ar   65  PHE65      -0.0042
      9  CE1       37.2700   42.5400    0.0560 C.ar   65  PHE65      -0.0003
     10  CE2       38.2150   42.7690   -2.1760 C.ar   65  PHE65      -0.0003
     11  CZ        37.6920   41.9660   -1.1560 C.ar   65  PHE65      -0.0000
     12  N         33.3110   49.0360    1.4710 N.3    68  LEU68      -0.1245
     13  CA        32.9590   48.1470    2.5660 C.3    68  LEU68       0.1561
     14  C         33.6620   48.5740    3.8650 C.2    68  LEU68       0.2260
     15  O         33.0370   48.6510    4.9070 O.2    68  LEU68      -0.2867
     16  CB        33.3150   46.6880    2.2260 C.3    68  LEU68       0.0270
     17  CG        33.1190   45.7160    3.3950 C.3    68  LEU68       0.0019
     18  CD1       31.6400   45.6310    3.8010 C.3    68  LEU68       0.0001
     19  CD2       33.6250   44.3730    2.9760 C.3    68  LEU68       0.0001
     20  N         31.7610   49.6850    7.2670 N.3    72  LEU72      -0.1245
     21  CA        32.0490   49.0930    8.5860 C.3    72  LEU72       0.1561
     22  C         32.4820   50.1650    9.6110 C.2    72  LEU72       0.2260
     23  O         32.0210   50.1600   10.7530 O.2    72  LEU72      -0.2867
     24  CB        33.1230   48.0060    8.4660 C.3    72  LEU72       0.0270
     25  CG        32.7330   46.7960    7.6310 C.3    72  LEU72       0.0019
     26  CD1       33.8880   45.7690    7.5540 C.3    72  LEU72       0.0001
     27  CD2       31.4100   46.1500    8.1400 C.3    72  LEU72       0.0001
     28  N         30.0640   44.8730   17.8920 N.3    87  PHE87      -0.1241
     29  CA        29.9540   43.5510   17.2230 C.3    87  PHE87       0.1605
     30  C         28.6410   43.4200   16.4470 C.2    87  PHE87       0.2264
     31  O         28.6230   42.9430   15.3160 O.2    87  PHE87      -0.2867
     32  CB        30.0340   42.3820   18.2310 C.3    87  PHE87       0.0534
     33  CG        31.4290   41.9930   18.6500 C.ar   87  PHE87      -0.0203
     34  CD1       32.4430   42.9400   18.7850 C.ar   87  PHE87      -0.0042
     35  CD2       31.7050   40.6520   18.9960 C.ar   87  PHE87      -0.0042
     36  CE1       33.7340   42.5570   19.2250 C.ar   87  PHE87      -0.0003
     37  CE2       32.9630   40.2710   19.4270 C.ar   87  PHE87      -0.0003
     38  CZ        33.9890   41.2360   19.5400 C.ar   87  PHE87      -0.0000
     39  N         28.5830   45.8320   13.3580 N.3    90  LEU90      -0.1231
     40  CA        29.4490   45.3690   12.2720 C.3    90  LEU90       0.1693
     41  C         28.7460   44.2780   11.4620 C.2    90  LEU90       0.2591
     42  O         28.7470   44.3150   10.2260 O.2    90  LEU90      -0.2718
     43  CB        30.8020   44.8600   12.8030 C.3    90  LEU90       0.0284
     44  CG        31.8850   45.8760   13.1880 C.3    90  LEU90       0.0019
     45  CD1       33.0550   45.1790   13.8250 C.3    90  LEU90       0.0001
     46  CD2       32.3670   46.6450   11.9580 C.3    90  LEU90       0.0001
     47  N         28.1090   43.3320   12.1530 N.am   91  ALA91      -0.1980
     48  CA        27.4440   42.1990   11.4820 C.3    91  ALA91       0.1597
     49  C         26.3160   42.7280   10.6210 C.2    91  ALA91       0.2287
     50  O         26.2120   42.3910    9.4480 O.2    91  ALA91      -0.2864
     51  CB        26.8980   41.2350   12.5220 C.3    91  ALA91       0.0319
     52  N         27.7360   44.6210    7.6170 N.3    94  TYR94      -0.1241
     53  CA        28.2360   43.6610    6.6230 C.3    94  TYR94       0.1605
     54  C         27.1240   43.0440    5.7710 C.2    94  TYR94       0.2264
     55  O         27.1890   43.0550    4.5200 O.2    94  TYR94      -0.2867
     56  CB        29.0410   42.5300    7.2620 C.3    94  TYR94       0.0534
     57  CG        29.5200   41.6000    6.1630 C.ar   94  TYR94      -0.0201
     58  CD1       30.6210   41.9570    5.3870 C.ar   94  TYR94      -0.0009
     59  CD2       28.8140   40.4290    5.8310 C.ar   94  TYR94      -0.0009
     60  CE1       31.0530   41.1670    4.3620 C.ar   94  TYR94       0.0417
     61  CE2       29.2440   39.6120    4.7770 C.ar   94  TYR94       0.0417
     62  CZ        30.3770   40.0100    4.0440 C.ar   94  TYR94       0.1957
     63  OH        30.8590   39.2960    2.9840 O.3    94  TYR94      -0.2866
     64  N         35.4410   39.4360   -4.0890 N.3   108  TYR108     -0.1241
     65  CA        35.9960   38.2040   -3.5250 C.3   108  TYR108      0.1605
     66  C         36.6670   37.3270   -4.5620 C.2   108  TYR108      0.2264
     67  O         37.7090   36.7580   -4.2870 O.2   108  TYR108     -0.2867
     68  CB        34.9300   37.4240   -2.7540 C.3   108  TYR108      0.0534
     69  CG        34.4720   38.1180   -1.4880 C.ar  108  TYR108     -0.0201
     70  CD1       35.2900   39.0230   -0.8330 C.ar  108  TYR108     -0.0009
     71  CD2       33.2050   37.8710   -0.9540 C.ar  108  TYR108     -0.0009
     72  CE1       34.8710   39.6520    0.3370 C.ar  108  TYR108      0.0417
     73  CE2       32.7870   38.4900    0.2150 C.ar  108  TYR108      0.0417
     74  CZ        33.6060   39.3880    0.8430 C.ar  108  TYR108      0.1957
     75  OH        33.1650   40.0180    1.9940 O.3   108  TYR108     -0.2866
     76  N         39.9630   39.2680   -5.6320 N.3   111  LYS111     -0.1231
     77  CA        40.9590   39.2670   -4.5500 C.3   111  LYS111      0.1693
     78  C         41.6730   37.9230   -4.3950 C.2   111  LYS111      0.2592
     79  O         42.8290   37.8850   -3.9720 O.2   111  LYS111     -0.2718
     80  CB        40.3360   39.6540   -3.2030 C.3   111  LYS111      0.0285
     81  CG        41.3690   39.7960   -2.0690 C.3   111  LYS111      0.0035
     82  CD        40.7490   40.0390   -0.6990 C.3   111  LYS111      0.0206
     83  CE        41.8170   40.0080    0.3880 C.3   111  LYS111      0.1093
     84  NZ        42.5300   38.7060    0.3610 N.3   111  LYS111     -0.1314
     85  N         40.9910   36.8260   -4.7220 N.am  112  HIS112     -0.1976
     86  CA        41.5820   35.5110   -4.4850 C.3   112  HIS112      0.1656
     87  C         42.0000   34.7440   -5.7500 C.2   112  HIS112      0.2291
     88  O         42.4500   33.5940   -5.6650 O.2   112  HIS112     -0.2864
     89  CB        40.7100   34.6910   -3.5110 C.3   112  HIS112      0.0771
     90  CG        40.6930   35.2500   -2.1180 C.ar  112  HIS112      0.0820
     91  ND1       39.6220   35.9570   -1.6050 N.ar  112  HIS112     -0.2267
     92  CD2       41.6330   35.2360   -1.1420 C.ar  112  HIS112      0.1154
     93  CE1       39.9000   36.3480   -0.3710 C.ar  112  HIS112      0.1986
     94  NE2       41.1120   35.9170   -0.0630 N.ar  112  HIS112     -0.2212
     95  N         41.2770   44.5760    0.6500 N.3   124  GLY124     -0.1225
     96  CA        40.5500   43.4720    1.3100 C.3   124  GLY124      0.1811
     97  C         41.0230   43.2260    2.7430 C.2   124  GLY124      0.2280
     98  O         40.1980   43.0010    3.6800 O.2   124  GLY124     -0.2866
     99  N         39.5370   45.7440    5.5260 N.3   127  SER127     -0.1217
    100  CA        38.2160   45.4430    6.0830 C.3   127  SER127      0.1889
    101  C         38.3930   44.4330    7.2310 C.2   127  SER127      0.2288
    102  O         37.8220   44.5980    8.3090 O.2   127  SER127     -0.2866
    103  CB        37.2490   44.9020    4.9970 C.3   127  SER127      0.2089
    104  OG        37.0670   45.7880    3.8550 O.3   127  SER127     -0.2183
    105  N         37.9920   44.6640   11.7380 N.3   130  THR130     -0.1218
    106  CA        37.2750   43.6680   12.5140 C.3   130  THR130      0.1862
    107  C         38.1480   43.1080   13.6280 C.2   130  THR130      0.2287
    108  O         37.7280   43.0580   14.7760 O.2   130  THR130     -0.2866
    109  CB        36.7730   42.5270   11.6220 C.3   130  THR130      0.1770
    110  OG1       35.9680   43.0770   10.5750 O.3   130  THR130     -0.2211
    111  CG2       35.9580   41.5300   12.4310 C.3   130  THR130      0.0375
    112  N         38.6620   45.5470   16.4910 N.3   133  ILE133     -0.1231
    113  CA        37.4470   45.6000   17.3180 C.3   133  ILE133      0.1692
    114  C         37.4100   44.4090   18.3040 C.2   133  ILE133      0.2591
    115  O         37.0860   44.5870   19.4790 O.2   133  ILE133     -0.2718
    116  CB        36.1750   45.6420   16.4490 C.3   133  ILE133      0.0266
    117  CG1       36.1100   46.9280   15.5920 C.3   133  ILE133      0.0019
    118  CG2       34.9080   45.4730   17.2970 C.3   133  ILE133      0.0020
    119  CD1       35.7330   48.1830   16.3400 C.3   133  ILE133      0.0001
    120  N         37.7880   43.2200   17.8280 N.am  134  VAL134     -0.1980
    121  CA        37.8590   42.0030   18.6730 C.3   134  VAL134      0.1595
    122  C         38.9590   42.1700   19.7340 C.2   134  VAL134      0.2287
    123  O         38.7550   41.8680   20.9300 O.2   134  VAL134     -0.2864
    124  CB        38.1110   40.7240   17.8180 C.3   134  VAL134      0.0276
    125  CG1       38.4630   39.5020   18.7020 C.3   134  VAL134      0.0022
    126  CG2       36.9130   40.4130   16.9250 C.3   134  VAL134      0.0022
    127  N         33.4460   35.0780   12.7960 N.3   155  ALA155     -0.1231
    128  CA        32.4110   36.0850   12.6270 C.3   155  ALA155      0.1694
    129  C         32.1680   36.3320   11.1420 C.2   155  ALA155      0.2592
    130  O         31.0160   36.3800   10.6880 O.2   155  ALA155     -0.2718
    131  CB        32.8080   37.3870   13.3320 C.3   155  ALA155      0.0304
    132  N         33.2520   36.4740   10.3770 N.am  156  PHE156     -0.1976
    133  CA        33.1220   36.7130    8.9320 C.3   156  PHE156      0.1639
    134  C         32.3950   35.5580    8.2450 C.2   156  PHE156      0.2290
    135  O         31.4580   35.7920    7.4640 O.2   156  PHE156     -0.2864
    136  CB        34.4850   37.0170    8.2960 C.3   156  PHE156      0.0560
    137  CG        34.4760   37.1240    6.7910 C.ar  156  PHE156     -0.0200
    138  CD1       33.5110   37.8660    6.1180 C.ar  156  PHE156     -0.0042
    139  CD2       35.5020   36.5140    6.0420 C.ar  156  PHE156     -0.0042
    140  CE1       33.5350   37.9690    4.7050 C.ar  156  PHE156     -0.0003
    141  CE2       35.5320   36.6120    4.6370 C.ar  156  PHE156     -0.0003
    142  CZ        34.5470   37.3420    3.9700 C.ar  156  PHE156     -0.0000
    143  N         28.5040   35.7290    9.1840 N.3   159  PHE159     -0.1241
    144  CA        27.7220   36.7800    8.5410 C.3   159  PHE159      0.1605
    145  C         27.7730   36.7390    7.0160 C.2   159  PHE159      0.2264
    146  O         26.7930   37.0810    6.3590 O.2   159  PHE159     -0.2867
    147  CB        27.9890   38.1390    9.2300 C.3   159  PHE159      0.0534
    148  CG        27.5700   38.0970   10.6580 C.ar  159  PHE159     -0.0203
    149  CD1       26.2140   38.0170   10.9920 C.ar  159  PHE159     -0.0042
    150  CD2       28.5130   38.0010   11.6750 C.ar  159  PHE159     -0.0042
    151  CE1       25.7960   37.8910   12.3590 C.ar  159  PHE159     -0.0003
    152  CE2       28.1230   37.8830   13.0190 C.ar  159  PHE159     -0.0003
    153  CZ        26.7600   37.8160   13.3600 C.ar  159  PHE159     -0.0000
    154  N         26.8930   34.2660   19.0550 N.3   186  PHE186     -0.1241
    155  CA        28.3230   34.5600   18.9450 C.3   186  PHE186      0.1605
    156  C         28.8340   35.3140   20.1910 C.2   186  PHE186      0.2264
    157  O         29.8380   34.9240   20.8020 O.2   186  PHE186     -0.2867
    158  CB        28.5890   35.3630   17.6460 C.3   186  PHE186      0.0534
    159  CG        30.0800   35.5660   17.3180 C.ar  186  PHE186     -0.0203
    160  CD1       30.9010   34.4800   17.0170 C.ar  186  PHE186     -0.0042
    161  CD2       30.6290   36.8530   17.2590 C.ar  186  PHE186     -0.0042
    162  CE1       32.2440   34.6620   16.6950 C.ar  186  PHE186     -0.0003
    163  CE2       32.0050   37.0470   16.9370 C.ar  186  PHE186     -0.0003
    164  CZ        32.7960   35.9410   16.6520 C.ar  186  PHE186     -0.0000
@<TRIPOS>BOND
     1    87    88    2
     2    87    86    1
     3    76    77    1
     4    85    86    1
     5    85    78   am
     6    66    67    2
     7    66    65    1
     8    77    78    1
     9    77    80    1
    10    86    89    1
    11    78    79    2
    12    64    65    1
    13    65    68    1
    14    89    90    1
    15    80    81    1
    16    68    69    1
    17    10     8   ar
    18    10    11   ar
    19    90    91   ar
    20    90    92   ar
    21    81    82    1
    22     8     6   ar
    23     1     2    1
    24    91    93   ar
    25    69    71   ar
    26    69    70   ar
    27    11     9   ar
    28    92    94   ar
    29    71    73   ar
    30    70    72   ar
    31     6     5    1
    32     6     7   ar
    33    82    83    1
    34     5     2    1
    35     2     3    1
    36    93    94   ar
    37     9     7   ar
    38    73    74   ar
    39     3     4    2
    40    72    74   ar
    41    84    83    1
    42    95    96    1
    43    74    75    1
    44    96    97    1
    45    12    13    1
    46    16    13    1
    47    16    17    1
    48    13    14    1
    49    97    98    2
    50    19    17    1
    51    63    62    1
    52    17    18    1
    53   104   103    1
    54    14    15    2
    55   142   141   ar
    56   142   140   ar
    57    62    60   ar
    58    62    61   ar
    59    60    58   ar
    60    55    54    2
    61   141   139   ar
    62   140   138   ar
    63    61    59   ar
    64   103   100    1
    65    58    57   ar
    66    99   100    1
    67    54    53    1
    68    59    57   ar
    69   139   137   ar
    70   100   101    1
    71   138   137   ar
    72    57    56    1
    73   146   145    2
    74    53    56    1
    75    53    52    1
    76   137   136    1
    77   145   144    1
    78   101   102    2
    79    20    21    1
    80   135   134    2
    81    26    25    1
    82    25    27    1
    83    25    24    1
    84   134   133    1
    85   136   133    1
    86    24    21    1
    87   144   143    1
    88   144   147    1
    89    21    22    1
    90   133   132    1
    91   147   148    1
    92    50    49    2
    93    22    23    2
    94    42    41    2
    95   132   129   am
    96   110   109    1
    97    49    48    1
    98   148   149   ar
    99   148   150   ar
   100   130   129    2
   101   149   151   ar
   102   129   128    1
   103    41    47   am
   104    41    40    1
   105    48    47    1
   106    48    51    1
   107   109   111    1
   108   109   106    1
   109   150   152   ar
   110   105   106    1
   111    46    44    1
   112    40    43    1
   113    40    39    1
   114   151   153   ar
   115   106   107    1
   116   128   127    1
   117   128   131    1
   118    43    44    1
   119   152   153   ar
   120    44    45    1
   121   107   108    2
   122    31    30    2
   123   117   119    1
   124   117   116    1
   125    30    29    1
   126   116   118    1
   127   116   113    1
   128   112   113    1
   129   164   162   ar
   130   164   163   ar
   131   162   160   ar
   132   126   124    1
   133   163   161   ar
   134   160   159   ar
   135    29    28    1
   136    29    32    1
   137   161   159   ar
   138   113   114    1
   139   159   158    1
   140   158   155    1
   141   124   121    1
   142   124   125    1
   143   120   114   am
   144   120   121    1
   145    32    33    1
   146   114   115    2
   147    33    34   ar
   148    33    35   ar
   149   121   122    1
   150    34    36   ar
   151   155   154    1
   152   155   156    1
   153    35    37   ar
   154    36    38   ar
   155    37    38   ar
   156   122   123    2
   157   156   157    2
