@<TRIPOS>MOLECULE
tmp/3ondB04.pdb
 164 153 0 0 0
SMALL
GASTEIGER

@<TRIPOS>ATOM
      1  N        -30.4600    1.6890    0.5900 N.3    64  LEU64      -0.1231
      2  CA       -29.0320    1.4320    0.7600 C.3    64  LEU64       0.1693
      3  C        -28.7710   -0.0830    0.5830 C.2    64  LEU64       0.2592
      4  O        -29.5790   -0.8650    1.0570 O.2    64  LEU64      -0.2718
      5  CB       -28.5270    1.9160    2.1300 C.3    64  LEU64       0.0284
      6  CG       -28.8160    3.3400    2.6270 C.3    64  LEU64       0.0019
      7  CD1      -28.3760    3.5900    4.0650 C.3    64  LEU64       0.0001
      8  CD2      -28.2890    4.3570    1.7190 C.3    64  LEU64       0.0001
      9  N        -27.6920   -0.4910   -0.1200 N.am   65  HIS65      -0.1976
     10  CA       -27.3040   -1.9000   -0.3270 C.3    65  HIS65       0.1656
     11  C        -27.5580   -2.6990    0.9420 C.2    65  HIS65       0.2291
     12  O        -27.1340   -2.2740    1.9900 O.2    65  HIS65      -0.2864
     13  CB       -25.8100   -1.9590   -0.6480 C.3    65  HIS65       0.0771
     14  CG       -25.4510   -1.2120   -1.8830 C.ar   65  HIS65       0.0820
     15  ND1      -25.7110   -1.7070   -3.1440 N.ar   65  HIS65      -0.2267
     16  CD2      -24.9000   -0.0020   -2.0140 C.ar   65  HIS65       0.1154
     17  CE1      -25.2890   -0.7880   -3.9930 C.ar   65  HIS65       0.1986
     18  NE2      -24.7900    0.2460   -3.3320 N.ar   65  HIS65      -0.2212
     19  N        -26.5230   -4.7890    3.1470 N.3    67  THR67      -0.1218
     20  CA       -25.3620   -5.3510    3.7370 C.3    67  THR67       0.1862
     21  C        -25.5040   -5.3820    5.2570 C.2    67  THR67       0.2287
     22  O        -26.4070   -4.8030    5.8460 O.2    67  THR67      -0.2866
     23  CB       -24.1510   -4.5170    3.3700 C.3    67  THR67       0.1770
     24  OG1      -24.3530   -3.2340    3.9650 O.3    67  THR67      -0.2211
     25  CG2      -23.9580   -4.3990    1.8540 C.3    67  THR67       0.0375
     26  N        -23.6050   -3.6460    7.1290 N.3    69  GLN69      -0.1231
     27  CA       -23.4690   -2.2660    7.4930 C.3    69  GLN69       0.1698
     28  C        -24.8020   -1.5440    7.4690 C.2    69  GLN69       0.2592
     29  O        -25.1500   -0.8110    8.3910 O.2    69  GLN69      -0.2718
     30  CB       -22.4170   -1.5700    6.6050 C.3    69  GLN69       0.0381
     31  CG       -21.0180   -2.0650    6.8150 C.3    69  GLN69       0.0905
     32  CD       -20.7940   -3.4800    6.3460 C.2    69  GLN69       0.2608
     33  OE1      -21.2290   -3.8370    5.2430 O.2    69  GLN69      -0.2717
     34  NE2      -20.1680   -4.2730    7.1740 N.am   69  GLN69      -0.0878
     35  N        -25.5820   -1.7980    6.4170 N.am   70  THR70      -0.1953
     36  CA       -26.8970   -1.2400    6.3080 C.3    70  THR70       0.1897
     37  C        -27.8030   -1.7560    7.4260 C.2    70  THR70       0.2313
     38  O        -28.6640   -1.0360    7.9150 O.2    70  THR70      -0.2863
     39  CB       -27.4600   -1.4860    4.9350 C.3    70  THR70       0.1794
     40  OG1      -26.6690   -0.6570    4.0640 O.3    70  THR70      -0.2208
     41  CG2      -28.9300   -1.0950    4.8080 C.3    70  THR70       0.0378
     42  N        -30.3860   -1.4580   -3.5120 N.3    89  CYS89      -0.1235
     43  CA       -30.2700   -0.6740   -4.7340 C.3    89  CYS89       0.1677
     44  C        -29.3690   -1.3330   -5.8040 C.2    89  CYS89       0.2270
     45  O        -29.0620   -0.6820   -6.7840 O.2    89  CYS89      -0.2867
     46  CB       -29.7730    0.7000   -4.3810 C.3    89  CYS89       0.0956
     47  SG       -28.1180    0.7420   -3.6860 S.3    89  CYS89      -0.0801
     48  N        -29.9260    5.4540   -2.4830 N.3   142  ASP142     -0.1239
     49  CA       -28.5650    5.2770   -2.9540 C.3   142  ASP142      0.1674
     50  C        -28.6550    5.0150   -4.4580 C.2   142  ASP142      0.2266
     51  O        -28.9980    3.9100   -4.8880 O.2   142  ASP142     -0.2867
     52  CB       -27.8730    4.1130   -2.2180 C.3   142  ASP142      0.1410
     53  CG       -26.4670    3.8520   -2.6280 C.2   142  ASP142      0.3668
     54  OD1      -26.0870    4.1240   -3.7620 O.co2 142  ASP142     -0.2456
     55  OD2      -25.7690    3.2170   -1.8450 O.co2 142  ASP142     -0.2456
     56  N        -27.2660    8.8950   -0.8500 N.3   208  GLU208     -0.1231
     57  CA       -25.9600    8.3670   -0.5300 C.3   208  GLU208      0.1699
     58  C        -24.8430    8.7020   -1.4850 C.2   208  GLU208      0.2592
     59  O        -23.7390    8.8280   -1.0150 O.2   208  GLU208     -0.2718
     60  CB       -26.0800    6.8350   -0.4610 C.3   208  GLU208      0.0402
     61  CG       -24.8420    6.0970   -0.0070 C.3   208  GLU208      0.1161
     62  CD       -24.4670    6.2050    1.4490 C.2   208  GLU208      0.3649
     63  OE1      -25.2030    6.7930    2.2360 O.co2 208  GLU208     -0.2457
     64  OE2      -23.3580    5.6680    1.8460 O.co2 208  GLU208     -0.2457
     65  N        -25.0710    8.7420   -2.8090 N.am  209  THR209     -0.1953
     66  CA       -23.9370    8.6080   -3.6930 C.3   209  THR209      0.1897
     67  C        -23.9140    9.6380   -4.7860 C.2   209  THR209      0.2313
     68  O        -24.9260   10.2080   -5.1720 O.2   209  THR209     -0.2863
     69  CB       -23.8410    7.1810   -4.2580 C.3   209  THR209      0.1794
     70  OG1      -22.4750    6.8540   -4.6050 O.3   209  THR209     -0.2208
     71  CG2      -24.7830    6.8740   -5.4210 C.3   209  THR209      0.0378
     72  N        -18.2860   11.7660    4.3290 N.3   238  LYS238     -0.1245
     73  CA       -18.7380   10.7480    3.4190 C.3   238  LYS238      0.1561
     74  C        -17.7830   10.6920    2.1820 C.2   238  LYS238      0.2260
     75  O        -16.9510    9.8140    2.1100 O.2   238  LYS238     -0.2867
     76  CB       -20.2080   10.9980    3.0450 C.3   238  LYS238      0.0271
     77  CG       -20.8790    9.7540    2.4740 C.3   238  LYS238      0.0035
     78  CD       -20.3650    9.3220    1.1050 C.3   238  LYS238      0.0206
     79  CE       -21.1820    8.1570    0.5680 C.3   238  LYS238      0.1093
     80  NZ       -20.8170    7.9150   -0.8570 N.3   238  LYS238     -0.1314
     81  N        -15.6110    7.3790    2.7350 N.3   242  ASP242     -0.1225
     82  CA       -16.2250    6.2450    2.0060 C.3   242  ASP242      0.1805
     83  C        -15.7440    6.1460    0.5650 C.2   242  ASP242      0.2597
     84  O        -15.2160    5.1210    0.1800 O.2   242  ASP242     -0.2718
     85  CB       -17.7430    6.4290    2.1680 C.3   242  ASP242      0.1424
     86  CG       -18.6220    5.5990    1.2840 C.2   242  ASP242      0.3668
     87  OD1      -18.3090    5.2850    0.1400 O.co2 242  ASP242     -0.2456
     88  OD2      -19.7200    5.2760    1.7870 O.co2 242  ASP242     -0.2456
     89  N        -15.8680    7.2160   -0.2010 N.am  243  ASN243     -0.1974
     90  CA       -15.6370    7.0710   -1.6030 C.3   243  ASN243      0.1688
     91  C        -14.1620    6.6930   -1.8640 C.2   243  ASN243      0.2292
     92  O        -13.8390    5.9510   -2.7580 O.2   243  ASN243     -0.2864
     93  CB       -16.0180    8.3350   -2.3700 C.3   243  ASN243      0.1181
     94  CG       -17.4950    8.7230   -2.2370 C.2   243  ASN243      0.2629
     95  OD1      -18.1210    8.5040   -1.1900 O.2   243  ASN243     -0.2716
     96  ND2      -18.0680    9.3190   -3.3030 N.am  243  ASN243     -0.0877
     97  N        -18.1710    2.2090  -10.3410 N.3   352  GLY352     -0.1225
     98  CA       -18.8450    3.4830  -10.3740 C.3   352  GLY352      0.1811
     99  C        -20.3240    3.3880  -10.3450 C.2   352  GLY352      0.2280
    100  O        -20.9500    3.4910   -9.2610 O.2   352  GLY352     -0.2866
    101  N        -21.6210   -2.8040   -9.8680 N.3   398  LEU398     -0.1245
    102  CA       -20.6270   -2.5140   -8.7820 C.3   398  LEU398      0.1561
    103  C        -19.8850   -3.7500   -8.3400 C.2   398  LEU398      0.2260
    104  O        -20.4620   -4.6520   -7.7200 O.2   398  LEU398     -0.2867
    105  CB       -21.3120   -1.9110   -7.5680 C.3   398  LEU398      0.0270
    106  CG       -22.0740   -0.6200   -7.7490 C.3   398  LEU398      0.0019
    107  CD1      -22.5470   -0.0620   -6.4140 C.3   398  LEU398      0.0001
    108  CD2      -21.3030    0.4310   -8.5520 C.3   398  LEU398      0.0001
    109  N        -17.4400   -4.1730   -6.1110 N.3   400  ASN400     -0.1225
    110  CA       -17.0250   -4.3360   -4.7200 C.3   400  ASN400      0.1785
    111  C        -18.1050   -4.9800   -3.9100 C.2   400  ASN400      0.2597
    112  O        -17.8790   -5.8880   -3.1020 O.2   400  ASN400     -0.2718
    113  CB       -16.5420   -2.9860   -4.1500 C.3   400  ASN400      0.1169
    114  CG       -17.5510   -1.8740   -4.1560 C.2   400  ASN400      0.2627
    115  OD1      -18.4510   -1.8130   -5.0040 O.2   400  ASN400     -0.2716
    116  ND2      -17.4170   -0.9630   -3.1840 N.am  400  ASN400     -0.0877
    117  N        -19.3330   -4.5030   -4.1050 N.am  401  LEU401     -0.1980
    118  CA       -20.5020   -5.0730   -3.4750 C.3   401  LEU401      0.1596
    119  C        -20.9290   -6.3720   -4.1240 C.2   401  LEU401      0.2287
    120  O        -21.4870   -7.2370   -3.4690 O.2   401  LEU401     -0.2864
    121  CB       -21.6140   -4.0420   -3.5290 C.3   401  LEU401      0.0297
    122  CG       -21.3890   -2.9040   -2.4530 C.3   401  LEU401      0.0022
    123  CD1      -21.8880   -1.5730   -2.9530 C.3   401  LEU401      0.0001
    124  CD2      -21.9970   -3.2960   -1.1340 C.3   401  LEU401      0.0001
    125  N        -17.9960   -7.6360   -0.2860 N.3   405  THR405     -0.1203
    126  CA       -18.9900   -7.1970    0.7040 C.3   405  THR405      0.1994
    127  C        -19.0540   -5.6880    0.7650 C.2   405  THR405      0.2618
    128  O        -19.5200   -5.0980    1.7230 O.2   405  THR405     -0.2717
    129  CB       -18.7010   -7.7760    2.0800 C.3   405  THR405      0.1784
    130  OG1      -17.4880   -7.1780    2.5370 O.3   405  THR405     -0.2211
    131  CG2      -18.6180   -9.2890    2.0480 C.3   405  THR405      0.0376
    132  N        -18.5740   -4.9910   -0.2580 N.am  406  GLY406     -0.1942
    133  CA       -18.5030   -3.5690   -0.1750 C.3   406  GLY406      0.2014
    134  C        -17.5770   -3.0750    0.8970 C.2   406  GLY406      0.2638
    135  O        -16.7040   -3.7750    1.4130 O.2   406  GLY406     -0.2714
    136  N        -17.7550   -1.8100    1.2210 N.am  407  HIS407     -0.1973
    137  CA       -16.9330   -1.1500    2.2110 C.3   407  HIS407      0.1656
    138  C        -17.0720   -1.8270    3.5710 C.2   407  HIS407      0.2291
    139  O        -18.1000   -2.4270    3.8930 O.2   407  HIS407     -0.2864
    140  CB       -17.2940    0.2930    2.3520 C.3   407  HIS407      0.0771
    141  CG       -17.0840    1.0790    1.0960 C.ar  407  HIS407      0.0820
    142  ND1      -17.4970    2.3940    0.9000 N.ar  407  HIS407     -0.2267
    143  CD2      -16.4770    0.6720   -0.0490 C.ar  407  HIS407      0.1154
    144  CE1      -17.1640    2.7450   -0.3460 C.ar  407  HIS407      0.1986
    145  NE2      -16.5330    1.7310   -0.9110 N.ar  407  HIS407     -0.2212
    146  N        -18.3220    2.8380    6.7530 N.3   412  MET412     -0.1245
    147  CA       -19.7540    3.0040    6.5610 C.3   412  MET412      0.1570
    148  C        -20.4380    3.6450    7.7570 C.2   412  MET412      0.2261
    149  O        -21.4880    4.2400    7.5970 O.2   412  MET412     -0.2867
    150  CB       -20.4140    1.6800    6.2010 C.3   412  MET412      0.0387
    151  CG       -20.0230    1.0820    4.8320 C.3   412  MET412      0.0595
    152  SD       -19.9850    2.3100    3.5030 S.3   412  MET412     -0.1393
    153  CE       -21.6750    2.8230    3.4950 C.3   412  MET412      0.0692
    154  N        -23.0550    6.4690    7.2840 N.3   416  PHE416     -0.1241
    155  CA       -24.3860    6.2380    7.7930 C.3   416  PHE416      0.1605
    156  C        -24.7350    7.0690    8.9980 C.2   416  PHE416      0.2264
    157  O        -25.9230    7.3050    9.2320 O.2   416  PHE416     -0.2867
    158  CB       -24.5840    4.7400    8.0120 C.3   416  PHE416      0.0534
    159  CG       -24.6320    3.8980    6.7510 C.ar  416  PHE416     -0.0203
    160  CD1      -24.7630    4.4860    5.4880 C.ar  416  PHE416     -0.0042
    161  CD2      -24.5970    2.5260    6.8700 C.ar  416  PHE416     -0.0042
    162  CE1      -24.8880    3.6820    4.3770 C.ar  416  PHE416     -0.0003
    163  CE2      -24.7620    1.7340    5.7260 C.ar  416  PHE416     -0.0003
    164  CZ       -24.9000    2.3110    4.5190 C.ar  416  PHE416     -0.0000
@<TRIPOS>BOND
     1    98    99    1
     2    98    97    1
     3    99   100    2
     4   101   102    1
     5   102   103    1
     6   102   105    1
     7   108   106    1
     8   103   104    2
     9   106   105    1
    10   106   107    1
    11    45    44    2
    12   109   110    1
    13    44    43    1
    14    71    69    1
    15    68    67    2
    16   115   114    2
    17    51    50    2
    18    67    66    1
    19    43    46    1
    20    43    42    1
    21   110   113    1
    22   110   111    1
    23    70    69    1
    24    50    49    1
    25    46    47    1
    26    69    66    1
    27   114   113    1
    28   114   116   am
    29   119   118    1
    30   119   120    2
    31   117   111   am
    32   117   118    1
    33    17    18   ar
    34    17    15   ar
    35   111   112    2
    36    54    53   ar
    37    66    65    1
    38   121   118    1
    39   121   122    1
    40    18    16   ar
    41    96    94   am
    42    15    14   ar
    43    49    48    1
    44    49    52    1
    45   123   122    1
    46    65    58   am
    47    92    91    2
    48    53    52    1
    49    53    55   ar
    50   122   124    1
    51    93    94    1
    52    93    90    1
    53    94    95    2
    54    16    14   ar
    55    14    13    1
    56    91    90    1
    57    90    89    1
    58    58    59    2
    59    58    57    1
    60   145   144   ar
    61   145   143   ar
    62    80    79    1
    63    56    57    1
    64    13    10    1
    65    57    60    1
    66    60    61    1
    67   144   142   ar
    68    10     9    1
    69    10    11    1
    70   125   126    1
    71   132   133    1
    72   132   127   am
    73    89    83   am
    74   133   134    1
    75     9     3   am
    76   143   141   ar
    77    61    62    1
    78    87    86   ar
    79    84    83    2
    80    83    82    1
    81    79    78    1
    82     3     2    1
    83     3     4    2
    84     1     2    1
    85   126   127    1
    86   126   129    1
    87     2     5    1
    88   127   128    2
    89   134   136   am
    90   134   135    2
    91   142   141   ar
    92    11    12    2
    93   141   140    1
    94    78    77    1
    95   136   137    1
    96    86    88   ar
    97    86    85    1
    98    62    64   ar
    99    62    63   ar
   100     8     6    1
   101    25    23    1
   102    82    85    1
   103    82    81    1
   104   131   129    1
   105   129   130    1
   106    75    74    2
   107     5     6    1
   108    74    73    1
   109   137   140    1
   110   137   138    1
   111    77    76    1
   112     6     7    1
   113    76    73    1
   114    19    20    1
   115    23    20    1
   116    23    24    1
   117    73    72    1
   118   153   152    1
   119   152   151    1
   120   138   139    2
   121    20    21    1
   122    40    39    1
   123   162   164   ar
   124   162   160   ar
   125   164   163   ar
   126    41    39    1
   127   151   150    1
   128    39    36    1
   129    33    32    2
   130    21    22    2
   131   160   159   ar
   132   163   161   ar
   133   150   147    1
   134    36    35    1
   135    36    37    1
   136    32    31    1
   137    32    34   am
   138    35    28   am
   139   147   146    1
   140   147   148    1
   141    30    31    1
   142    30    27    1
   143   159   161   ar
   144   159   158    1
   145    26    27    1
   146   154   155    1
   147    37    38    2
   148    28    27    1
   149    28    29    2
   150   149   148    2
   151   155   158    1
   152   155   156    1
   153   156   157    2
