@<TRIPOS>MOLECULE
tmp/3oneB04.pdb
 122 115 0 0 0
SMALL
GASTEIGER

@<TRIPOS>ATOM
      1  N        -30.4300    1.8470    0.6770 N.3    64  LEU64      -0.1231
      2  CA       -29.0190    1.5530    0.8560 C.3    64  LEU64       0.1693
      3  C        -28.7450    0.0330    0.5800 C.2    64  LEU64       0.2592
      4  O        -29.5280   -0.8340    0.9840 O.2    64  LEU64      -0.2718
      5  CB       -28.5360    1.9880    2.2530 C.3    64  LEU64       0.0284
      6  CG       -28.7230    3.4140    2.7330 C.3    64  LEU64       0.0019
      7  CD1      -28.3710    3.5360    4.2480 C.3    64  LEU64       0.0001
      8  CD2      -27.9880    4.3660    1.9060 C.3    64  LEU64       0.0001
      9  N        -27.6190   -0.2830   -0.0640 N.am   65  HIS65      -0.1976
     10  CA       -27.2470   -1.6780   -0.3400 C.3    65  HIS65       0.1656
     11  C        -27.4620   -2.5190    0.9150 C.2    65  HIS65       0.2291
     12  O        -27.0430   -2.1230    1.9890 O.2    65  HIS65      -0.2864
     13  CB       -25.7810   -1.7610   -0.7030 C.3    65  HIS65       0.0771
     14  CG       -25.4230   -1.0110   -1.9370 C.ar   65  HIS65       0.0820
     15  ND1      -25.6970   -1.5000   -3.1900 N.ar   65  HIS65      -0.2267
     16  CD2      -24.8330    0.1890   -2.1080 C.ar   65  HIS65       0.1154
     17  CE1      -25.2880   -0.6200   -4.0810 C.ar   65  HIS65       0.1986
     18  NE2      -24.7320    0.4050   -3.4440 N.ar   65  HIS65      -0.2212
     19  N        -26.5540   -4.6400    3.1460 N.3    67  THR67      -0.1218
     20  CA       -25.3990   -5.2620    3.7370 C.3    67  THR67       0.1862
     21  C        -25.5220   -5.2920    5.2700 C.2    67  THR67       0.2287
     22  O        -26.4270   -4.7250    5.8530 O.2    67  THR67      -0.2866
     23  CB       -24.1600   -4.4540    3.3930 C.3    67  THR67       0.1770
     24  OG1      -24.3160   -3.1790    4.0510 O.3    67  THR67      -0.2211
     25  CG2      -23.9940   -4.2900    1.9090 C.3    67  THR67       0.0375
     26  N        -23.6320   -3.6190    7.1710 N.3    69  GLN69      -0.1231
     27  CA       -23.5000   -2.2300    7.5720 C.3    69  GLN69       0.1698
     28  C        -24.8210   -1.5240    7.5230 C.2    69  GLN69       0.2592
     29  O        -25.1580   -0.7630    8.4470 O.2    69  GLN69      -0.2718
     30  CB       -22.4270   -1.5220    6.7160 C.3    69  GLN69       0.0381
     31  CG       -21.0270   -2.0430    6.9320 C.3    69  GLN69       0.0905
     32  CD       -20.8350   -3.4740    6.4830 C.2    69  GLN69       0.2608
     33  OE1      -21.2280   -3.8520    5.3670 O.2    69  GLN69      -0.2717
     34  NE2      -20.1890   -4.2670    7.3160 N.am   69  GLN69      -0.0878
     35  N        -25.5620   -1.7260    6.4490 N.am   70  THR70      -0.1953
     36  CA       -26.8880   -1.1530    6.3290 C.3    70  THR70       0.1897
     37  C        -27.8040   -1.6830    7.4250 C.2    70  THR70       0.2313
     38  O        -28.6450   -0.9450    7.9360 O.2    70  THR70      -0.2863
     39  CB       -27.4390   -1.3740    4.9290 C.3    70  THR70       0.1794
     40  OG1      -26.6680   -0.5330    4.0630 O.3    70  THR70      -0.2208
     41  CG2      -28.9370   -1.0380    4.8460 C.3    70  THR70       0.0378
     42  N        -29.7990    5.5910   -2.3170 N.3   142  ASP142     -0.1239
     43  CA       -28.4420    5.4490   -2.8100 C.3   142  ASP142      0.1674
     44  C        -28.5130    5.1770   -4.3020 C.2   142  ASP142      0.2266
     45  O        -28.8270    4.0650   -4.7360 O.2   142  ASP142     -0.2867
     46  CB       -27.7490    4.3060   -2.0700 C.3   142  ASP142      0.1410
     47  CG       -26.2960    4.1630   -2.3890 C.2   142  ASP142      0.3668
     48  OD1      -25.8800    4.6110   -3.4640 O.co2 142  ASP142     -0.2456
     49  OD2      -25.5550    3.5300   -1.5990 O.co2 142  ASP142     -0.2456
     50  N        -27.2130    9.1840   -0.7600 N.3   208  GLU208     -0.1245
     51  CA       -25.9230    8.6540   -0.4100 C.3   208  GLU208      0.1567
     52  C        -24.7770    8.8680   -1.3760 C.2   208  GLU208      0.2260
     53  O        -23.6560    8.9840   -0.9210 O.2   208  GLU208     -0.2867
     54  CB       -26.0780    7.1430   -0.1720 C.3   208  GLU208      0.0388
     55  CG       -24.8750    6.4030    0.3350 C.3   208  GLU208      0.1160
     56  CD       -24.4970    6.6170    1.7650 C.2   208  GLU208      0.3649
     57  OE1      -23.3960    6.1060    2.1280 O.co2 208  GLU208     -0.2457
     58  OE2      -25.2430    7.2660    2.4830 O.co2 208  GLU208     -0.2457
     59  N        -15.6240    7.3440    2.8300 N.3   242  ASP242     -0.1239
     60  CA       -16.2450    6.2100    2.0910 C.3   242  ASP242      0.1674
     61  C        -15.7860    6.1540    0.6500 C.2   242  ASP242      0.2266
     62  O        -15.2450    5.1430    0.2340 O.2   242  ASP242     -0.2867
     63  CB       -17.7740    6.4080    2.2240 C.3   242  ASP242      0.1410
     64  CG       -18.6540    5.5760    1.3060 C.2   242  ASP242      0.3668
     65  OD1      -18.3320    5.2720    0.1390 O.co2 242  ASP242     -0.2456
     66  OD2      -19.7680    5.2970    1.8010 O.co2 242  ASP242     -0.2456
     67  N        -17.4150   -4.1790   -5.9700 N.3   400  ASN400     -0.1225
     68  CA       -16.9940   -4.3320   -4.5750 C.3   400  ASN400      0.1785
     69  C        -18.0830   -5.0050   -3.7940 C.2   400  ASN400      0.2597
     70  O        -17.8280   -5.9140   -3.0250 O.2   400  ASN400     -0.2718
     71  CB       -16.5380   -2.9530   -4.0160 C.3   400  ASN400      0.1169
     72  CG       -17.5670   -1.9120   -4.0200 C.2   400  ASN400      0.2627
     73  OD1      -18.4260   -1.8410   -4.8960 O.2   400  ASN400     -0.2716
     74  ND2      -17.4390   -0.9960   -3.0380 N.am  400  ASN400     -0.0877
     75  N        -19.2960   -4.5300   -3.9910 N.am  401  LEU401     -0.1980
     76  CA       -20.4920   -5.1220   -3.4100 C.3   401  LEU401      0.1596
     77  C        -20.9120   -6.4070   -4.1050 C.2   401  LEU401      0.2287
     78  O        -21.4480   -7.3120   -3.4650 O.2   401  LEU401     -0.2864
     79  CB       -21.6190   -4.0740   -3.4410 C.3   401  LEU401      0.0297
     80  CG       -21.4060   -2.8900   -2.4530 C.3   401  LEU401      0.0022
     81  CD1      -21.9550   -1.5920   -2.9930 C.3   401  LEU401      0.0001
     82  CD2      -22.0010   -3.2900   -1.0760 C.3   401  LEU401      0.0001
     83  N        -17.9560   -7.6680   -0.2640 N.3   405  THR405     -0.1203
     84  CA       -18.9450   -7.2280    0.7350 C.3   405  THR405      0.1994
     85  C        -19.0410   -5.6840    0.8190 C.2   405  THR405      0.2618
     86  O        -19.5110   -5.1140    1.8020 O.2   405  THR405     -0.2717
     87  CB       -18.6440   -7.8010    2.1340 C.3   405  THR405      0.1784
     88  OG1      -17.4190   -7.1900    2.5780 O.3   405  THR405     -0.2211
     89  CG2      -18.5310   -9.3390    2.1260 C.3   405  THR405      0.0376
     90  N        -18.5530   -5.0080   -0.2180 N.am  406  GLY406     -0.1942
     91  CA       -18.4280   -3.5860   -0.1600 C.3   406  GLY406      0.2014
     92  C        -17.5280   -3.0740    0.9440 C.2   406  GLY406      0.2638
     93  O        -16.6920   -3.7820    1.4850 O.2   406  GLY406     -0.2714
     94  N        -17.7510   -1.8390    1.3180 N.am  407  HIS407     -0.1973
     95  CA       -16.8910   -1.1760    2.2840 C.3   407  HIS407      0.1656
     96  C        -17.0310   -1.8380    3.6510 C.2   407  HIS407      0.2291
     97  O        -18.0390   -2.4620    3.9710 O.2   407  HIS407     -0.2864
     98  CB       -17.2740    0.2820    2.4270 C.3   407  HIS407      0.0771
     99  CG       -17.0760    1.0610    1.1720 C.ar  407  HIS407      0.0820
    100  ND1      -17.4990    2.3700    0.9970 N.ar  407  HIS407     -0.2267
    101  CD2      -16.4730    0.6980    0.0110 C.ar  407  HIS407      0.1154
    102  CE1      -17.2020    2.7450   -0.2520 C.ar  407  HIS407      0.1986
    103  NE2      -16.5650    1.7550   -0.8370 N.ar  407  HIS407     -0.2212
    104  N        -18.2950    2.8810    6.8190 N.3   412  MET412     -0.1245
    105  CA       -19.7360    3.0200    6.6460 C.3   412  MET412      0.1570
    106  C        -20.4030    3.6690    7.8420 C.2   412  MET412      0.2261
    107  O        -21.4460    4.2900    7.6770 O.2   412  MET412     -0.2867
    108  CB       -20.4190    1.6880    6.3150 C.3   412  MET412      0.0387
    109  CG       -20.0020    1.1260    4.9660 C.3   412  MET412      0.0595
    110  SD       -19.9360    2.3130    3.6030 S.3   412  MET412     -0.1393
    111  CE       -21.6450    2.8160    3.5040 C.3   412  MET412      0.0692
    112  N        -22.9900    6.5390    7.3520 N.3   416  PHE416     -0.1241
    113  CA       -24.3450    6.3120    7.8420 C.3   416  PHE416      0.1605
    114  C        -24.7050    7.1570    9.0570 C.2   416  PHE416      0.2264
    115  O        -25.8770    7.3960    9.3230 O.2   416  PHE416     -0.2867
    116  CB       -24.6020    4.8250    8.0700 C.3   416  PHE416      0.0534
    117  CG       -24.6170    3.9710    6.8110 C.ar  416  PHE416     -0.0203
    118  CD1      -24.7400    4.5390    5.5410 C.ar  416  PHE416     -0.0042
    119  CD2      -24.5880    2.6010    6.9120 C.ar  416  PHE416     -0.0042
    120  CE1      -24.8440    3.7710    4.4080 C.ar  416  PHE416     -0.0003
    121  CE2      -24.6890    1.8100    5.7850 C.ar  416  PHE416     -0.0003
    122  CZ       -24.8420    2.3890    4.5310 C.ar  416  PHE416     -0.0000
@<TRIPOS>BOND
     1    67    68    1
     2    73    72    2
     3    45    44    2
     4    68    71    1
     5    68    69    1
     6    44    43    1
     7    77    78    2
     8    77    76    1
     9    17    18   ar
    10    17    15   ar
    11    72    71    1
    12    72    74   am
    13    75    69   am
    14    75    76    1
    15    69    70    2
    16    48    47   ar
    17    18    16   ar
    18    79    76    1
    19    79    80    1
    20    15    14   ar
    21    81    80    1
    22    43    42    1
    23    43    46    1
    24    80    82    1
    25    47    46    1
    26    47    49   ar
    27    16    14   ar
    28    14    13    1
    29    52    53    2
    30    52    51    1
    31   103   102   ar
    32   103   101   ar
    33    50    51    1
    34    13    10    1
    35    51    54    1
    36    10     9    1
    37    10    11    1
    38    83    84    1
    39   102   100   ar
    40    90    91    1
    41    90    85   am
    42    54    55    1
    43    91    92    1
    44     9     3   am
    45   101    99   ar
    46    65    64   ar
    47    62    61    2
    48    55    56    1
    49     3     2    1
    50     3     4    2
    51    61    60    1
    52     1     2    1
    53    84    85    1
    54    84    87    1
    55    85    86    2
    56     2     5    1
    57    11    12    2
    58    92    94   am
    59    92    93    2
    60   100    99   ar
    61    99    98    1
    62    64    66   ar
    63    64    63    1
    64    94    95    1
    65    56    57   ar
    66    56    58   ar
    67     8     6    1
    68    25    23    1
    69    60    63    1
    70    60    59    1
    71    89    87    1
    72    87    88    1
    73     5     6    1
    74    95    98    1
    75    95    96    1
    76     6     7    1
    77    19    20    1
    78    23    20    1
    79    23    24    1
    80   111   110    1
    81   110   109    1
    82    96    97    2
    83    20    21    1
    84    40    39    1
    85   120   122   ar
    86   120   118   ar
    87   122   121   ar
    88    41    39    1
    89    39    36    1
    90   109   108    1
    91    21    22    2
    92    33    32    2
    93   118   117   ar
    94   121   119   ar
    95   108   105    1
    96    36    35    1
    97    36    37    1
    98    35    28   am
    99    32    31    1
   100    32    34   am
   101   105   104    1
   102   105   106    1
   103    30    31    1
   104    30    27    1
   105   117   119   ar
   106   117   116    1
   107    26    27    1
   108   112   113    1
   109    37    38    2
   110    28    27    1
   111    28    29    2
   112   107   106    2
   113   113   116    1
   114   113   114    1
   115   114   115    2
