@<TRIPOS>MOLECULE
tmp/3onzB01.pdb
 89 83 0 0 0
SMALL
GASTEIGER

@<TRIPOS>ATOM
      1  N        -20.6670    6.5180    6.6660 N.3    67  VAL67      -0.1231
      2  CA       -19.4400    5.7770    6.8770 C.3    67  VAL67       0.1692
      3  C        -19.5950    5.0200    8.1850 C.2    67  VAL67       0.2591
      4  O        -19.3810    3.7980    8.2500 O.2    67  VAL67      -0.2718
      5  CB       -18.1960    6.7140    6.9240 C.3    67  VAL67       0.0266
      6  CG1      -17.0160    6.0210    7.5820 C.3    67  VAL67       0.0020
      7  CG2      -17.8310    7.1960    5.5290 C.3    67  VAL67       0.0020
      8  N        -19.9840    5.7510    9.2290 N.am   68  LEU68      -0.1980
      9  CA       -20.3010    5.1370   10.5180 C.3    68  LEU68       0.1596
     10  C        -21.3200    4.0180   10.3340 C.2    68  LEU68       0.2287
     11  O        -21.1340    2.8950   10.8280 O.2    68  LEU68      -0.2864
     12  CB       -20.8510    6.1810   11.4910 C.3    68  LEU68       0.0297
     13  CG       -19.9520    6.4760   12.6830 C.3    68  LEU68       0.0022
     14  CD1      -18.5480    6.7780   12.1880 C.3    68  LEU68       0.0001
     15  CD2      -20.4960    7.6240   13.5280 C.3    68  LEU68       0.0001
     16  N        -22.0690    2.2220    7.7270 N.3    70  ALA70      -0.1231
     17  CA       -21.3980    1.1070    7.0930 C.3    70  ALA70       0.1694
     18  C        -20.5040    0.3870    8.0840 C.2    70  ALA70       0.2592
     19  O        -20.3510   -0.8370    8.0090 O.2    70  ALA70      -0.2718
     20  CB       -20.5990    1.5860    5.8970 C.3    70  ALA70       0.0304
     21  N        -19.9080    1.1310    9.0140 N.am   71  PHE71      -0.1976
     22  CA       -19.0460    0.4930   10.0070 C.3    71  PHE71       0.1639
     23  C        -19.8610   -0.4040   10.9350 C.2    71  PHE71       0.2290
     24  O        -19.4510   -1.5240   11.2470 O.2    71  PHE71      -0.2864
     25  CB       -18.2470    1.5190   10.8190 C.3    71  PHE71       0.0560
     26  CG       -17.3110    0.8950   11.8270 C.ar   71  PHE71      -0.0200
     27  CD1      -15.9450    0.8270   11.5810 C.ar   71  PHE71      -0.0042
     28  CD2      -17.8020    0.3550   13.0120 C.ar   71  PHE71      -0.0042
     29  CE1      -15.0780    0.2520   12.4990 C.ar   71  PHE71      -0.0003
     30  CE2      -16.9420   -0.2290   13.9380 C.ar   71  PHE71      -0.0003
     31  CZ       -15.5730   -0.2780   13.6810 C.ar   71  PHE71      -0.0000
     32  N         -9.2220    3.4620    1.3980 N.3    94  PHE94      -0.1241
     33  CA       -10.1230    2.8980    2.4030 C.3    94  PHE94       0.1605
     34  C         -9.3420    2.6280    3.6650 C.2    94  PHE94       0.2264
     35  O         -9.8430    2.8330    4.7680 O.2    94  PHE94      -0.2867
     36  CB       -10.7790    1.5900    1.9230 C.3    94  PHE94       0.0534
     37  CG       -11.6670    1.7680    0.7380 C.ar   94  PHE94      -0.0203
     38  CD1      -12.9830    2.1610    0.8960 C.ar   94  PHE94      -0.0042
     39  CD2      -11.1820    1.5580   -0.5430 C.ar   94  PHE94      -0.0042
     40  CE1      -13.7970    2.3370   -0.2070 C.ar   94  PHE94      -0.0003
     41  CE2      -11.9890    1.7310   -1.6420 C.ar   94  PHE94      -0.0003
     42  CZ       -13.2980    2.1200   -1.4780 C.ar   94  PHE94      -0.0000
     43  N         -8.8300    5.9070    5.4140 N.3    97  LEU97      -0.1231
     44  CA       -10.0400    6.3630    6.0670 C.3    97  LEU97       0.1693
     45  C        -10.2470    5.5990    7.3640 C.2    97  LEU97       0.2592
     46  O        -10.6680    6.1720    8.3640 O.2    97  LEU97      -0.2718
     47  CB       -11.2480    6.1750    5.1540 C.3    97  LEU97       0.0284
     48  CG       -12.6090    6.4750    5.7860 C.3    97  LEU97       0.0019
     49  CD1      -12.6630    7.8990    6.3150 C.3    97  LEU97       0.0001
     50  CD2      -13.7120    6.2460    4.7610 C.3    97  LEU97       0.0001
     51  N         -9.9430    4.3070    7.3350 N.am   98  GLY98      -0.1957
     52  CA       -10.0830    3.4650    8.5060 C.3    98  GLY98       0.1869
     53  C         -9.1500    3.9180    9.6160 C.2    98  GLY98       0.2309
     54  O         -9.5250    3.9380   10.7890 O.2    98  GLY98      -0.2863
     55  N        -10.3040    7.3290   11.1280 N.3   101  LEU101     -0.1245
     56  CA       -11.3930    6.9860   12.0350 C.3   101  LEU101      0.1561
     57  C        -10.8450    6.5320   13.3610 C.2   101  LEU101      0.2260
     58  O        -11.3100    6.9680   14.4140 O.2   101  LEU101     -0.2867
     59  CB       -12.2240    5.8510   11.4490 C.3   101  LEU101      0.0270
     60  CG       -13.5880    5.5200   12.0720 C.3   101  LEU101      0.0019
     61  CD1      -13.6200    4.1120   12.6010 C.3   101  LEU101      0.0001
     62  CD2      -14.0840    6.5420   13.1410 C.3   101  LEU101      0.0001
     63  N        -11.6530   -2.2400   10.8530 N.3   125  VAL125     -0.1245
     64  CA       -11.4170   -1.2990    9.7560 C.3   125  VAL125      0.1561
     65  C        -10.7110   -2.0010    8.5800 C.2   125  VAL125      0.2260
     66  O        -11.0970   -1.8160    7.4380 O.2   125  VAL125     -0.2867
     67  CB       -10.6960    0.0220   10.1970 C.3   125  VAL125      0.0252
     68  CG1      -11.3370    0.5930   11.4660 C.3   125  VAL125      0.0019
     69  CG2       -9.2060   -0.1740   10.4030 C.3   125  VAL125      0.0019
     70  N        -13.3440   -4.0800    6.8020 N.3   128  VAL128     -0.1231
     71  CA       -14.2550   -3.2360    6.0390 C.3   128  VAL128      0.1692
     72  C        -13.5620   -2.6900    4.7890 C.2   128  VAL128      0.2591
     73  O        -14.1190   -2.7230    3.6890 O.2   128  VAL128     -0.2718
     74  CB       -14.7830   -2.0660    6.8870 C.3   128  VAL128      0.0266
     75  CG1      -15.6010   -1.1170    6.0270 C.3   128  VAL128      0.0020
     76  CG2      -15.6060   -2.5820    8.0470 C.3   128  VAL128      0.0020
     77  N        -12.3390   -2.1940    4.9670 N.am  129  ALA129     -0.1980
     78  CA       -11.5700   -1.6380    3.8520 C.3   129  ALA129      0.1597
     79  C        -11.4490   -2.6590    2.7290 C.2   129  ALA129      0.2287
     80  O        -11.7250   -2.3610    1.5730 O.2   129  ALA129     -0.2864
     81  CB       -10.1830   -1.1960    4.3140 C.3   129  ALA129      0.0319
     82  N        -14.7380   -3.3320    1.0700 N.3   132  LEU132     -0.1245
     83  CA       -15.1470   -2.2190    0.2200 C.3   132  LEU132      0.1561
     84  C        -14.2640   -2.0910   -1.0150 C.2   132  LEU132      0.2260
     85  O        -14.6440   -1.4360   -1.9830 O.2   132  LEU132     -0.2867
     86  CB       -15.1540   -0.8990    0.9970 C.3   132  LEU132      0.0270
     87  CG       -16.0690   -0.8110    2.2210 C.3   132  LEU132      0.0019
     88  CD1      -15.8010    0.4690    3.0160 C.3   132  LEU132      0.0001
     89  CD2      -17.5260   -0.9020    1.8140 C.3   132  LEU132      0.0001
@<TRIPOS>BOND
     1    85    84    2
     2    41    42   ar
     3    41    39   ar
     4    42    40   ar
     5    84    83    1
     6    39    37   ar
     7    40    38   ar
     8    83    86    1
     9    83    82    1
    10    37    38   ar
    11    37    36    1
    12    86    87    1
    13    32    33    1
    14    80    79    2
    15    89    87    1
    16    36    33    1
    17    87    88    1
    18    33    34    1
    19    79    78    1
    20    34    35    2
    21    73    72    2
    22    78    81    1
    23    78    77    1
    24    50    48    1
    25    72    77   am
    26    72    71    1
    27    47    48    1
    28    47    44    1
    29    43    44    1
    30     7     5    1
    31    48    49    1
    32    20    17    1
    33    75    74    1
    34    71    70    1
    35    71    74    1
    36    44    45    1
    37     1     2    1
    38     2     5    1
    39     2     3    1
    40    74    76    1
    41     5     6    1
    42    17    16    1
    43    17    18    1
    44    51    45   am
    45    51    52    1
    46    45    46    2
    47    66    65    2
    48    19    18    2
    49    18    21   am
    50     3     4    2
    51     3     8   am
    52    52    53    1
    53    65    64    1
    54    21    22    1
    55     8     9    1
    56    53    54    2
    57    64    67    1
    58    64    63    1
    59    22    25    1
    60    22    23    1
    61    67    69    1
    62    67    68    1
    63    10     9    1
    64    10    11    2
    65     9    12    1
    66    25    26    1
    67    23    24    2
    68    55    56    1
    69    59    56    1
    70    59    60    1
    71    12    13    1
    72    27    26   ar
    73    27    29   ar
    74    26    28   ar
    75    56    57    1
    76    60    61    1
    77    60    62    1
    78    14    13    1
    79    29    31   ar
    80    13    15    1
    81    28    30   ar
    82    57    58    2
    83    31    30   ar
