@<TRIPOS>MOLECULE
tmp/3oo6B00.pdb
 151 148 0 0 0
SMALL
GASTEIGER

@<TRIPOS>ATOM
      1  N         26.8380    3.8440   -9.9320 N.3    42  HIS42      -0.1226
      2  CA        27.6990    3.4340  -11.0410 C.3    42  HIS42       0.1752
      3  C         28.6540    4.5440  -11.4530 C.2    42  HIS42       0.2596
      4  O         29.8520    4.3340  -11.5700 O.2    42  HIS42      -0.2718
      5  CB        26.8660    2.9970  -12.2400 C.3    42  HIS42       0.0759
      6  CG        27.6820    2.5630  -13.4110 C.ar   42  HIS42       0.0818
      7  ND1       28.1580    1.2750  -13.5490 N.ar   42  HIS42      -0.2268
      8  CD2       28.1090    3.2410  -14.4980 C.ar   42  HIS42       0.1154
      9  CE1       28.8700    1.1900  -14.6590 C.ar   42  HIS42       0.1986
     10  NE2       28.8450    2.3640  -15.2590 N.ar   42  HIS42      -0.2212
     11  N         28.1260    5.7330  -11.6690 N.am   43  ASN43      -0.1974
     12  CA        28.9500    6.8020  -12.2050 C.3    43  ASN43       0.1688
     13  C         29.8000    7.5270  -11.1740 C.2    43  ASN43       0.2292
     14  O         30.9800    7.7690  -11.4150 O.2    43  ASN43      -0.2864
     15  CB        28.1440    7.7330  -13.1220 C.3    43  ASN43       0.1181
     16  CG        27.7340    7.0240  -14.4390 C.2    43  ASN43       0.2629
     17  OD1       26.6230    7.1810  -14.9330 O.2    43  ASN43      -0.2716
     18  ND2       28.5840    6.1190  -14.8940 N.am   43  ASN43      -0.0877
     19  N         33.1850    5.3860  -10.8040 N.3    46  GLN46      -0.1245
     20  CA        34.2630    5.6450  -11.7470 C.3    46  GLN46       0.1566
     21  C         34.8030    7.0780  -11.6360 C.2    46  GLN46       0.2260
     22  O         35.9890    7.2880  -11.8030 O.2    46  GLN46      -0.2867
     23  CB        33.8430    5.3200  -13.1800 C.3    46  GLN46       0.0367
     24  CG        32.7420    6.1960  -13.7390 C.3    46  GLN46       0.0905
     25  CD        32.1760    5.6540  -15.0390 C.2    46  GLN46       0.2608
     26  OE1       32.1210    4.4370  -15.2570 O.2    46  GLN46      -0.2717
     27  NE2       31.7220    6.5510  -15.8980 N.am   46  GLN46      -0.0878
     28  N         37.2480   -1.8070  -15.6020 N.3    64  PHE64      -0.1241
     29  CA        37.1120   -1.9090  -17.0390 C.3    64  PHE64       0.1605
     30  C         38.4380   -2.3300  -17.6530 C.2    64  PHE64       0.2264
     31  O         39.4950   -2.1450  -17.0470 O.2    64  PHE64      -0.2867
     32  CB        36.6410   -0.5700  -17.6330 C.3    64  PHE64       0.0534
     33  CG        35.4480    0.0320  -16.9210 C.ar   64  PHE64      -0.0203
     34  CD1       34.1760   -0.5120  -17.0800 C.ar   64  PHE64      -0.0042
     35  CD2       35.5900    1.1600  -16.1280 C.ar   64  PHE64      -0.0042
     36  CE1       33.0640    0.0480  -16.4280 C.ar   64  PHE64      -0.0003
     37  CE2       34.4730    1.7550  -15.4990 C.ar   64  PHE64      -0.0003
     38  CZ        33.2170    1.2010  -15.6510 C.ar   64  PHE64      -0.0000
     39  N         41.6540    2.1130  -19.9340 N.3    68  ARG68      -0.1245
     40  CA        41.0890    2.4520  -18.6440 C.3    68  ARG68       0.1563
     41  C         41.6190    1.5830  -17.4810 C.2    68  ARG68       0.2260
     42  O         41.7480    2.0800  -16.3700 O.2    68  ARG68      -0.2867
     43  CB        39.5660    2.5060  -18.6910 C.3    68  ARG68       0.0307
     44  CG        38.9240    2.7440  -17.3370 C.3    68  ARG68       0.0489
     45  CD        38.0170    3.9570  -17.3050 C.3    68  ARG68       0.2205
     46  NE        36.7360    3.6890  -17.9260 N.pl3  68  ARG68      -0.0865
     47  CZ        35.6240    4.3970  -17.7250 C.cat  68  ARG68       0.5346
     48  NH1       35.6120    5.4050  -16.8750 N.pl3  68  ARG68       0.1354
     49  NH2       34.5140    4.0790  -18.3870 N.pl3  68  ARG68       0.1354
     50  N         29.9940   -6.6860  -24.4620 N.3   115  TYR115     -0.1241
     51  CA        28.6850   -6.4170  -25.0690 C.3   115  TYR115      0.1605
     52  C         28.8110   -5.4540  -26.2580 C.2   115  TYR115      0.2264
     53  O         29.7490   -4.6890  -26.3210 O.2   115  TYR115     -0.2867
     54  CB        27.7170   -5.8610  -24.0180 C.3   115  TYR115      0.0534
     55  CG        28.2180   -4.6380  -23.2760 C.ar  115  TYR115     -0.0201
     56  CD1       27.9460   -3.3540  -23.7560 C.ar  115  TYR115     -0.0009
     57  CD2       28.9510   -4.7570  -22.0960 C.ar  115  TYR115     -0.0009
     58  CE1       28.3930   -2.2200  -23.0930 C.ar  115  TYR115      0.0417
     59  CE2       29.3970   -3.6070  -21.3990 C.ar  115  TYR115      0.0417
     60  CZ        29.0780   -2.3410  -21.8980 C.ar  115  TYR115      0.1957
     61  OH        29.4840   -1.1860  -21.2380 O.3   115  TYR115     -0.2866
     62  N         27.8150   -2.2570  -28.8540 N.3   117  TRP117     -0.1241
     63  CA        27.1180   -1.0050  -29.0460 C.3   117  TRP117      0.1605
     64  C         26.4530   -0.9860  -30.4370 C.2   117  TRP117      0.2264
     65  O         27.1330   -0.9720  -31.4740 O.2   117  TRP117     -0.2867
     66  CB        28.0700    0.1840  -28.8660 C.3   117  TRP117      0.0550
     67  CG        28.1640    0.6810  -27.4490 C.ar  117  TRP117      0.0003
     68  CD1       28.6890    0.0140  -26.3700 C.ar  117  TRP117      0.0946
     69  CD2       27.6830    1.9420  -26.9480 C.ar  117  TRP117      0.0152
     70  NE1       28.5530    0.7830  -25.2260 N.ar  117  TRP117     -0.2442
     71  CE2       27.9200    1.9590  -25.5520 C.ar  117  TRP117      0.0810
     72  CE3       27.0350    3.0360  -27.5370 C.ar  117  TRP117      0.0012
     73  CZ2       27.6030    3.0610  -24.7510 C.ar  117  TRP117      0.0191
     74  CZ3       26.7250    4.1500  -26.7320 C.ar  117  TRP117      0.0001
     75  CH2       26.9990    4.1380  -25.3560 C.ar  117  TRP117      0.0015
     76  N         28.8430   10.2750  -20.6820 N.3   163  TRP163     -0.1241
     77  CA        29.4860    9.2470  -21.5030 C.3   163  TRP163      0.1605
     78  C         28.7010    8.6720  -22.6930 C.2   163  TRP163      0.2264
     79  O         29.3020    8.3000  -23.6710 O.2   163  TRP163     -0.2867
     80  CB        30.1320    8.1270  -20.6500 C.3   163  TRP163      0.0550
     81  CG        29.2150    7.4880  -19.6740 C.ar  163  TRP163      0.0003
     82  CD1       29.0980    7.7830  -18.3430 C.ar  163  TRP163      0.0946
     83  CD2       28.2840    6.4380  -19.9390 C.ar  163  TRP163      0.0152
     84  NE1       28.1590    6.9610  -17.7600 N.ar  163  TRP163     -0.2442
     85  CE2       27.6410    6.1300  -18.7200 C.ar  163  TRP163      0.0810
     86  CE3       27.9320    5.7180  -21.0920 C.ar  163  TRP163      0.0012
     87  CZ2       26.6690    5.1430  -18.6200 C.ar  163  TRP163      0.0191
     88  CZ3       26.9660    4.7480  -20.9910 C.ar  163  TRP163      0.0001
     89  CH2       26.3260    4.4800  -19.7630 C.ar  163  TRP163      0.0015
     90  N         24.4510   -3.8260  -22.3970 N.3   240  ASN240     -0.1225
     91  CA        24.6250   -3.7590  -20.9340 C.3   240  ASN240      0.1785
     92  C         23.7220   -2.6760  -20.3220 C.2   240  ASN240      0.2597
     93  O         23.3960   -2.7180  -19.1270 O.2   240  ASN240     -0.2718
     94  CB        26.0790   -3.4500  -20.6060 C.3   240  ASN240      0.1169
     95  CG        26.4060   -3.6390  -19.1360 C.2   240  ASN240      0.2627
     96  OD1       26.6010   -2.6610  -18.3960 O.2   240  ASN240     -0.2716
     97  ND2       26.5350   -4.8920  -18.7170 N.am  240  ASN240     -0.0877
     98  N         23.3550   -1.6950  -21.1480 N.am  241  GLN241     -0.1979
     99  CA        22.4190   -0.6440  -20.7560 C.3   241  GLN241      0.1601
    100  C         20.9800   -0.9520  -21.2060 C.2   241  GLN241      0.2287
    101  O         20.1210   -1.2670  -20.3810 O.2   241  GLN241     -0.2864
    102  CB        22.8750    0.7210  -21.2930 C.3   241  GLN241      0.0394
    103  CG        24.2100    1.1750  -20.7430 C.3   241  GLN241      0.0908
    104  CD        25.2940    1.2180  -21.8020 C.2   241  GLN241      0.2608
    105  OE1       25.0420    1.5920  -22.9440 O.2   241  GLN241     -0.2717
    106  NE2       26.5250    0.8890  -21.4120 N.am  241  GLN241     -0.0878
    107  N         32.7890   -3.0930  -25.3670 N.3   274  PRO274     -0.2116
    108  CA        33.6370   -3.0230  -24.1660 C.3   274  PRO274      0.1372
    109  C         33.5900   -4.2810  -23.2970 C.2   274  PRO274      0.2244
    110  O         32.5640   -4.9410  -23.1980 O.2   274  PRO274     -0.2868
    111  CB        33.0960   -1.8080  -23.4000 C.3   274  PRO274      0.0268
    112  CG        31.7670   -1.4910  -23.9920 C.3   274  PRO274      0.0207
    113  CD        31.7360   -2.0560  -25.3900 C.3   274  PRO274      0.0892
    114  N         34.0650   -5.9010  -19.4880 N.3   276  ASP276     -0.1239
    115  CA        34.0690   -5.5780  -18.0720 C.3   276  ASP276      0.1674
    116  C         34.7260   -6.7280  -17.2980 C.2   276  ASP276      0.2266
    117  O         34.5870   -7.9010  -17.6660 O.2   276  ASP276     -0.2867
    118  CB        32.6430   -5.3660  -17.5650 C.3   276  ASP276      0.1410
    119  CG        32.0270   -4.0410  -18.0330 C.2   276  ASP276      0.3668
    120  OD1       32.7490   -3.2070  -18.6320 O.co2 276  ASP276     -0.2456
    121  OD2       30.8010   -3.8490  -17.8230 O.co2 276  ASP276     -0.2456
    122  N         35.5140    1.8930  -25.9640 N.3   345  PHE345     -0.1241
    123  CA        34.6610    3.0750  -25.8670 C.3   345  PHE345      0.1605
    124  C         35.6230    4.2390  -25.6430 C.2   345  PHE345      0.2264
    125  O         36.6990    4.0570  -25.0590 O.2   345  PHE345     -0.2867
    126  CB        33.6910    2.9440  -24.6580 C.3   345  PHE345      0.0534
    127  CG        32.4530    3.7790  -24.7870 C.ar  345  PHE345     -0.0203
    128  CD1       31.4810    3.4580  -25.7200 C.ar  345  PHE345     -0.0042
    129  CD2       32.2880    4.9230  -24.0220 C.ar  345  PHE345     -0.0042
    130  CE1       30.3720    4.2510  -25.8830 C.ar  345  PHE345     -0.0003
    131  CE2       31.1700    5.7030  -24.1590 C.ar  345  PHE345     -0.0003
    132  CZ        30.1980    5.3680  -25.0810 C.ar  345  PHE345     -0.0000
    133  N         35.9550    6.6510  -23.5590 N.3   347  ASP347     -0.1225
    134  CA        36.4640    6.8080  -22.1780 C.3   347  ASP347      0.1805
    135  C         37.1050    5.5310  -21.6100 C.2   347  ASP347      0.2597
    136  O         37.6150    5.5220  -20.4840 O.2   347  ASP347     -0.2718
    137  CB        35.3600    7.3090  -21.2440 C.3   347  ASP347      0.1424
    138  CG        34.2970    6.2560  -20.9750 C.2   347  ASP347      0.3668
    139  OD1       34.4940    5.1000  -21.4000 O.co2 347  ASP347     -0.2456
    140  OD2       33.2650    6.5830  -20.3430 O.co2 347  ASP347     -0.2456
    141  N         37.0780    4.4480  -22.3720 N.am  348  ARG348     -0.1979
    142  CA        37.9640    3.3380  -22.0770 C.3   348  ARG348      0.1597
    143  C         39.2150    3.2680  -22.9580 C.2   348  ARG348      0.2287
    144  O         40.1280    2.5110  -22.6550 O.2   348  ARG348     -0.2864
    145  CB        37.2110    2.0050  -22.0970 C.3   348  ARG348      0.0334
    146  CG        35.9200    1.9910  -21.2620 C.3   348  ARG348      0.0492
    147  CD        35.0620    0.8260  -21.6830 C.3   348  ARG348      0.2205
    148  NE        33.8670    0.6480  -20.8620 N.pl3 348  ARG348     -0.0865
    149  CZ        33.5290   -0.5100  -20.3000 C.cat 348  ARG348      0.5346
    150  NH1       34.3220   -1.5850  -20.4620 N.pl3 348  ARG348      0.1354
    151  NH2       32.3650   -0.6270  -19.6630 N.pl3 348  ARG348      0.1354
@<TRIPOS>BOND
     1    65    64    2
     2    64    63    1
     3    63    66    1
     4    63    62    1
     5    66    67    1
     6    72    69   ar
     7    72    74   ar
     8    67    69   ar
     9    67    68   ar
    10    69    71   ar
    11    74    75   ar
    12    68    70   ar
    13    53    52    2
    14    52    51    1
    15   122   123    1
    16   130   128   ar
    17   130   132   ar
    18   123   124    1
    19   123   126    1
    20   128   127   ar
    21   124   125    2
    22    71    70   ar
    23    71    73   ar
    24   113   107    1
    25   113   112    1
    26   107   108    1
    27    75    73   ar
    28   132   131   ar
    29    51    50    1
    30    51    54    1
    31   127   126    1
    32   127   129   ar
    33   108   111    1
    34   108   109    1
    35   131   129   ar
    36    54    55    1
    37   112   111    1
    38    56    55   ar
    39    56    58   ar
    40    79    78    2
    41   133   134    1
    42   109   110    2
    43    55    57   ar
    44    58    60   ar
    45   143   144    2
    46   143   142    1
    47   105   104    2
    48    78    77    1
    49    90    91    1
    50   141   142    1
    51   141   135   am
    52   134   135    1
    53   134   137    1
    54   145   142    1
    55   145   146    1
    56    57    59   ar
    57    60    59   ar
    58    60    61    1
    59   104   106   am
    60   104   103    1
    61   147   146    1
    62   147   148    1
    63   135   136    2
    64    77    76    1
    65    77    80    1
    66   139   138   ar
    67   102    99    1
    68   102   103    1
    69   137   138    1
    70   100    99    1
    71   100   101    2
    72    98    99    1
    73    98    92   am
    74    86    88   ar
    75    86    83   ar
    76    88    89   ar
    77   138   140   ar
    78    91    94    1
    79    91    92    1
    80   148   149    2
    81    80    81    1
    82    94    95    1
    83   150   149    1
    84    92    93    2
    85   149   151    1
    86    83    81   ar
    87    83    85   ar
    88    39    40    1
    89    89    87   ar
    90    81    82   ar
    91   114   115    1
    92    95    97   am
    93    95    96    2
    94    85    87   ar
    95    85    84   ar
    96    43    40    1
    97    43    44    1
    98    40    41    1
    99   120   119   ar
   100    49    47    1
   101    82    84   ar
   102   115   118    1
   103   115   116    1
   104   119   121   ar
   105   119   118    1
   106    46    47    2
   107    46    45    1
   108    47    48    1
   109   117   116    2
   110    30    31    2
   111    30    29    1
   112    32    29    1
   113    32    33    1
   114    41    42    2
   115    44    45    1
   116    34    33   ar
   117    34    36   ar
   118    29    28    1
   119    33    35   ar
   120    36    38   ar
   121    35    37   ar
   122    27    25   am
   123    38    37   ar
   124    10     9   ar
   125    10     8   ar
   126    26    25    2
   127    25    24    1
   128    17    16    2
   129    18    16   am
   130     9     7   ar
   131     8     6   ar
   132    16    15    1
   133    24    23    1
   134     7     6   ar
   135     6     5    1
   136    23    20    1
   137    15    12    1
   138     5     2    1
   139    12    11    1
   140    12    13    1
   141    22    21    2
   142    20    21    1
   143    20    19    1
   144    11     3   am
   145     4     3    2
   146     3     2    1
   147    14    13    2
   148     2     1    1
