@<TRIPOS>MOLECULE
tmp/3oodA00.pdb
 150 145 0 0 0
SMALL
GASTEIGER

@<TRIPOS>ATOM
      1  N         35.7160   25.5060   -2.3420 N.3    25  HIS25      -0.1241
      2  CA        34.8810   26.6170   -1.8600 C.3    25  HIS25       0.1621
      3  C         35.6750   27.4150   -0.8610 C.2    25  HIS25       0.2264
      4  O         36.4110   26.8410   -0.0630 O.2    25  HIS25      -0.2867
      5  CB        33.6420   26.0980   -1.1280 C.3    25  HIS25       0.0745
      6  CG        32.8360   25.1390   -1.9240 C.ar   25  HIS25       0.0817
      7  ND1       31.8500   25.5440   -2.7980 N.ar   25  HIS25      -0.2268
      8  CD2       32.9180   23.7900   -2.0360 C.ar   25  HIS25       0.1154
      9  CE1       31.3260   24.4760   -3.3800 C.ar   25  HIS25       0.1986
     10  NE2       31.9620   23.4010   -2.9400 N.ar   25  HIS25      -0.2212
     11  N         31.0850   27.2830    2.2800 N.3    28  GLY28      -0.1225
     12  CA        29.8330   26.6010    1.9020 C.3    28  GLY28       0.1811
     13  C         28.6850   27.1400    2.7570 C.2    28  GLY28       0.2280
     14  O         28.6130   26.8630    3.9450 O.2    28  GLY28      -0.2866
     15  N         24.7540   28.4810   -2.6820 N.3    74  ILE74      -0.1245
     16  CA        25.8410   28.1370   -1.7520 C.3    74  ILE74       0.1561
     17  C         26.3230   29.4130   -1.0260 C.2    74  ILE74       0.2260
     18  O         27.2160   29.3810   -0.1630 O.2    74  ILE74      -0.2867
     19  CB        26.9790   27.3900   -2.4950 C.3    74  ILE74       0.0252
     20  CG1       26.4280   26.0580   -3.0260 C.3    74  ILE74       0.0019
     21  CG2       28.1960   27.1430   -1.5550 C.3    74  ILE74       0.0019
     22  CD1       27.3830   25.3540   -4.0140 C.3    74  ILE74       0.0001
     23  N         23.0310   25.0500   -7.1660 N.3    99  TRP99      -0.1227
     24  CA        23.3110   23.8010   -6.4610 C.3    99  TRP99       0.1737
     25  C         21.9280   23.2630   -6.0740 C.2    99  TRP99       0.2595
     26  O         20.9350   23.6330   -6.7130 O.2    99  TRP99      -0.2718
     27  CB        24.2030   24.1790   -5.2940 C.3    99  TRP99       0.0564
     28  CG        24.6910   23.1530   -4.3090 C.ar   99  TRP99       0.0003
     29  CD1       25.5230   22.0750   -4.5420 C.ar   99  TRP99       0.0946
     30  CD2       24.4530   23.1860   -2.9060 C.ar   99  TRP99       0.0152
     31  NE1       25.8030   21.4360   -3.3430 N.ar   99  TRP99      -0.2442
     32  CE2       25.1350   22.0850   -2.3320 C.ar   99  TRP99       0.0810
     33  CE3       23.7050   24.0310   -2.0720 C.ar   99  TRP99       0.0012
     34  CZ2       25.1130   21.8310   -0.9500 C.ar   99  TRP99       0.0191
     35  CZ3       23.6610   23.7590   -0.7030 C.ar   99  TRP99       0.0001
     36  CH2       24.3610   22.6700   -0.1580 C.ar   99  TRP99       0.0015
     37  N         21.8430   22.4210   -5.0430 N.am  100  PHE100     -0.1976
     38  CA        20.5590   21.7750   -4.7390 C.3   100  PHE100      0.1639
     39  C         19.7450   22.4510   -3.6290 C.2   100  PHE100      0.2290
     40  O         18.8310   21.8460   -3.0710 O.2   100  PHE100     -0.2864
     41  CB        20.7380   20.2490   -4.5320 C.3   100  PHE100      0.0560
     42  CG        21.6400   19.8610   -3.3900 C.ar  100  PHE100     -0.0200
     43  CD1       21.1930   19.9240   -2.0670 C.ar  100  PHE100     -0.0042
     44  CD2       22.9350   19.3740   -3.6340 C.ar  100  PHE100     -0.0042
     45  CE1       22.0270   19.5300   -0.9970 C.ar  100  PHE100     -0.0003
     46  CE2       23.7730   18.9740   -2.5820 C.ar  100  PHE100     -0.0003
     47  CZ        23.3300   19.0530   -1.2640 C.ar  100  PHE100     -0.0000
     48  N         27.5600   18.5520   -9.2650 N.3   168  HIS168     -0.1241
     49  CA        27.4630   17.7690   -8.0590 C.3   168  HIS168      0.1621
     50  C         26.6610   16.5230   -8.4520 C.2   168  HIS168      0.2264
     51  O         25.6330   16.6210   -9.1580 O.2   168  HIS168     -0.2867
     52  CB        26.6900   18.5400   -6.9940 C.3   168  HIS168      0.0745
     53  CG        26.3510   17.7340   -5.7760 C.ar  168  HIS168      0.0817
     54  ND1       26.9800   17.9190   -4.5660 N.ar  168  HIS168     -0.2268
     55  CD2       25.4320   16.7560   -5.5790 C.ar  168  HIS168      0.1154
     56  CE1       26.4710   17.0810   -3.6780 C.ar  168  HIS168      0.1986
     57  NE2       25.5390   16.3580   -4.2730 N.ar  168  HIS168     -0.2212
     58  N         32.1970   14.8340   -7.8990 N.3   197  HIS197     -0.1241
     59  CA        32.0740   13.8850   -6.7830 C.3   197  HIS197      0.1621
     60  C         32.1740   12.4420   -7.2510 C.2   197  HIS197      0.2264
     61  O         31.6510   11.5520   -6.6150 O.2   197  HIS197     -0.2867
     62  CB        30.7880   14.1180   -5.9740 C.3   197  HIS197      0.0745
     63  CG        30.6430   15.5250   -5.4960 C.ar  197  HIS197      0.0817
     64  ND1       31.7310   16.3460   -5.2880 N.ar  197  HIS197     -0.2268
     65  CD2       29.5480   16.2580   -5.1750 C.ar  197  HIS197      0.1154
     66  CE1       31.3120   17.5260   -4.8670 C.ar  197  HIS197      0.1986
     67  NE2       29.9960   17.4940   -4.7820 N.ar  197  HIS197     -0.2212
     68  N         36.9200   14.9540   -4.0400 N.3   221  ARG221     -0.1245
     69  CA        36.6930   14.8960   -2.5960 C.3   221  ARG221      0.1563
     70  C         37.8160   14.1100   -1.9210 C.2   221  ARG221      0.2260
     71  O         37.5930   13.3880   -0.9580 O.2   221  ARG221     -0.2867
     72  CB        35.3050   14.3140   -2.2820 C.3   221  ARG221      0.0307
     73  CG        34.1900   15.3720   -2.2930 C.3   221  ARG221      0.0489
     74  CD        32.7970   14.7700   -2.0570 C.3   221  ARG221      0.2205
     75  NE        31.7980   15.8040   -1.8070 N.pl3 221  ARG221     -0.0865
     76  CZ        30.4830   15.6100   -1.6720 C.cat 221  ARG221      0.5346
     77  NH1       29.9230   14.3900   -1.7660 N.pl3 221  ARG221      0.1354
     78  NH2       29.7070   16.6670   -1.4520 N.pl3 221  ARG221      0.1354
     79  N         38.1360   13.4110    1.9290 N.3   224  PHE224     -0.1241
     80  CA        36.8760   13.0550    2.6140 C.3   224  PHE224      0.1605
     81  C         36.8910   11.6100    3.1200 C.2   224  PHE224      0.2264
     82  O         36.7600   10.6950    2.3160 O.2   224  PHE224     -0.2867
     83  CB        35.6740   13.1830    1.6550 C.3   224  PHE224      0.0534
     84  CG        35.0960   14.5780    1.5290 C.ar  224  PHE224     -0.0203
     85  CD1       33.7100   14.7580    1.5100 C.ar  224  PHE224     -0.0042
     86  CD2       35.9200   15.6960    1.4140 C.ar  224  PHE224     -0.0042
     87  CE1       33.1490   16.0300    1.3940 C.ar  224  PHE224     -0.0003
     88  CE2       35.3790   16.9790    1.2950 C.ar  224  PHE224     -0.0003
     89  CZ        33.9850   17.1500    1.2800 C.ar  224  PHE224     -0.0000
     90  N         28.3660   12.3230    5.3780 N.3   238  LEU238     -0.1245
     91  CA        28.9210   13.2810    4.4260 C.3   238  LEU238      0.1561
     92  C         30.2320   12.7920    3.8400 C.2   238  LEU238      0.2260
     93  O         30.4480   12.9040    2.6320 O.2   238  LEU238     -0.2867
     94  CB        29.0900   14.6690    5.0650 C.3   238  LEU238      0.0270
     95  CG        29.7140   15.7540    4.1650 C.3   238  LEU238      0.0019
     96  CD1       28.8640   16.0020    2.9110 C.3   238  LEU238      0.0001
     97  CD2       29.9590   17.0440    4.9320 C.3   238  LEU238      0.0001
     98  N         37.1410   19.6180   -2.6520 N.3   268  ASP268     -0.1239
     99  CA        35.8310   20.0930   -2.1810 C.3   268  ASP268      0.1674
    100  C         35.9660   20.6450   -0.7570 C.2   268  ASP268      0.2266
    101  O         35.0830   20.4580    0.0920 O.2   268  ASP268     -0.2867
    102  CB        34.7890   18.9630   -2.2340 C.3   268  ASP268      0.1410
    103  CG        33.3680   19.4730   -2.2090 C.2   268  ASP268      0.3668
    104  OD1       33.1620   20.6820   -2.4090 O.co2 268  ASP268     -0.2456
    105  OD2       32.4600   18.6530   -1.9710 O.co2 268  ASP268     -0.2456
    106  N         36.7270   23.7730    2.1450 N.3   270  LEU270     -0.1245
    107  CA        36.1720   25.1030    2.4460 C.3   270  LEU270      0.1561
    108  C         36.7450   25.5900    3.7700 C.2   270  LEU270      0.2260
    109  O         37.3830   24.8270    4.5050 O.2   270  LEU270     -0.2867
    110  CB        34.6260   25.0950    2.4780 C.3   270  LEU270      0.0270
    111  CG        33.8940   23.8120    2.8710 C.3   270  LEU270      0.0019
    112  CD1       34.2270   23.4250    4.3140 C.3   270  LEU270      0.0001
    113  CD2       32.3800   24.0160    2.7310 C.3   270  LEU270      0.0001
    114  N         31.4820   26.6930    6.7500 N.3   273  PHE273     -0.1241
    115  CA        30.5260   25.6820    6.2960 C.3   273  PHE273      0.1605
    116  C         29.2750   25.7920    7.1440 C.2   273  PHE273      0.2264
    117  O         29.2300   25.2540    8.2540 O.2   273  PHE273     -0.2867
    118  CB        31.1670   24.2780    6.4270 C.3   273  PHE273      0.0534
    119  CG        30.5080   23.1870    5.5910 C.ar  273  PHE273     -0.0203
    120  CD1       29.3290   23.4110    4.8670 C.ar  273  PHE273     -0.0042
    121  CD2       31.0680   21.9060    5.5680 C.ar  273  PHE273     -0.0042
    122  CE1       28.7450   22.3870    4.1130 C.ar  273  PHE273     -0.0003
    123  CE2       30.4900   20.8750    4.8390 C.ar  273  PHE273     -0.0003
    124  CZ        29.3210   21.1180    4.1030 C.ar  273  PHE273     -0.0000
    125  N         25.9690   25.3660    5.7520 N.3   275  SER275     -0.1202
    126  CA        24.8640   24.5940    5.1540 C.3   275  SER275      0.2020
    127  C         24.7750   23.1510    5.6760 C.2   275  SER275      0.2618
    128  O         23.9550   22.3610    5.1990 O.2   275  SER275     -0.2717
    129  CB        24.9510   24.6100    3.6230 C.3   275  SER275      0.2103
    130  OG        26.2380   24.1920    3.1960 O.3   275  SER275     -0.2182
    131  N         25.6060   22.8100    6.6540 N.am  276  TYR276     -0.1975
    132  CA        25.5100   21.4910    7.2770 C.3   276  TYR276      0.1639
    133  C         25.4520   21.6300    8.8000 C.2   276  TYR276      0.2290
    134  O         25.0810   22.6900    9.3140 O.2   276  TYR276     -0.2864
    135  CB        26.6860   20.6100    6.8100 C.3   276  TYR276      0.0560
    136  CG        26.4710   19.1120    6.9550 C.ar  276  TYR276     -0.0198
    137  CD1       25.3170   18.4920    6.4690 C.ar  276  TYR276     -0.0009
    138  CD2       27.4520   18.3130    7.5540 C.ar  276  TYR276     -0.0009
    139  CE1       25.1280   17.0990    6.6070 C.ar  276  TYR276      0.0417
    140  CE2       27.2840   16.9480    7.6850 C.ar  276  TYR276      0.0417
    141  CZ        26.1290   16.3440    7.2130 C.ar  276  TYR276      0.1957
    142  OH        25.9970   14.9790    7.3470 O.3   276  TYR276     -0.2866
    143  N         36.1900   18.5700   10.0220 N.3   284  MET284     -0.1245
    144  CA        36.9770   18.5780    8.7750 C.3   284  MET284      0.1570
    145  C         38.4340   19.0280    8.9710 C.2   284  MET284      0.2261
    146  O         39.3610   18.4250    8.4190 O.2   284  MET284     -0.2867
    147  CB        36.2940   19.4750    7.7460 C.3   284  MET284      0.0387
    148  CG        34.9940   18.8810    7.2340 C.3   284  MET284      0.0595
    149  SD        34.1180   19.9310    6.0580 S.3   284  MET284     -0.1393
    150  CE        35.3240   20.1190    4.7610 C.3   284  MET284      0.0692
@<TRIPOS>BOND
     1    48    49    1
     2    51    50    2
     3    50    49    1
     4    49    52    1
     5    58    59    1
     6    60    59    1
     7    60    61    2
     8    23    24    1
     9    52    53    1
    10    59    62    1
    11    26    25    2
    12    24    25    1
    13    24    27    1
    14    25    37   am
    15    62    63    1
    16    53    55   ar
    17    53    54   ar
    18    55    57   ar
    19    63    64   ar
    20    63    65   ar
    21    27    28    1
    22    64    66   ar
    23    65    67   ar
    24    37    38    1
    25    66    67   ar
    26    38    41    1
    27    38    39    1
    28    54    56   ar
    29    29    28   ar
    30    29    31   ar
    31    41    42    1
    32    28    30   ar
    33    57    56   ar
    34    68    69    1
    35    22    20    1
    36    44    42   ar
    37    44    46   ar
    38    39    40    2
    39    42    43   ar
    40     9    10   ar
    41     9     7   ar
    42    31    32   ar
    43    20    19    1
    44    10     8   ar
    45    30    32   ar
    46    30    33   ar
    47     7     6   ar
    48    15    16    1
    49    98    99    1
    50    69    72    1
    51    69    70    1
    52    46    47   ar
    53    19    16    1
    54    19    21    1
    55   104   103   ar
    56     1     2    1
    57    32    34   ar
    58    73    72    1
    59    73    74    1
    60   102   103    1
    61   102    99    1
    62   103   105   ar
    63    99   100    1
    64    33    35   ar
    65    43    45   ar
    66    74    75    1
    67     8     6   ar
    68     6     5    1
    69    70    71    2
    70     2     5    1
    71     2     3    1
    72    75    76    2
    73    77    76    1
    74    16    17    1
    75    76    78    1
    76    47    45   ar
    77    17    18    2
    78    34    36   ar
    79     3     4    2
    80   100   101    2
    81    35    36   ar
    82    89    88   ar
    83    89    87   ar
    84    88    86   ar
    85    87    85   ar
    86    86    84   ar
    87    85    84   ar
    88    84    83    1
    89    83    80    1
    90    12    11    1
    91    12    13    1
    92    79    80    1
    93   106   107    1
    94    82    81    2
    95   107   110    1
    96   107   108    1
    97   110   111    1
    98    80    81    1
    99    93    92    2
   100   113   111    1
   101    13    14    2
   102   111   112    1
   103    96    95    1
   104   130   129    1
   105   129   126    1
   106   108   109    2
   107    92    91    1
   108   124   122   ar
   109   124   123   ar
   110   122   120   ar
   111    95    97    1
   112    95    94    1
   113    91    94    1
   114    91    90    1
   115   150   149    1
   116   123   121   ar
   117   120   119   ar
   118   126   127    1
   119   126   125    1
   120   128   127    2
   121   121   119   ar
   122   119   118    1
   123   127   131   am
   124   149   148    1
   125   115   118    1
   126   115   114    1
   127   115   116    1
   128   137   139   ar
   129   137   136   ar
   130   139   141   ar
   131   131   132    1
   132   135   136    1
   133   135   132    1
   134   136   138   ar
   135   116   117    2
   136   141   142    1
   137   141   140   ar
   138   148   147    1
   139   132   133    1
   140   138   140   ar
   141   147   144    1
   142   146   145    2
   143   144   145    1
   144   144   143    1
   145   133   134    2
