@<TRIPOS>MOLECULE
tmp/3oogA00.pdb
 136 127 0 0 0
SMALL
GASTEIGER

@<TRIPOS>ATOM
      1  N         27.3170   15.4180   -7.9770 N.3    34  LEU34      -0.1231
      2  CA        27.5410   14.0000   -8.2420 C.3    34  LEU34       0.1693
      3  C         26.3800   13.1140   -7.8210 C.2    34  LEU34       0.2592
      4  O         26.3320   11.9010   -8.0370 O.2    34  LEU34      -0.2718
      5  CB        28.7760   13.5040   -7.4790 C.3    34  LEU34       0.0284
      6  CG        30.0880   14.2220   -7.8030 C.3    34  LEU34       0.0019
      7  CD1       31.1490   13.8000   -6.8010 C.3    34  LEU34       0.0001
      8  CD2       30.4690   13.9160   -9.2380 C.3    34  LEU34       0.0001
      9  N         25.3960   13.7260   -7.1630 N.am   35  GLY35      -0.1957
     10  CA        24.3540   12.8590   -6.6100 C.3    35  GLY35       0.1869
     11  C         23.4390   13.7160   -5.7560 C.2    35  GLY35       0.2309
     12  O         23.8510   14.7600   -5.2410 O.2    35  GLY35      -0.2863
     13  N         25.6290   16.0290   -3.0430 N.3    42  VAL42      -0.1245
     14  CA        27.0320   15.6920   -3.0640 C.3    42  VAL42       0.1561
     15  C         27.6420   16.3240   -4.3210 C.2    42  VAL42       0.2260
     16  O         27.1440   16.0530   -5.4200 O.2    42  VAL42      -0.2867
     17  CB        27.3310   14.1850   -3.1000 C.3    42  VAL42       0.0252
     18  CG1       28.8140   13.9540   -3.3770 C.3    42  VAL42       0.0019
     19  CG2       26.9320   13.5000   -1.7970 C.3    42  VAL42       0.0019
     20  N         34.7330   14.9730   -2.6200 N.3    55  ALA55      -0.1245
     21  CA        33.2740   14.9170   -2.7170 C.3    55  ALA55       0.1562
     22  C         32.6700   15.6210   -1.5040 C.2    55  ALA55       0.2260
     23  O         32.8810   15.2000   -0.3640 O.2    55  ALA55      -0.2867
     24  CB        32.7410   13.5030   -2.8310 C.3    55  ALA55       0.0290
     25  N         29.5130   16.5650    0.6630 N.3    57  LYS57      -0.1245
     26  CA        28.0920   16.3280    0.9430 C.3    57  LYS57       0.1561
     27  C         27.5580   17.5520    1.6780 C.2    57  LYS57       0.2260
     28  O         28.1330   17.9730    2.6830 O.2    57  LYS57      -0.2867
     29  CB        27.8960   15.0340    1.7270 C.3    57  LYS57       0.0271
     30  CG        26.4630   14.7280    2.1740 C.3    57  LYS57       0.0035
     31  CD        26.4190   13.3470    2.8150 C.3    57  LYS57       0.0206
     32  CE        25.0300   12.8590    3.1520 C.3    57  LYS57       0.1093
     33  NZ        25.0600   11.4410    3.6400 N.3    57  LYS57      -0.1314
     34  N         34.8590    4.8960    2.7300 N.3    89  VAL89      -0.1245
     35  CA        35.2120    6.2350    2.2710 C.3    89  VAL89       0.1561
     36  C         35.7190    7.1160    3.4030 C.2    89  VAL89       0.2260
     37  O         35.1640    7.0910    4.5010 O.2    89  VAL89      -0.2867
     38  CB        33.9680    6.9030    1.6410 C.3    89  VAL89       0.0252
     39  CG1       32.9850    7.2510    2.7550 C.3    89  VAL89       0.0019
     40  CG2       34.3650    8.1180    0.8380 C.3    89  VAL89       0.0019
     41  N         34.6090   14.5210    1.8210 N.3   105  MET105     -0.1230
     42  CA        35.0830   13.1570    1.7230 C.3   105  MET105      0.1702
     43  C         36.0000   12.9600    0.5190 C.2   105  MET105      0.2592
     44  O         36.0510   13.7800   -0.3910 O.2   105  MET105     -0.2718
     45  CB        33.9030   12.1650    1.6310 C.3   105  MET105      0.0401
     46  CG        32.9980   12.1820    2.8700 C.3   105  MET105      0.0596
     47  SD        31.4140   11.3600    2.6270 S.3   105  MET105     -0.1393
     48  CE        30.4400   12.6420    1.8470 C.3   105  MET105      0.0692
     49  N         36.7110   11.8390    0.5330 N.am  106  GLU106     -0.1966
     50  CA        37.4750   11.3540   -0.5940 C.3   106  GLU106      0.1733
     51  C         36.5920   11.2650   -1.8410 C.2   106  GLU106      0.2616
     52  O         35.4950   10.7050   -1.7360 O.2   106  GLU106     -0.2715
     53  CB        38.0200    9.9560   -0.3070 C.3   106  GLU106      0.0429
     54  CG        39.4830    9.8440    0.0580 C.3   106  GLU106      0.1163
     55  CD        39.9030    8.3970    0.2680 C.2   106  GLU106      0.3649
     56  OE1       39.1020    7.6170    0.8390 O.co2 106  GLU106     -0.2457
     57  OE2       41.0330    8.0590   -0.1390 O.co2 106  GLU106     -0.2457
     58  N         37.0860   11.7760   -2.9570 N.am  107  TYR107     -0.1960
     59  CA        36.4360   11.6370   -4.2580 C.3   107  TYR107      0.1771
     60  C         36.7790   10.2900   -4.8870 C.2   107  TYR107      0.2619
     61  O         37.9470    9.9400   -5.0490 O.2   107  TYR107     -0.2715
     62  CB        36.8290   12.7750   -5.2020 C.3   107  TYR107      0.0574
     63  CG        36.2620   12.6150   -6.5990 C.ar  107  TYR107     -0.0198
     64  CD1       34.9320   12.2530   -6.7890 C.ar  107  TYR107     -0.0009
     65  CD2       37.0580   12.8170   -7.7170 C.ar  107  TYR107     -0.0009
     66  CE1       34.4010   12.1010   -8.0510 C.ar  107  TYR107      0.0417
     67  CE2       36.5290   12.6680   -8.9920 C.ar  107  TYR107      0.0417
     68  CZ        35.2060   12.3130   -9.1460 C.ar  107  TYR107      0.1957
     69  OH        34.6850   12.1620  -10.4090 O.3   107  TYR107     -0.2866
     70  N         35.7610    9.5180   -5.2320 N.am  108  VAL108     -0.1977
     71  CA        35.8950    8.1760   -5.8070 C.3   108  VAL108      0.1596
     72  C         35.3190    8.2000   -7.2190 C.2   108  VAL108      0.2287
     73  O         34.1160    8.1160   -7.4770 O.2   108  VAL108     -0.2864
     74  CB        35.2150    7.1240   -4.9240 C.3   108  VAL108      0.0276
     75  CG1       35.5120    5.7070   -5.3970 C.3   108  VAL108      0.0022
     76  CG2       35.6410    7.2810   -3.4630 C.3   108  VAL108      0.0022
     77  N         29.2860    4.8350   -9.0170 N.3   112  GLU112     -0.1245
     78  CA        28.5610    3.8880   -8.1840 C.3   112  GLU112      0.1567
     79  C         28.5470    2.4850   -8.7730 C.2   112  GLU112      0.2260
     80  O         28.4290    2.3750   -9.9940 O.2   112  GLU112     -0.2867
     81  CB        27.0920    4.3140   -8.0390 C.3   112  GLU112      0.0388
     82  CG        26.8430    5.3450   -6.9590 C.3   112  GLU112      0.1160
     83  CD        25.6460    6.2100   -7.2850 C.2   112  GLU112      0.3649
     84  OE1       24.7500    5.7210   -8.0030 O.co2 112  GLU112     -0.2457
     85  OE2       25.6420    7.3600   -6.8110 O.co2 112  GLU112     -0.2457
     86  N         23.8600    1.5080   -4.8410 N.3   155  GLU155     -0.1231
     87  CA        23.8880    2.9600   -4.9770 C.3   155  GLU155      0.1699
     88  C         24.9140    3.6120   -4.0420 C.2   155  GLU155      0.2592
     89  O         25.4170    4.6910   -4.3720 O.2   155  GLU155     -0.2718
     90  CB        22.5170    3.5690   -4.6730 C.3   155  GLU155      0.0402
     91  CG        21.4630    3.3080   -5.7390 C.3   155  GLU155      0.1161
     92  CD        20.6410    2.0710   -5.4340 C.2   155  GLU155      0.3649
     93  OE1       21.1870    1.0190   -5.0330 O.co2 155  GLU155     -0.2457
     94  OE2       19.4130    2.1670   -5.6150 O.co2 155  GLU155     -0.2457
     95  N         25.1720    2.9490   -2.9300 N.am  156  ASN156     -0.1974
     96  CA        26.0410    3.4000   -1.8560 C.3   156  ASN156      0.1688
     97  C         27.4350    2.7880   -1.9100 C.2   156  ASN156      0.2292
     98  O         28.2140    3.0160   -0.9770 O.2   156  ASN156     -0.2864
     99  CB        25.4280    3.0690   -0.4820 C.3   156  ASN156      0.1181
    100  CG        24.3000    4.0200   -0.1270 C.2   156  ASN156      0.2629
    101  OD1       24.1760    5.0550   -0.7830 O.2   156  ASN156     -0.2716
    102  ND2       23.4880    3.6940    0.8800 N.am  156  ASN156     -0.0877
    103  N         30.9850    2.8360   -3.9260 N.3   158  LEU158     -0.1245
    104  CA        31.6660    3.4420   -5.0750 C.3   158  LEU158      0.1561
    105  C         32.8440    2.5570   -5.4850 C.2   158  LEU158      0.2260
    106  O         33.4010    1.8410   -4.6580 O.2   158  LEU158     -0.2867
    107  CB        32.1630    4.8540   -4.7910 C.3   158  LEU158      0.0270
    108  CG        31.1060    5.8940   -4.4270 C.3   158  LEU158      0.0019
    109  CD1       31.7380    6.9910   -3.5920 C.3   158  LEU158      0.0001
    110  CD2       30.4540    6.4480   -5.6820 C.3   158  LEU158      0.0001
    111  N         29.9130    4.3240    1.1210 N.3   168  THR168     -0.1203
    112  CA        29.5300    5.6720    1.5190 C.3   168  THR168      0.1994
    113  C         28.1430    5.6840    2.1760 C.2   168  THR168      0.2617
    114  O         27.5010    4.6380    2.2460 O.2   168  THR168     -0.2717
    115  CB        29.4650    6.6680    0.3440 C.3   168  THR168      0.1784
    116  OG1       28.3580    6.3270   -0.5050 O.3   168  THR168     -0.2211
    117  CG2       30.7310    6.5750   -0.4830 C.3   168  THR168      0.0376
    118  N         27.7490    6.8650    2.6160 N.am  169  ASP169     -0.1973
    119  CA        26.4680    7.1690    3.2240 C.3   169  ASP169      0.1709
    120  C         26.2600    6.4800    4.5700 C.2   169  ASP169      0.2293
    121  O         25.7360    5.3690    4.7020 O.2   169  ASP169     -0.2864
    122  CB        25.3230    6.7650    2.2830 C.3   169  ASP169      0.1436
    123  CG        24.0500    7.4910    2.7060 C.2   169  ASP169      0.3671
    124  OD1       23.0980    7.5000    1.9030 O.co2 169  ASP169     -0.2456
    125  OD2       24.0180    8.0460    3.8210 O.co2 169  ASP169     -0.2456
    126  N         29.6890    9.3100  -13.5030 N.3   311  PHE311     -0.1241
    127  CA        28.5620    9.7690  -12.7080 C.3   311  PHE311      0.1605
    128  C         27.4600   10.3480  -13.5820 C.2   311  PHE311      0.2264
    129  O         27.7910   10.9350  -14.6240 O.2   311  PHE311     -0.2867
    130  CB        29.0110   10.8720  -11.7300 C.3   311  PHE311      0.0534
    131  CG        29.8270   10.2900  -10.5910 C.ar  311  PHE311     -0.0203
    132  CD1       29.2080    9.8770   -9.4290 C.ar  311  PHE311     -0.0042
    133  CD2       31.2010   10.1680  -10.7250 C.ar  311  PHE311     -0.0042
    134  CE1       29.9680    9.3400   -8.4010 C.ar  311  PHE311     -0.0003
    135  CE2       31.9580    9.6300   -9.7100 C.ar  311  PHE311     -0.0003
    136  CZ        31.3370    9.2070   -8.5500 C.ar  311  PHE311     -0.0000
@<TRIPOS>BOND
     1   129   128    2
     2   128   127    1
     3   126   127    1
     4   127   130    1
     5   130   131    1
     6   133   131   ar
     7   133   135   ar
     8   131   132   ar
     9    69    68    1
    10    80    79    2
    11   135   136   ar
    12   132   134   ar
    13     8     6    1
    14    68    67   ar
    15    68    66   ar
    16    77    78    1
    17    67    65   ar
    18    79    78    1
    19   136   134   ar
    20     2     1    1
    21     2     3    1
    22     2     5    1
    23    78    81    1
    24    66    64   ar
    25    81    82    1
    26     4     3    2
    27    84    83   ar
    28     3     9   am
    29     6     5    1
    30     6     7    1
    31    65    63   ar
    32    73    72    2
    33    83    82    1
    34    83    85   ar
    35    72    71    1
    36     9    10    1
    37    64    63   ar
    38    10    11    1
    39    63    62    1
    40    71    70    1
    41    71    74    1
    42    11    12    2
    43    91    92    1
    44    91    90    1
    45   110   108    1
    46    94    92   ar
    47   105   104    1
    48   105   106    2
    49    92    93   ar
    50    16    15    2
    51    75    74    1
    52    70    60   am
    53    62    59    1
    54   104   107    1
    55   104   103    1
    56    61    60    2
    57    87    86    1
    58    87    90    1
    59    87    88    1
    60    74    76    1
    61    60    59    1
    62   107   108    1
    63   108   109    1
    64    89    88    2
    65    15    14    1
    66    59    58    1
    67    88    95   am
    68    18    17    1
    69    17    14    1
    70    17    19    1
    71    14    13    1
    72    58    51   am
    73    95    96    1
    74    24    21    1
    75    21    20    1
    76    21    22    1
    77    97    96    1
    78    97    98    2
    79    96    99    1
    80    51    52    2
    81    51    50    1
    82    22    23    2
    83   101   100    2
    84    50    53    1
    85    50    49    1
    86   116   115    1
    87   117   115    1
    88    99   100    1
    89    44    43    2
    90    53    54    1
    91    57    55   ar
    92   100   102   am
    93    54    55    1
    94    55    56   ar
    95   115   112    1
    96    43    49   am
    97    43    42    1
    98    25    26    1
    99    40    38    1
   100    26    27    1
   101    26    29    1
   102   111   112    1
   103   112   113    1
   104    45    42    1
   105    45    46    1
   106    38    35    1
   107    38    39    1
   108    27    28    2
   109    42    41    1
   110    29    30    1
   111    48    47    1
   112   124   123   ar
   113    30    31    1
   114   113   114    2
   115   113   118   am
   116    35    34    1
   117    35    36    1
   118   122   123    1
   119   122   119    1
   120   118   119    1
   121    47    46    1
   122   123   125   ar
   123    31    32    1
   124    32    33    1
   125   119   120    1
   126    36    37    2
   127   120   121    2
