@<TRIPOS>MOLECULE
tmp/3ooiA00.pdb
 223 222 0 0 0
SMALL
GASTEIGER

@<TRIPOS>ATOM
      1  N          3.0230  -10.8270   -4.3790 N.3    17  PRO17      -0.2116
      2  CA         3.6470   -9.5330   -4.1160 C.3    17  PRO17       0.1372
      3  C          4.5440   -9.5720   -2.8770 C.2    17  PRO17       0.2244
      4  O          4.4380  -10.5100   -2.0760 O.2    17  PRO17      -0.2868
      5  CB         2.4470   -8.6030   -3.8930 C.3    17  PRO17       0.0268
      6  CG         1.3550   -9.4900   -3.4550 C.3    17  PRO17       0.0207
      7  CD         1.5660  -10.7930   -4.1600 C.3    17  PRO17       0.0892
      8  N          2.6500   -4.2540  -17.0470 N.3   101  GLN101     -0.1231
      9  CA         3.4730   -3.0520  -17.0430 C.3   101  GLN101      0.1698
     10  C          3.3490   -2.2290  -15.7640 C.2   101  GLN101      0.2592
     11  O          4.0850   -1.2580  -15.5880 O.2   101  GLN101     -0.2718
     12  CB         3.0890   -2.1530  -18.2160 C.3   101  GLN101      0.0381
     13  CG         3.3530   -2.7680  -19.5810 C.3   101  GLN101      0.0905
     14  CD         2.9040   -1.8350  -20.6710 C.2   101  GLN101      0.2608
     15  OE1        1.7290   -1.8250  -21.0540 O.2   101  GLN101     -0.2717
     16  NE2        3.8240   -1.0360  -21.1700 N.am  101  GLN101     -0.0878
     17  N          2.4140   -2.6070  -14.8950 N.am  102  ARG102     -0.1966
     18  CA         2.0510   -1.7910  -13.7240 C.3   102  ARG102      0.1729
     19  C          2.0860   -2.6390  -12.4420 C.2   102  ARG102      0.2617
     20  O          1.3010   -2.4360  -11.5010 O.2   102  ARG102     -0.2715
     21  CB         0.6740   -1.1260  -13.9370 C.3   102  ARG102      0.0348
     22  CG         0.6470   -0.1420  -15.1350 C.3   102  ARG102      0.0492
     23  CD        -0.7860    0.2450  -15.6020 C.3   102  ARG102      0.2205
     24  NE        -1.4920   -0.9490  -16.0730 N.pl3 102  ARG102     -0.0865
     25  CZ        -2.5240   -1.5140  -15.4470 C.cat 102  ARG102      0.5346
     26  NH1       -3.0390   -0.9530  -14.3650 N.pl3 102  ARG102      0.1354
     27  NH2       -3.0550   -2.6360  -15.9210 N.pl3 102  ARG102      0.1354
     28  N          2.9890   -3.6130  -12.4180 N.am  103  GLY103     -0.1940
     29  CA         3.1540   -4.4920  -11.2500 C.3   103  GLY103      0.2014
     30  C          1.8690   -5.2080  -10.8560 C.2   103  GLY103      0.2638
     31  O          1.1400   -5.6990  -11.7270 O.2   103  GLY103     -0.2714
     32  N          1.5940   -5.2900   -9.5510 N.am  104  TRP104     -0.1973
     33  CA         0.3500   -5.9240   -9.0550 C.3   104  TRP104      0.1640
     34  C         -0.7800   -4.9230   -9.1320 C.2   104  TRP104      0.2290
     35  O         -0.5640   -3.7250   -8.9400 O.2   104  TRP104     -0.2864
     36  CB         0.5040   -6.4680   -7.6230 C.3   104  TRP104      0.0576
     37  CG         1.4670   -7.6320   -7.6050 C.ar  104  TRP104      0.0006
     38  CD1        2.8250   -7.5590   -7.4900 C.ar  104  TRP104      0.0946
     39  CD2        1.1530   -9.0260   -7.7800 C.ar  104  TRP104      0.0152
     40  NE1        3.3720   -8.8160   -7.5630 N.ar  104  TRP104     -0.2442
     41  CE2        2.3740   -9.7350   -7.7410 C.ar  104  TRP104      0.0810
     42  CE3       -0.0410   -9.7430   -7.9590 C.ar  104  TRP104      0.0012
     43  CZ2        2.4410  -11.1330   -7.8820 C.ar  104  TRP104      0.0191
     44  CZ3        0.0270  -11.1420   -8.0840 C.ar  104  TRP104      0.0001
     45  CH2        1.2600  -11.8100   -8.0470 C.ar  104  TRP104      0.0015
     46  N         -8.4790    4.1910    1.7760 N.3   121  TYR121     -0.1241
     47  CA        -7.0330    4.1150    1.6280 C.3   121  TYR121      0.1605
     48  C         -6.3950    4.2130    3.0120 C.2   121  TYR121      0.2264
     49  O         -6.3240    5.2940    3.6070 O.2   121  TYR121     -0.2867
     50  CB        -6.5230    5.2120    0.6870 C.3   121  TYR121      0.0534
     51  CG        -5.1410    4.9220    0.1700 C.ar  121  TYR121     -0.0201
     52  CD1       -4.9590    4.1750   -0.9950 C.ar  121  TYR121     -0.0009
     53  CD2       -4.0150    5.3880    0.8480 C.ar  121  TYR121     -0.0009
     54  CE1       -3.6620    3.8900   -1.4800 C.ar  121  TYR121      0.0417
     55  CE2       -2.7250    5.1240    0.3720 C.ar  121  TYR121      0.0417
     56  CZ        -2.5630    4.3710   -0.7900 C.ar  121  TYR121      0.1957
     57  OH        -1.2850    4.1050   -1.2600 O.3   121  TYR121     -0.2866
     58  N         10.6310    1.5130   -7.1220 N.3   144  THR144     -0.1203
     59  CA         9.8690    2.4520   -7.9300 C.3   144  THR144      0.1994
     60  C          8.3800    2.4100   -7.5770 C.2   144  THR144      0.2618
     61  O          7.5740    3.0800   -8.2250 O.2   144  THR144     -0.2717
     62  CB        10.0300    2.1420   -9.4350 C.3   144  THR144      0.1784
     63  OG1        9.7260    0.7580   -9.6560 O.3   144  THR144     -0.2211
     64  CG2       11.4670    2.4190   -9.9000 C.3   144  THR144      0.0376
     65  N          8.0300    1.6120   -6.5730 N.am  145  ASN145     -0.1960
     66  CA         6.6560    1.5230   -6.0700 C.3   145  ASN145      0.1819
     67  C          6.5100    2.3800   -4.8380 C.2   145  ASN145      0.2621
     68  O          7.2140    2.1690   -3.8460 O.2   145  ASN145     -0.2715
     69  CB         6.3100    0.0880   -5.6720 C.3   145  ASN145      0.1195
     70  CG         5.9030   -0.7610   -6.8490 C.2   145  ASN145      0.2630
     71  OD1        4.9890   -0.4170   -7.5990 O.2   145  ASN145     -0.2716
     72  ND2        6.5800   -1.8890   -7.0140 N.am  145  ASN145     -0.0877
     73  N          5.5790    3.3230   -4.8910 N.am  146  PHE146     -0.1960
     74  CA         5.3050    4.2020   -3.7630 C.3   146  PHE146      0.1771
     75  C          3.8350    4.0890   -3.4440 C.2   146  PHE146      0.2619
     76  O          3.0230    3.8630   -4.3410 O.2   146  PHE146     -0.2715
     77  CB         5.6750    5.6470   -4.1030 C.3   146  PHE146      0.0574
     78  CG         7.1420    5.8290   -4.3740 C.ar  146  PHE146     -0.0200
     79  CD1        8.0300    5.9940   -3.3250 C.ar  146  PHE146     -0.0042
     80  CD2        7.6320    5.7770   -5.6770 C.ar  146  PHE146     -0.0042
     81  CE1        9.4090    6.1320   -3.5710 C.ar  146  PHE146     -0.0003
     82  CE2        9.0050    5.9110   -5.9380 C.ar  146  PHE146     -0.0003
     83  CZ         9.8920    6.0940   -4.8790 C.ar  146  PHE146     -0.0000
     84  N          3.4960    4.2610   -2.1700 N.am  147  TYR147     -0.1974
     85  CA         2.1240    4.0510   -1.6900 C.3   147  TYR147      0.1639
     86  C          1.7080    5.2020   -0.7850 C.2   147  TYR147      0.2290
     87  O          0.8870    5.0140    0.1240 O.2   147  TYR147     -0.2864
     88  CB         2.0300    2.7420   -0.8760 C.3   147  TYR147      0.0560
     89  CG         2.4710    1.5060   -1.6290 C.ar  147  TYR147     -0.0198
     90  CD1        1.5510    0.7260   -2.3330 C.ar  147  TYR147     -0.0009
     91  CD2        3.8140    1.1090   -1.6250 C.ar  147  TYR147     -0.0009
     92  CE1        1.9600   -0.4120   -3.0230 C.ar  147  TYR147      0.0417
     93  CE2        4.2260   -0.0160   -2.3150 C.ar  147  TYR147      0.0417
     94  CZ         3.2940   -0.7700   -3.0060 C.ar  147  TYR147      0.1957
     95  OH         3.7180   -1.8790   -3.6980 O.3   147  TYR147     -0.2866
     96  N         -4.1220   -0.3800   -1.5170 N.3   167  ARG167     -0.1231
     97  CA        -2.7160   -0.1820   -1.8780 C.3   167  ARG167      0.1694
     98  C         -2.3690   -0.7790   -3.2390 C.2   167  ARG167      0.2592
     99  O         -1.3530   -0.4220   -3.8280 O.2   167  ARG167     -0.2718
    100  CB        -1.7920   -0.7700   -0.7990 C.3   167  ARG167      0.0321
    101  CG        -1.6380   -2.2730   -0.8810 C.3   167  ARG167      0.0489
    102  CD        -0.9560   -2.8600    0.3480 C.3   167  ARG167      0.2205
    103  NE         0.4760   -2.5420    0.4520 N.pl3 167  ARG167     -0.0865
    104  CZ         1.4560   -3.1510   -0.2240 C.cat 167  ARG167      0.5346
    105  NH1        2.7240   -2.8100   -0.0110 N.pl3 167  ARG167      0.1354
    106  NH2        1.1890   -4.1060   -1.1040 N.pl3 167  ARG167      0.1354
    107  N         -3.2030   -1.6930   -3.7330 N.am  168  PHE168     -0.1962
    108  CA        -2.9410   -2.3320   -5.0110 C.3   168  PHE168      0.1771
    109  C         -3.6260   -1.6570   -6.2040 C.2   168  PHE168      0.2619
    110  O         -3.4620   -2.1070   -7.3560 O.2   168  PHE168     -0.2715
    111  CB        -3.3660   -3.8040   -4.9500 C.3   168  PHE168      0.0574
    112  CG        -2.4680   -4.6580   -4.1000 C.ar  168  PHE168     -0.0200
    113  CD1       -2.8660   -5.0570   -2.8130 C.ar  168  PHE168     -0.0042
    114  CD2       -1.2390   -5.0830   -4.5900 C.ar  168  PHE168     -0.0042
    115  CE1       -2.0140   -5.8520   -2.0180 C.ar  168  PHE168     -0.0003
    116  CE2       -0.3940   -5.9050   -3.8100 C.ar  168  PHE168     -0.0003
    117  CZ        -0.7880   -6.2810   -2.5290 C.ar  168  PHE168     -0.0000
    118  N         -4.3820   -0.5970   -5.9480 N.am  169  MET169     -0.1963
    119  CA        -5.1030    0.0840   -7.0270 C.3   169  MET169      0.1736
    120  C         -4.1800    0.9900   -7.8370 C.2   169  MET169      0.2616
    121  O         -3.5600    1.9120   -7.2990 O.2   169  MET169     -0.2715
    122  CB        -6.2990    0.8510   -6.4820 C.3   169  MET169      0.0427
    123  CG        -7.4180   -0.1120   -6.1130 C.3   169  MET169      0.0599
    124  SD        -8.8120    0.6540   -5.2940 S.3   169  MET169     -0.1393
    125  CE        -9.4640    1.7020   -6.6080 C.3   169  MET169      0.0692
    126  N         -4.0860    0.6890   -9.1280 N.am  170  ASN170     -0.1958
    127  CA        -3.2100    1.4070  -10.0460 C.3   170  ASN170      0.1819
    128  C         -3.8130    2.7200  -10.5290 C.2   170  ASN170      0.2621
    129  O         -5.0240    2.9400  -10.4250 O.2   170  ASN170     -0.2715
    130  CB        -2.8470    0.5050  -11.2400 C.3   170  ASN170      0.1195
    131  CG        -1.7910   -0.5370  -10.8740 C.2   170  ASN170      0.2630
    132  OD1       -1.8880   -1.7130  -11.2620 O.2   170  ASN170     -0.2716
    133  ND2       -0.7970   -0.1170  -10.1090 N.am  170  ASN170     -0.0877
    134  N         -2.9570    3.5830  -11.0760 N.am  171  HIS171     -0.1973
    135  CA        -3.4070    4.8570  -11.6600 C.3   171  HIS171      0.1656
    136  C         -3.9090    4.6470  -13.0930 C.2   171  HIS171      0.2291
    137  O         -3.2950    3.9180  -13.8580 O.2   171  HIS171     -0.2864
    138  CB        -2.2500    5.8780  -11.7120 C.3   171  HIS171      0.0771
    139  CG        -2.5470    7.0310  -12.6290 C.ar  171  HIS171      0.0820
    140  ND1       -3.2240    8.1500  -12.2070 N.ar  171  HIS171     -0.2267
    141  CD2       -2.3610    7.1810  -13.9670 C.ar  171  HIS171      0.1154
    142  CE1       -3.4010    8.9700  -13.2330 C.ar  171  HIS171      0.1986
    143  NE2       -2.8830    8.4060  -14.3140 N.ar  171  HIS171     -0.2212
    144  N         -7.8090    4.4240  -10.0810 N.3   206  PHE206     -0.1241
    145  CA        -8.2040    5.8120   -9.8490 C.3   206  PHE206      0.1605
    146  C         -7.1630    6.7550  -10.4280 C.2   206  PHE206      0.2264
    147  O         -6.0530    6.3360  -10.7550 O.2   206  PHE206     -0.2867
    148  CB        -8.5260    6.0920   -8.3650 C.3   206  PHE206      0.0534
    149  CG        -7.3310    5.9970   -7.4020 C.ar  206  PHE206     -0.0203
    150  CD1       -6.7510    7.1560   -6.8810 C.ar  206  PHE206     -0.0042
    151  CD2       -6.8620    4.7510   -6.9460 C.ar  206  PHE206     -0.0042
    152  CE1       -5.6860    7.0770   -5.9370 C.ar  206  PHE206     -0.0003
    153  CE2       -5.7970    4.6700   -6.0280 C.ar  206  PHE206     -0.0003
    154  CZ        -5.2250    5.8370   -5.5260 C.ar  206  PHE206     -0.0000
    155  N         -4.5400    9.2060   -9.7800 N.3   208  TYR208     -0.1241
    156  CA        -3.7090    9.5940   -8.6540 C.3   208  TYR208      0.1605
    157  C         -3.6300   11.1110   -8.4710 C.2   208  TYR208      0.2264
    158  O         -3.3540   11.5830   -7.3570 O.2   208  TYR208     -0.2867
    159  CB        -2.2910    9.0350   -8.8180 C.3   208  TYR208      0.0534
    160  CG        -2.1010    7.5480   -8.5670 C.ar  208  TYR208     -0.0201
    161  CD1       -3.1870    6.6730   -8.4180 C.ar  208  TYR208     -0.0009
    162  CD2       -0.8090    7.0080   -8.5310 C.ar  208  TYR208     -0.0009
    163  CE1       -2.9940    5.2940   -8.2100 C.ar  208  TYR208      0.0417
    164  CE2       -0.5970    5.6480   -8.3380 C.ar  208  TYR208      0.0417
    165  CZ        -1.6860    4.7880   -8.1640 C.ar  208  TYR208      0.1957
    166  OH        -1.4590    3.4420   -7.9850 O.3   208  TYR208     -0.2866
    167  N          0.5540   10.6710   -5.5620 N.3   212  CYS212     -0.1235
    168  CA         1.3290    9.5230   -5.0690 C.3   212  CYS212      0.1677
    169  C          2.7850    9.9550   -4.9250 C.2   212  CYS212      0.2270
    170  O          3.5080   10.0510   -5.9110 O.2   212  CYS212     -0.2867
    171  CB         1.1820    8.3090   -5.9900 C.3   212  CYS212      0.0956
    172  SG         1.8800    6.7710   -5.2680 S.3   212  CYS212     -0.0801
    173  N          6.2880    9.5800   -7.2030 N.3   215  ASN215     -0.1240
    174  CA         6.0380    9.2750   -8.6160 C.3   215  ASN215      0.1653
    175  C          5.9750   10.4850   -9.5640 C.2   215  ASN215      0.2266
    176  O          5.4720   10.3730  -10.6950 O.2   215  ASN215     -0.2867
    177  CB         4.7630    8.4410   -8.7620 C.3   215  ASN215      0.1155
    178  CG         4.9700    6.9830   -8.3950 C.2   215  ASN215      0.2627
    179  OD1        4.2890    6.4680   -7.5070 O.2   215  ASN215     -0.2716
    180  ND2        5.8890    6.3000   -9.0880 N.am  215  ASN215     -0.0877
    181  N          7.3140    9.7080  -12.9500 N.3   218  THR218     -0.1203
    182  CA         6.9550    8.4060  -13.5170 C.3   218  THR218      0.1994
    183  C          6.1350    8.5190  -14.8030 C.2   218  THR218      0.2618
    184  O          5.2030    9.3240  -14.8890 O.2   218  THR218     -0.2717
    185  CB         6.2330    7.5420  -12.4620 C.3   218  THR218      0.1784
    186  OG1        7.0750    7.4440  -11.3100 O.3   218  THR218     -0.2211
    187  CG2        5.9320    6.1390  -13.0080 C.3   218  THR218      0.0376
    188  N          6.5000    7.7130  -15.8000 N.am  219  VAL219     -0.1965
    189  CA         5.7670    7.6740  -17.0620 C.3   219  VAL219      0.1727
    190  C          4.5610    6.7600  -16.9230 C.2   219  VAL219      0.2616
    191  O          4.6930    5.6070  -16.5040 O.2   219  VAL219     -0.2715
    192  CB         6.6640    7.1730  -18.2370 C.3   219  VAL219      0.0290
    193  CG1        5.8340    7.0200  -19.5160 C.3   219  VAL219      0.0023
    194  CG2        7.8390    8.1400  -18.4670 C.3   219  VAL219      0.0023
    195  N          3.3940    7.2690  -17.2900 N.am  220  CYS220     -0.1954
    196  CA         2.1720    6.4960  -17.1840 C.3   220  CYS220      0.1843
    197  C          2.0810    5.4120  -18.2570 C.2   220  CYS220      0.2625
    198  O          2.3250    5.6680  -19.4400 O.2   220  CYS220     -0.2714
    199  CB         0.9490    7.3990  -17.2820 C.3   220  CYS220      0.0997
    200  SG        -0.5980    6.5110  -16.9540 S.3   220  CYS220     -0.0797
    201  N          1.6880    4.2180  -17.8230 N.am  221  LYS221     -0.1963
    202  CA         1.5130    3.0830  -18.7210 C.3   221  LYS221      0.1728
    203  C          0.0520    2.6250  -18.7260 C.2   221  LYS221      0.2616
    204  O         -0.2350    1.4600  -19.0300 O.2   221  LYS221     -0.2715
    205  CB         2.4340    1.9220  -18.3030 C.3   221  LYS221      0.0311
    206  CG         3.9270    2.2730  -18.2160 C.3   221  LYS221      0.0038
    207  CD         4.4900    2.6450  -19.5700 C.3   221  LYS221      0.0206
    208  CE         5.9290    3.1340  -19.4510 C.3   221  LYS221      0.1093
    209  NZ         6.3820    3.6480  -20.7730 N.3   221  LYS221     -0.1314
    210  N         -0.8740    3.5360  -18.4270 N.am  222  CYS222     -0.1968
    211  CA        -2.2990    3.1570  -18.3350 C.3   222  CYS222      0.1712
    212  C         -2.9380    2.7880  -19.6720 C.2   222  CYS222      0.2296
    213  O         -3.9620    2.1050  -19.6890 O.2   222  CYS222     -0.2864
    214  CB        -3.1450    4.2320  -17.6370 C.3   222  CYS222      0.0983
    215  SG        -3.6780    5.6240  -18.7120 S.3   222  CYS222     -0.0798
    216  N          1.3420   10.2410  -13.7770 N.3   231  LEU231     -0.1245
    217  CA         0.3390    9.6700  -12.8620 C.3   231  LEU231      0.1561
    218  C         -0.5700   10.7580  -12.2910 C.2   231  LEU231      0.2260
    219  O         -0.6030   11.0020  -11.0790 O.2   231  LEU231     -0.2867
    220  CB         1.0050    8.8130  -11.7650 C.3   231  LEU231      0.0270
    221  CG         1.9450    7.6900  -12.2150 C.3   231  LEU231      0.0019
    222  CD1        2.2560    6.7470  -11.0240 C.3   231  LEU231      0.0001
    223  CD2        1.4580    6.9110  -13.4190 C.3   231  LEU231      0.0001
@<TRIPOS>BOND
     1    16    14   am
     2    15    14    2
     3   209   208    1
     4    14    13    1
     5   213   212    2
     6   212   211    1
     7    13    12    1
     8   207   208    1
     9   207   206    1
    10   193   192    1
    11   198   197    2
    12   204   203    2
    13   203   202    1
    14   203   210   am
    15   202   205    1
    16   202   201    1
    17   215   214    1
    18   194   192    1
    19   210   211    1
    20   211   214    1
    21   205   206    1
    22   197   201   am
    23   197   196    1
    24   192   189    1
    25    12     9    1
    26   195   196    1
    27   195   190   am
    28   199   196    1
    29   199   200    1
    30   189   190    1
    31   189   188    1
    32     8     9    1
    33     9    10    1
    34   190   191    2
    35    24    23    1
    36    24    25    2
    37    27    25    1
    38   188   183   am
    39    10    11    2
    40    10    17   am
    41    23    22    1
    42    25    26    1
    43    22    21    1
    44    17    18    1
    45   184   183    2
    46   183   182    1
    47   143   141   ar
    48   143   142   ar
    49   141   139   ar
    50    21    18    1
    51   137   136    2
    52   216   217    1
    53    18    19    1
    54   182   181    1
    55   182   185    1
    56   223   221    1
    57   142   140   ar
    58   136   135    1
    59   187   185    1
    60   217   218    1
    61   217   220    1
    62   139   140   ar
    63   139   138    1
    64   185   186    1
    65    19    28   am
    66    19    20    2
    67    28    29    1
    68   218   219    2
    69   221   220    1
    70   221   222    1
    71    31    30    2
    72   138   135    1
    73   135   134    1
    74   132   131    2
    75    29    30    1
    76   130   131    1
    77   130   127    1
    78   134   128   am
    79   131   133   am
    80    30    32   am
    81   147   146    2
    82   176   175    2
    83   128   129    2
    84   128   127    1
    85   146   145    1
    86   144   145    1
    87   127   126    1
    88    64    62    1
    89   145   148    1
    90   155   156    1
    91    63    62    1
    92   175   174    1
    93    32    33    1
    94    62    59    1
    95    34    33    1
    96    34    35    2
    97   126   120   am
    98   180   178   am
    99    33    36    1
   100   159   156    1
   101   159   160    1
   102   177   174    1
   103   177   178    1
   104   156   157    1
   105   174   173    1
   106   160   162   ar
   107   160   161   ar
   108   162   164   ar
   109   157   158    2
   110   161   163   ar
   111   178   179    2
   112   148   149    1
   113   164   165   ar
   114    61    60    2
   115   163   165   ar
   116   165   166    1
   117    44    45   ar
   118    44    42   ar
   119    45    43   ar
   120    42    39   ar
   121    59    60    1
   122    59    58    1
   123    43    41   ar
   124   120   121    2
   125   120   119    1
   126    39    41   ar
   127    39    37   ar
   128    41    40   ar
   129    36    37    1
   130    37    38   ar
   131    71    70    2
   132    60    65   am
   133    40    38   ar
   134   149   151   ar
   135   149   150   ar
   136   110   109    2
   137   119   122    1
   138   119   118    1
   139    72    70   am
   140   151   153   ar
   141   150   152   ar
   142    70    69    1
   143   125   124    1
   144    65    66    1
   145   122   123    1
   146   109   118   am
   147   109   108    1
   148   123   124    1
   149    66    69    1
   150    66    67    1
   151   153   154   ar
   152   171   172    1
   153   171   168    1
   154    82    80   ar
   155    82    83   ar
   156   152   154   ar
   157   170   169    2
   158    80    78   ar
   159   167   168    1
   160   168   169    1
   161   108   111    1
   162   108   107    1
   163   111   112    1
   164    73    67   am
   165    73    74    1
   166    83    81   ar
   167    67    68    2
   168   114   112   ar
   169   114   116   ar
   170     1     7    1
   171     1     2    1
   172    78    77    1
   173    78    79   ar
   174    76    75    2
   175     7     6    1
   176     2     5    1
   177     2     3    1
   178    77    74    1
   179   112   113   ar
   180     5     6    1
   181    99    98    2
   182   116   117   ar
   183    74    75    1
   184   107    98   am
   185    95    94    1
   186    81    79   ar
   187    75    84   am
   188    98    97    1
   189    92    94   ar
   190    92    90   ar
   191    94    93   ar
   192     3     4    2
   193   113   115   ar
   194   117   115   ar
   195    90    89   ar
   196    93    91   ar
   197    84    85    1
   198    97    96    1
   199    97   100    1
   200    85    88    1
   201    85    86    1
   202    89    91   ar
   203    89    88    1
   204    54    52   ar
   205    54    56   ar
   206    57    56    1
   207   106   104    1
   208    52    51   ar
   209   101   100    1
   210   101   102    1
   211    56    55   ar
   212    86    87    2
   213   104   105    1
   214   104   103    2
   215    51    50    1
   216    51    53   ar
   217   102   103    1
   218    55    53   ar
   219    50    47    1
   220    47    46    1
   221    47    48    1
   222    48    49    2
