@<TRIPOS>MOLECULE
tmp/3oojA01.pdb
 131 122 0 0 0
SMALL
GASTEIGER

@<TRIPOS>ATOM
      1  N        -31.0520  -42.1790  -76.0740 N.3   300  CYS300     -0.1221
      2  CA       -29.7500  -41.7130  -75.5730 C.3   300  CYS300      0.1808
      3  C        -29.2700  -42.5560  -74.3900 C.2   300  CYS300      0.2602
      4  O        -30.0790  -43.1250  -73.6400 O.2   300  CYS300     -0.2717
      5  CB       -29.8170  -40.2370  -75.1310 C.3   300  CYS300      0.0970
      6  SG       -30.2460  -39.0760  -76.4240 S.3   300  CYS300     -0.0800
      7  N        -27.9550  -42.6180  -74.2220 N.am  301  GLY301     -0.1942
      8  CA       -27.3220  -43.3820  -73.1530 C.3   301  GLY301      0.2014
      9  C        -27.7530  -44.8300  -72.9510 C.2   301  GLY301      0.2640
     10  O        -27.7290  -45.7020  -73.8660 O.2   301  GLY301     -0.2714
     11  N        -28.1590  -45.0920  -71.7140 N.am  302  THR302     -0.1936
     12  CA       -28.5390  -46.4360  -71.3190 C.3   302  THR302      0.2028
     13  C        -29.7830  -46.8930  -72.0890 C.2   302  THR302      0.2642
     14  O        -29.9300  -48.0880  -72.4220 O.2   302  THR302     -0.2714
     15  CB       -28.7220  -46.5120  -69.7890 C.3   302  THR302      0.1808
     16  OG1      -27.4360  -46.3910  -69.1690 O.3   302  THR302     -0.2208
     17  CG2      -29.3560  -47.8230  -69.3680 C.3   302  THR302      0.0379
     18  N        -30.6580  -45.9330  -72.4040 N.am  303  SER303     -0.1949
     19  CA       -31.8560  -46.2370  -73.1930 C.3   303  SER303      0.1924
     20  C        -31.4800  -46.7280  -74.5980 C.2   303  SER303      0.2314
     21  O        -32.0920  -47.6670  -75.1560 O.2   303  SER303     -0.2863
     22  CB       -32.7850  -45.0280  -73.2600 C.3   303  SER303      0.2116
     23  OG       -33.4870  -44.8850  -72.0400 O.3   303  SER303     -0.2180
     24  N        -37.1650  -44.7440  -76.6730 N.3   346  LEU346     -0.1231
     25  CA       -36.9550  -45.3220  -75.3460 C.3   346  LEU346      0.1693
     26  C        -36.4210  -44.2290  -74.4480 C.2   346  LEU346      0.2593
     27  O        -35.4870  -43.5330  -74.8310 O.2   346  LEU346     -0.2718
     28  CB       -35.9340  -46.4650  -75.4150 C.3   346  LEU346      0.0284
     29  CG       -36.4060  -47.7980  -75.9890 C.3   346  LEU346      0.0019
     30  CD1      -35.2320  -48.6790  -76.3560 C.3   346  LEU346      0.0001
     31  CD2      -37.2700  -48.4830  -74.9690 C.3   346  LEU346      0.0001
     32  N        -37.0010  -44.0580  -73.2650 N.am  347  SER347     -0.1938
     33  CA       -36.5210  -42.9910  -72.3730 C.3   347  SER347      0.2055
     34  C        -37.0940  -43.0610  -70.9650 C.2   347  SER347      0.2643
     35  O        -38.3160  -43.0170  -70.7780 O.2   347  SER347     -0.2714
     36  CB       -36.8080  -41.6050  -72.9850 C.3   347  SER347      0.2130
     37  OG       -36.6840  -40.5650  -72.0160 O.3   347  SER347     -0.2179
     38  N        -36.2160  -43.1640  -69.9700 N.am  348  GLN348     -0.1963
     39  CA       -36.6790  -43.2060  -68.5890 C.3   348  GLN348      0.1733
     40  C        -37.5020  -41.9760  -68.2790 C.2   348  GLN348      0.2617
     41  O        -38.6080  -42.0780  -67.7770 O.2   348  GLN348     -0.2715
     42  CB       -35.5240  -43.2980  -67.5950 C.3   348  GLN348      0.0408
     43  CG       -35.9590  -43.6960  -66.1540 C.3   348  GLN348      0.0908
     44  CD       -36.5540  -42.5370  -65.3290 C.2   348  GLN348      0.2608
     45  OE1      -37.4930  -42.7430  -64.5360 O.2   348  GLN348     -0.2717
     46  NE2      -36.0010  -41.3130  -65.5030 N.am  348  GLN348     -0.0878
     47  N        -36.9650  -40.8120  -68.6080 N.am  349  SER349     -0.1950
     48  CA       -37.5260  -39.5610  -68.1330 C.3   349  SER349      0.1924
     49  C        -38.6220  -39.0220  -69.0450 C.2   349  SER349      0.2314
     50  O        -39.4430  -38.2050  -68.6150 O.2   349  SER349     -0.2863
     51  CB       -36.4260  -38.5080  -68.0510 C.3   349  SER349      0.2116
     52  OG       -36.0910  -38.0890  -69.3650 O.3   349  SER349     -0.2180
     53  N        -35.7260  -36.1260  -72.3350 N.3   352  THR352     -0.1218
     54  CA       -34.3970  -35.9850  -72.8940 C.3   352  THR352      0.1862
     55  C        -34.4990  -35.2110  -74.1960 C.2   352  THR352      0.2287
     56  O        -35.2550  -35.5970  -75.0970 O.2   352  THR352     -0.2866
     57  CB       -33.7880  -37.3650  -73.1460 C.3   352  THR352      0.1770
     58  OG1      -33.6980  -38.0640  -71.9020 O.3   352  THR352     -0.2211
     59  CG2      -32.4050  -37.2410  -73.7530 C.3   352  THR352      0.0375
     60  N        -33.8640  -36.9210  -77.7380 N.3   355  THR355     -0.1218
     61  CA       -34.8310  -37.9460  -78.0980 C.3   355  THR355      0.1862
     62  C        -36.1510  -37.2980  -78.4920 C.2   355  THR355      0.2287
     63  O        -36.8100  -37.6970  -79.4670 O.2   355  THR355     -0.2866
     64  CB       -35.0510  -38.8900  -76.9380 C.3   355  THR355      0.1770
     65  OG1      -33.7730  -39.2770  -76.4060 O.3   355  THR355     -0.2211
     66  CG2      -35.8660  -40.0990  -77.3870 C.3   355  THR355      0.0375
     67  N        -29.0040  -41.4130  -60.3440 N.3   399  VAL399     -0.1245
     68  CA       -28.7690  -40.7360  -61.6100 C.3   399  VAL399      0.1561
     69  C        -28.4510  -41.7090  -62.7410 C.2   399  VAL399      0.2260
     70  O        -28.7800  -41.4460  -63.8920 O.2   399  VAL399     -0.2867
     71  CB       -27.6260  -39.6970  -61.4990 C.3   399  VAL399      0.0252
     72  CG1      -26.9430  -39.4960  -62.8370 C.3   399  VAL399      0.0019
     73  CG2      -28.1440  -38.3710  -60.9340 C.3   399  VAL399      0.0019
     74  N        -29.2450  -45.2330  -64.5310 N.3   401  SER401     -0.1217
     75  CA       -30.4410  -46.0780  -64.4960 C.3   401  SER401      0.1889
     76  C        -30.1520  -47.5750  -64.4690 C.2   401  SER401      0.2288
     77  O        -29.1860  -48.0780  -65.0590 O.2   401  SER401     -0.2866
     78  CB       -31.4840  -45.7040  -65.5570 C.3   401  SER401      0.2089
     79  OG       -31.0920  -46.1030  -66.8400 O.3   401  SER401     -0.2183
     80  N        -20.5690  -48.6480  -69.5410 N.3   484  LEU484     -0.1245
     81  CA       -21.0790  -47.3200  -69.2530 C.3   484  LEU484      0.1561
     82  C        -21.2060  -47.1780  -67.7410 C.2   484  LEU484      0.2260
     83  O        -20.8610  -46.1380  -67.1720 O.2   484  LEU484     -0.2867
     84  CB       -22.4110  -47.0730  -69.9490 C.3   484  LEU484      0.0270
     85  CG       -23.2050  -45.8140  -69.5900 C.3   484  LEU484      0.0019
     86  CD1      -22.4230  -44.5150  -69.8720 C.3   484  LEU484      0.0001
     87  CD2      -24.5250  -45.8160  -70.3530 C.3   484  LEU484      0.0001
     88  N        -19.7610  -44.3330  -65.2840 N.3   488  GLU488     -0.1245
     89  CA       -20.6870  -43.4690  -64.5690 C.3   488  GLU488      0.1567
     90  C        -20.3810  -43.3000  -63.0830 C.2   488  GLU488      0.2260
     91  O        -20.1820  -42.1930  -62.6200 O.2   488  GLU488     -0.2867
     92  CB       -22.1080  -44.0210  -64.7090 C.3   488  GLU488      0.0388
     93  CG       -22.7770  -43.7620  -66.0500 C.3   488  GLU488      0.1160
     94  CD       -24.1990  -44.3620  -66.1160 C.2   488  GLU488      0.3649
     95  OE1      -24.3720  -45.5810  -65.8370 O.co2 488  GLU488     -0.2457
     96  OE2      -25.1530  -43.6070  -66.4260 O.co2 488  GLU488     -0.2457
     97  N        -22.6910  -35.8090  -64.0650 N.3   601  LEU601     -0.1231
     98  CA       -23.8020  -36.4590  -64.7600 C.3   601  LEU601      0.1693
     99  C        -25.1430  -35.9270  -64.2520 C.2   601  LEU601      0.2592
    100  O        -25.2480  -35.4880  -63.1040 O.2   601  LEU601     -0.2718
    101  CB       -23.7520  -37.9810  -64.5570 C.3   601  LEU601      0.0284
    102  CG       -22.4540  -38.6590  -65.0050 C.3   601  LEU601      0.0019
    103  CD1      -22.5410  -40.1760  -64.8690 C.3   601  LEU601      0.0001
    104  CD2      -22.0890  -38.2490  -66.4330 C.3   601  LEU601      0.0001
    105  N        -26.1730  -35.9840  -65.0860 N.am  602  ALA602     -0.1966
    106  CA       -27.5180  -35.5640  -64.6650 C.3   602  ALA602      0.1728
    107  C        -28.5520  -36.6680  -64.8970 C.2   602  ALA602      0.2616
    108  O        -28.3300  -37.5550  -65.7150 O.2   602  ALA602     -0.2715
    109  CB       -27.9290  -34.2800  -65.3750 C.3   602  ALA602      0.0334
    110  N        -29.6650  -36.6260  -64.1620 N.am  603  LYS603     -0.1963
    111  CA       -30.7160  -37.6440  -64.3020 C.3   603  LYS603      0.1728
    112  C        -31.2490  -37.6590  -65.7180 C.2   603  LYS603      0.2617
    113  O        -31.3790  -38.7110  -66.3210 O.2   603  LYS603     -0.2715
    114  CB       -31.8720  -37.4110  -63.3360 C.3   603  LYS603      0.0311
    115  CG       -32.9240  -38.5330  -63.3400 C.3   603  LYS603      0.0038
    116  CD       -32.2920  -39.8890  -62.9790 C.3   603  LYS603      0.0206
    117  CE       -33.1710  -41.0630  -63.3710 C.3   603  LYS603      0.1093
    118  NZ       -32.3670  -42.3070  -63.4640 N.3   603  LYS603     -0.1314
    119  N        -31.5610  -36.4860  -66.2510 N.am  604  SER604     -0.1936
    120  CA       -31.8920  -36.3830  -67.6610 C.3   604  SER604      0.2055
    121  C        -31.3550  -35.0840  -68.1900 C.2   604  SER604      0.2642
    122  O        -31.2510  -34.1030  -67.4550 O.2   604  SER604     -0.2714
    123  CB       -33.4050  -36.4550  -67.8970 C.3   604  SER604      0.2130
    124  OG       -34.0870  -35.5370  -67.0700 O.3   604  SER604     -0.2179
    125  N        -31.0210  -35.0850  -69.4710 N.am  605  VAL605     -0.1977
    126  CA       -30.4580  -33.9190  -70.1280 C.3   605  VAL605      0.1596
    127  C        -31.5470  -33.2580  -70.9510 C.2   605  VAL605      0.2287
    128  O        -31.7870  -33.6300  -72.0950 O.2   605  VAL605     -0.2864
    129  CB       -29.2440  -34.3210  -70.9790 C.3   605  VAL605      0.0276
    130  CG1      -28.5930  -33.1070  -71.6060 C.3   605  VAL605      0.0022
    131  CG2      -28.2500  -35.0770  -70.1010 C.3   605  VAL605      0.0022
@<TRIPOS>BOND
     1    63    62    2
     2    62    61    1
     3    61    60    1
     4    61    64    1
     5    66    64    1
     6    64    65    1
     7    24    25    1
     8     6     5    1
     9    30    29    1
    10     1     2    1
    11    29    28    1
    12    29    31    1
    13     2     5    1
    14     2     3    1
    15    28    25    1
    16    25    26    1
    17    21    20    2
    18    56    55    2
    19    27    26    2
    20    20    19    1
    21    26    32   am
    22     3     7   am
    23     3     4    2
    24     7     8    1
    25    55    54    1
    26    10     9    2
    27    59    57    1
    28    32    33    1
    29    22    19    1
    30    22    23    1
    31    19    18    1
    32     8     9    1
    33    57    54    1
    34    57    58    1
    35    36    33    1
    36    36    37    1
    37     9    11   am
    38    54    53    1
    39    14    13    2
    40    18    13   am
    41    33    34    1
    42   128   127    2
    43    13    12    1
    44    11    12    1
    45   130   129    1
    46    12    15    1
    47   129   126    1
    48   129   131    1
    49    34    35    2
    50    34    38   am
    51   127   126    1
    52    87    85    1
    53   126   125    1
    54    38    39    1
    55    84    85    1
    56    84    81    1
    57    86    85    1
    58    15    17    1
    59    15    16    1
    60    80    81    1
    61   125   121   am
    62    52    51    1
    63    81    82    1
    64    49    50    2
    65    49    48    1
    66    47    40   am
    67    47    48    1
    68    39    40    1
    69    39    42    1
    70    40    41    2
    71   121   120    1
    72   121   122    2
    73    48    51    1
    74   123   120    1
    75   123   124    1
    76    82    83    2
    77   120   119    1
    78    42    43    1
    79    79    78    1
    80   104   102    1
    81    96    94   ar
    82   113   112    2
    83   119   112   am
    84    43    44    1
    85    94    93    1
    86    94    95   ar
    87    93    92    1
    88   112   111    1
    89   108   107    2
    90    78    75    1
    91    46    44   am
    92   109   106    1
    93    44    45    2
    94    88    89    1
    95   105   106    1
    96   105    99   am
    97    77    76    2
    98   102   103    1
    99   102   101    1
   100   107   106    1
   101   107   110   am
   102    98   101    1
   103    98    99    1
   104    98    97    1
   105    92    89    1
   106    89    90    1
   107    74    75    1
   108    75    76    1
   109   111   110    1
   110   111   114    1
   111    99   100    2
   112    70    69    2
   113   118   117    1
   114   117   116    1
   115   115   114    1
   116   115   116    1
   117    90    91    2
   118    72    71    1
   119    69    68    1
   120    68    71    1
   121    68    67    1
   122    71    73    1
