@<TRIPOS>MOLECULE
tmp/3oojA00.pdb
 125 123 0 0 0
SMALL
GASTEIGER

@<TRIPOS>ATOM
      1  N        -43.3370  -66.0290  -53.7470 N.3     1  ALA1       -0.1245
      2  CA       -43.0070  -64.6030  -53.8440 C.3     1  ALA1        0.1562
      3  C        -42.6720  -64.0610  -52.4640 C.2     1  ALA1        0.2260
      4  O        -41.5610  -63.6030  -52.2110 O.2     1  ALA1       -0.2867
      5  CB       -44.1550  -63.8170  -54.4650 C.3     1  ALA1        0.0290
      6  N        -47.2350  -67.9330  -47.4110 N.3    71  HIS71      -0.1241
      7  CA       -46.6430  -67.7090  -48.7310 C.3    71  HIS71       0.1621
      8  C        -47.5900  -66.9790  -49.6800 C.2    71  HIS71       0.2264
      9  O        -48.8030  -67.2560  -49.7370 O.2    71  HIS71      -0.2867
     10  CB       -46.2480  -69.0700  -49.3220 C.3    71  HIS71       0.0745
     11  CG       -45.5610  -69.0220  -50.6620 C.ar   71  HIS71       0.0817
     12  ND1      -46.2370  -69.1940  -51.8550 N.ar   71  HIS71      -0.2268
     13  CD2      -44.2480  -68.9420  -50.9910 C.ar   71  HIS71       0.1154
     14  CE1      -45.3810  -69.1700  -52.8610 C.ar   71  HIS71       0.1986
     15  NE2      -44.1660  -69.0290  -52.3630 N.ar   71  HIS71      -0.2212
     16  N        -47.5480  -66.5360  -53.8020 N.3    73  ARG73      -0.1231
     17  CA       -46.9740  -67.2210  -54.9560 C.3    73  ARG73       0.1694
     18  C        -46.9590  -66.3570  -56.2090 C.2    73  ARG73       0.2592
     19  O        -47.9230  -65.6500  -56.4850 O.2    73  ARG73      -0.2718
     20  CB       -47.7960  -68.4820  -55.2530 C.3    73  ARG73       0.0321
     21  CG       -47.3280  -69.2680  -56.4750 C.3    73  ARG73       0.0489
     22  CD       -48.0470  -70.6300  -56.6060 C.3    73  ARG73       0.2205
     23  NE       -47.3990  -71.4760  -57.6100 N.pl3  73  ARG73      -0.0865
     24  CZ       -47.9370  -71.8140  -58.7820 C.cat  73  ARG73       0.5346
     25  NH1      -49.1660  -71.4130  -59.1030 N.pl3  73  ARG73       0.1354
     26  NH2      -47.2560  -72.5840  -59.6210 N.pl3  73  ARG73       0.1354
     27  N        -45.8650  -66.4110  -56.9680 N.am   74  TRP74      -0.1976
     28  CA       -45.8450  -65.8740  -58.3330 C.3    74  TRP74       0.1640
     29  C        -45.5210  -67.0530  -59.2410 C.2    74  TRP74       0.2290
     30  O        -44.3780  -67.5110  -59.3080 O.2    74  TRP74      -0.2864
     31  CB       -44.8340  -64.7270  -58.5080 C.3    74  TRP74       0.0576
     32  CG       -44.5910  -64.2790  -59.9540 C.ar   74  TRP74       0.0006
     33  CD1      -43.7490  -64.8550  -60.8460 C.ar   74  TRP74       0.0946
     34  CD2      -45.1820  -63.1480  -60.6370 C.ar   74  TRP74       0.0152
     35  NE1      -43.7770  -64.1750  -62.0430 N.ar   74  TRP74      -0.2442
     36  CE2      -44.6460  -63.1320  -61.9410 C.ar   74  TRP74       0.0810
     37  CE3      -46.1110  -62.1710  -60.2720 C.ar   74  TRP74       0.0012
     38  CZ2      -45.0090  -62.1600  -62.8850 C.ar   74  TRP74       0.0191
     39  CZ3      -46.4680  -61.2140  -61.2040 C.ar   74  TRP74       0.0001
     40  CH2      -45.9160  -61.2150  -62.5010 C.ar   74  TRP74       0.0015
     41  N        -44.5670  -70.0040  -61.5660 N.3    76  THR76      -0.1203
     42  CA       -43.6520  -70.3580  -62.6570 C.3    76  THR76       0.1994
     43  C        -43.9100  -71.7490  -63.2410 C.2    76  THR76       0.2617
     44  O        -43.8480  -71.9410  -64.4630 O.2    76  THR76      -0.2717
     45  CB       -42.1700  -70.2350  -62.2520 C.3    76  THR76       0.1784
     46  OG1      -41.8630  -71.1770  -61.2130 O.3    76  THR76      -0.2211
     47  CG2      -41.8620  -68.8050  -61.7900 C.3    76  THR76       0.0376
     48  N        -44.2010  -72.7120  -62.3660 N.am   77  HIS77      -0.1975
     49  CA       -44.5120  -74.0800  -62.7790 C.3    77  HIS77       0.1656
     50  C        -45.9070  -74.4660  -62.2900 C.2    77  HIS77       0.2291
     51  O        -46.1100  -74.6940  -61.0940 O.2    77  HIS77      -0.2864
     52  CB       -43.4650  -75.0490  -62.2340 C.3    77  HIS77       0.0771
     53  CG       -42.0830  -74.7960  -62.7500 C.ar   77  HIS77       0.0820
     54  ND1      -41.3740  -73.6520  -62.4530 N.ar   77  HIS77      -0.2267
     55  CD2      -41.2780  -75.5390  -63.5460 C.ar   77  HIS77       0.1154
     56  CE1      -40.1920  -73.7020  -63.0420 C.ar   77  HIS77       0.1986
     57  NE2      -40.1100  -74.8360  -63.7120 N.ar   77  HIS77      -0.2212
     58  N        -48.9620  -72.4860  -52.3200 N.3    86  HIS86      -0.1241
     59  CA       -48.2630  -73.0090  -51.1490 C.3    86  HIS86       0.1621
     60  C        -49.0800  -72.6670  -49.8860 C.2    86  HIS86       0.2264
     61  O        -49.9650  -71.8090  -49.9270 O.2    86  HIS86      -0.2867
     62  CB       -46.8500  -72.4010  -51.0140 C.3    86  HIS86       0.0745
     63  CG       -46.0070  -72.4850  -52.2530 C.ar   86  HIS86       0.0817
     64  ND1      -44.6280  -72.4310  -52.2130 N.ar   86  HIS86      -0.2268
     65  CD2      -46.3400  -72.5900  -53.5650 C.ar   86  HIS86       0.1154
     66  CE1      -44.1490  -72.5090  -53.4440 C.ar   86  HIS86       0.1986
     67  NE2      -45.1670  -72.6010  -54.2850 N.ar   86  HIS86      -0.2212
     68  N        -41.8670  -72.1290  -50.5700 N.3    97  HIS97      -0.1226
     69  CA       -40.7380  -72.0780  -51.4960 C.3    97  HIS97       0.1752
     70  C        -40.7530  -70.8560  -52.4340 C.2    97  HIS97       0.2596
     71  O        -41.7570  -70.5740  -53.0840 O.2    97  HIS97      -0.2718
     72  CB       -40.7600  -73.3600  -52.3310 C.3    97  HIS97       0.0759
     73  CG       -39.8160  -73.3600  -53.4900 C.ar   97  HIS97       0.0818
     74  ND1      -40.2040  -73.7330  -54.7610 N.ar   97  HIS97      -0.2268
     75  CD2      -38.4960  -73.0690  -53.5690 C.ar   97  HIS97       0.1154
     76  CE1      -39.1620  -73.6680  -55.5730 C.ar   97  HIS97       0.1986
     77  NE2      -38.1140  -73.2630  -54.8750 N.ar   97  HIS97      -0.2212
     78  N        -39.6360  -70.1360  -52.5070 N.am   98  ASN98      -0.1960
     79  CA       -39.4670  -69.1050  -53.5220 C.3    98  ASN98       0.1819
     80  C        -38.4880  -69.5650  -54.5820 C.2    98  ASN98       0.2622
     81  O        -37.3930  -70.0170  -54.2670 O.2    98  ASN98      -0.2715
     82  CB       -38.9560  -67.7950  -52.9150 C.3    98  ASN98       0.1195
     83  CG       -40.0130  -67.0620  -52.1230 C.2    98  ASN98       0.2630
     84  OD1      -41.2210  -67.2830  -52.2980 O.2    98  ASN98      -0.2716
     85  ND2      -39.5680  -66.1770  -51.2460 N.am   98  ASN98      -0.0877
     86  N        -38.8760  -69.4540  -55.8440 N.am   99  GLY99      -0.1940
     87  CA       -37.9330  -69.7070  -56.9020 C.3    99  GLY99       0.2014
     88  C        -38.1350  -71.0010  -57.6530 C.2    99  GLY99       0.2638
     89  O        -39.1760  -71.6410  -57.5550 O.2    99  GLY99      -0.2714
     90  N        -37.1020  -71.3860  -58.3940 N.am  100  ILE100     -0.1977
     91  CA       -37.1980  -72.4150  -59.4120 C.3   100  ILE100      0.1596
     92  C        -36.2280  -73.5870  -59.1980 C.2   100  ILE100      0.2287
     93  O        -34.9980  -73.4200  -59.2010 O.2   100  ILE100     -0.2864
     94  CB       -37.0140  -71.7830  -60.8180 C.3   100  ILE100      0.0276
     95  CG1      -38.1080  -70.7450  -61.0640 C.3   100  ILE100      0.0022
     96  CG2      -37.0530  -72.8370  -61.9110 C.3   100  ILE100      0.0022
     97  CD1      -37.9840  -70.0110  -62.3930 C.3   100  ILE100      0.0001
     98  N        -46.5360  -78.1310  -59.5640 N.3   122  THR122     -0.1203
     99  CA       -45.3980  -77.3200  -59.1580 C.3   122  THR122      0.1994
    100  C        -44.0960  -78.0960  -59.0260 C.2   122  THR122      0.2618
    101  O        -44.0860  -79.2860  -58.7350 O.2   122  THR122     -0.2717
    102  CB       -45.6730  -76.5370  -57.8400 C.3   122  THR122      0.1784
    103  OG1      -45.5460  -77.4090  -56.7080 O.3   122  THR122     -0.2211
    104  CG2      -47.0670  -75.9180  -57.8640 C.3   122  THR122      0.0376
    105  N        -42.9920  -77.3990  -59.2550 N.am  123  ASP123     -0.1959
    106  CA       -41.6770  -77.9190  -58.9190 C.3   123  ASP123      0.1840
    107  C        -41.5660  -78.0400  -57.4070 C.2   123  ASP123      0.2622
    108  O        -40.8840  -78.9190  -56.8880 O.2   123  ASP123     -0.2715
    109  CB       -40.5650  -77.0180  -59.4810 C.3   123  ASP123      0.1450
    110  CG       -40.6970  -75.5500  -59.0520 C.2   123  ASP123      0.3671
    111  OD1      -41.8340  -75.0410  -58.9130 O.co2 123  ASP123     -0.2456
    112  OD2      -39.6430  -74.8950  -58.8760 O.co2 123  ASP123     -0.2456
    113  N        -42.2680  -77.1640  -56.7030 N.am  124  THR124     -0.1951
    114  CA       -42.1830  -77.0740  -55.2510 C.3   124  THR124      0.1897
    115  C        -42.5240  -78.3900  -54.5570 C.2   124  THR124      0.2313
    116  O        -41.8670  -78.7650  -53.5930 O.2   124  THR124     -0.2863
    117  CB       -43.1270  -75.9720  -54.7220 C.3   124  THR124      0.1794
    118  OG1      -42.7280  -74.7010  -55.2530 O.3   124  THR124     -0.2208
    119  CG2      -43.1220  -75.9330  -53.1960 C.3   124  THR124      0.0378
    120  N        -37.7050  -64.1990  -60.6740 N.3   442  SER442     -0.1217
    121  CA       -36.9660  -65.1850  -59.8910 C.3   442  SER442      0.1889
    122  C        -35.5420  -65.2700  -60.3530 C.2   442  SER442      0.2288
    123  O        -34.6230  -65.3710  -59.5380 O.2   442  SER442     -0.2866
    124  CB       -37.5920  -66.5700  -60.0440 C.3   442  SER442      0.2089
    125  OG       -38.5210  -66.7800  -59.0040 O.3   442  SER442     -0.2183
@<TRIPOS>BOND
     1    44    43    2
     2    57    55   ar
     3    57    56   ar
     4    55    53   ar
     5    43    42    1
     6    43    48   am
     7    56    54   ar
     8    38    40   ar
     9    38    36   ar
    10    49    48    1
    11    49    50    1
    12    49    52    1
    13    53    54   ar
    14    53    52    1
    15    42    45    1
    16    42    41    1
    17    40    39   ar
    18    97    95    1
    19    50    51    2
    20    45    47    1
    21    45    46    1
    22    35    36   ar
    23    35    33   ar
    24    36    34   ar
    25    96    94    1
    26    39    37   ar
    27    95    94    1
    28    33    32   ar
    29    94    91    1
    30   120   121    1
    31    34    37   ar
    32    34    32   ar
    33   122   121    1
    34   122   123    2
    35   124   121    1
    36   124   125    1
    37    32    31    1
    38    26    24    1
    39    98    99    1
    40   109   110    1
    41   109   106    1
    42    91    92    1
    43    91    90    1
    44    30    29    2
    45   105   100   am
    46   105   106    1
    47    29    28    1
    48    93    92    2
    49    99   100    1
    50    99   102    1
    51    25    24    1
    52   110   111   ar
    53   110   112   ar
    54   100   101    2
    55   106   107    1
    56    24    23    2
    57    31    28    1
    58    90    88   am
    59    28    27    1
    60   104   102    1
    61   102   103    1
    62    88    89    2
    63    88    87    1
    64    23    22    1
    65   107   108    2
    66   107   113   am
    67    27    18   am
    68    87    86    1
    69   113   114    1
    70    22    21    1
    71    19    18    2
    72    21    20    1
    73    18    17    1
    74    86    80   am
    75    76    77   ar
    76    76    74   ar
    77    20    17    1
    78   118   117    1
    79   114   117    1
    80   114   115    1
    81    17    16    1
    82    77    75   ar
    83    74    73   ar
    84   117   119    1
    85    80    81    2
    86    80    79    1
    87   115   116    2
    88     5     2    1
    89    67    65   ar
    90    67    66   ar
    91     2     1    1
    92     2     3    1
    93    75    73   ar
    94    65    63   ar
    95    79    82    1
    96    79    78    1
    97    73    72    1
    98    66    64   ar
    99    71    70    2
   100    82    83    1
   101    14    15   ar
   102    14    12   ar
   103    78    70   am
   104     3     4    2
   105    70    69    1
   106    15    13   ar
   107    72    69    1
   108    58    59    1
   109    84    83    2
   110    63    64   ar
   111    63    62    1
   112    83    85   am
   113    12    11   ar
   114    69    68    1
   115    59    62    1
   116    59    60    1
   117    13    11   ar
   118    11    10    1
   119    61    60    2
   120     9     8    2
   121     8     7    1
   122    10     7    1
   123     7     6    1
