@<TRIPOS>MOLECULE
tmp/3oojA02.pdb
 76 72 0 0 0
SMALL
GASTEIGER

@<TRIPOS>ATOM
      1  N        -31.4590  -57.1520  -81.9190 N.3   312  TYR312     -0.1241
      2  CA       -31.2060  -58.5920  -82.0540 C.3   312  TYR312      0.1605
      3  C        -32.4650  -59.3850  -81.8410 C.2   312  TYR312      0.2264
      4  O        -32.7700  -60.3280  -82.6220 O.2   312  TYR312     -0.2867
      5  CB       -30.1450  -59.0810  -81.0640 C.3   312  TYR312      0.0534
      6  CG       -28.7740  -58.5140  -81.3240 C.ar  312  TYR312     -0.0201
      7  CD1      -28.3850  -57.3020  -80.7420 C.ar  312  TYR312     -0.0009
      8  CD2      -27.8810  -59.1540  -82.1790 C.ar  312  TYR312     -0.0009
      9  CE1      -27.1470  -56.7570  -80.9810 C.ar  312  TYR312      0.0417
     10  CE2      -26.6260  -58.6180  -82.4130 C.ar  312  TYR312      0.0417
     11  CZ       -26.2650  -57.4180  -81.8060 C.ar  312  TYR312      0.1957
     12  OH       -25.0250  -56.8630  -82.0300 O.3   312  TYR312     -0.2866
     13  N        -34.2170  -61.5240  -84.9360 N.3   316  SER316     -0.1202
     14  CA       -34.1670  -62.9920  -84.9420 C.3   316  SER316      0.2020
     15  C        -35.4850  -63.6930  -84.5510 C.2   316  SER316      0.2618
     16  O        -35.8050  -64.7550  -85.0770 O.2   316  SER316     -0.2717
     17  CB       -32.9860  -63.5390  -84.1340 C.3   316  SER316      0.2103
     18  OG       -33.1620  -63.3050  -82.7490 O.3   316  SER316     -0.2182
     19  N        -36.2480  -63.0890  -83.6520 N.am  317  LEU317     -0.1979
     20  CA       -37.4520  -63.7170  -83.1250 C.3   317  LEU317      0.1596
     21  C        -38.7140  -63.2940  -83.8800 C.2   317  LEU317      0.2287
     22  O        -39.6450  -64.0880  -84.0410 O.2   317  LEU317     -0.2864
     23  CB       -37.6120  -63.4130  -81.6340 C.3   317  LEU317      0.0297
     24  CG       -36.4530  -63.8040  -80.7140 C.3   317  LEU317      0.0022
     25  CD1      -36.8180  -63.4830  -79.2690 C.3   317  LEU317      0.0001
     26  CD2      -36.0370  -65.2970  -80.8640 C.3   317  LEU317      0.0001
     27  N        -26.6320  -60.4620  -78.9250 N.3   474  ASP474     -0.1225
     28  CA       -27.5120  -59.8360  -77.9260 C.3   474  ASP474      0.1805
     29  C        -26.8500  -59.5580  -76.5700 C.2   474  ASP474      0.2597
     30  O        -27.4690  -58.9320  -75.7030 O.2   474  ASP474     -0.2718
     31  CB       -28.8290  -60.6160  -77.7420 C.3   474  ASP474      0.1424
     32  CG       -28.6190  -62.0600  -77.2990 C.2   474  ASP474      0.3668
     33  OD1      -27.5340  -62.4130  -76.8270 O.co2 474  ASP474     -0.2456
     34  OD2      -29.5640  -62.8570  -77.4090 O.co2 474  ASP474     -0.2456
     35  N        -25.6060  -60.0130  -76.3960 N.am  475  GLN475     -0.1979
     36  CA       -24.8110  -59.6960  -75.2010 C.3   475  GLN475      0.1601
     37  C        -23.8600  -58.5090  -75.4010 C.2   475  GLN475      0.2287
     38  O        -23.3670  -57.9200  -74.4350 O.2   475  GLN475     -0.2864
     39  CB       -24.0060  -60.9170  -74.7350 C.3   475  GLN475      0.0394
     40  CG       -24.8560  -62.0620  -74.1660 C.3   475  GLN475      0.0908
     41  CD       -25.5420  -61.7070  -72.8590 C.2   475  GLN475      0.2608
     42  OE1      -25.2060  -60.7050  -72.2190 O.2   475  GLN475     -0.2717
     43  NE2      -26.5040  -62.5350  -72.4470 N.am  475  GLN475     -0.0878
     44  N        -21.1070  -63.7930  -71.1430 N.3   520  ALA520     -0.1245
     45  CA       -21.9420  -64.9100  -71.6160 C.3   520  ALA520      0.1562
     46  C        -21.5550  -65.4960  -72.9710 C.2   520  ALA520      0.2260
     47  O        -22.4100  -65.6730  -73.8390 O.2   520  ALA520     -0.2867
     48  CB       -23.4330  -64.5080  -71.6230 C.3   520  ALA520      0.0290
     49  N        -32.5790  -68.7830  -72.4430 N.3   569  GLU569     -0.1231
     50  CA       -31.7340  -67.9720  -73.3030 C.3   569  GLU569      0.1699
     51  C        -32.3880  -66.6500  -73.7440 C.2   569  GLU569      0.2592
     52  O        -31.7130  -65.6240  -73.8800 O.2   569  GLU569     -0.2718
     53  CB       -31.1520  -68.7780  -74.4700 C.3   569  GLU569      0.0402
     54  CG       -32.1330  -69.3150  -75.4590 C.3   569  GLU569      0.1161
     55  CD       -31.4210  -70.0100  -76.6140 C.2   569  GLU569      0.3649
     56  OE1      -32.1070  -70.4880  -77.5540 O.co2 569  GLU569     -0.2457
     57  OE2      -30.1640  -70.0750  -76.5700 O.co2 569  GLU569     -0.2457
     58  N        -33.7070  -66.6660  -73.9090 N.am  570  VAL570     -0.1980
     59  CA       -34.4030  -65.5060  -74.4210 C.3   570  VAL570      0.1595
     60  C        -34.2570  -64.2950  -73.4910 C.2   570  VAL570      0.2287
     61  O        -34.2500  -63.1610  -73.9640 O.2   570  VAL570     -0.2864
     62  CB       -35.8890  -65.8170  -74.7310 C.3   570  VAL570      0.0276
     63  CG1      -36.7490  -65.7530  -73.4800 C.3   570  VAL570      0.0022
     64  CG2      -36.4050  -64.8630  -75.7730 C.3   570  VAL570      0.0022
     65  N        -31.5140  -64.1100  -71.3520 N.3   572  ALA572     -0.1231
     66  CA       -30.1310  -64.0540  -70.8720 C.3   572  ALA572      0.1679
     67  C        -29.5330  -62.6300  -70.8330 C.2   572  ALA572      0.2434
     68  O        -28.7710  -62.3190  -69.9170 O.2   572  ALA572     -0.2733
     69  CB       -29.2360  -64.9860  -71.6560 C.3   572  ALA572      0.0304
     70  N        -29.8660  -61.7770  -71.8230 N.am  573  PRO573     -0.2729
     71  CA       -29.3330  -60.4030  -71.8270 C.3   573  PRO573      0.1401
     72  C        -29.7690  -59.5940  -70.6050 C.2   573  PRO573      0.2269
     73  O        -28.9510  -58.8570  -70.0400 O.2   573  PRO573     -0.2865
     74  CB       -29.9130  -59.7950  -73.1100 C.3   573  PRO573      0.0296
     75  CG       -30.1380  -61.0070  -74.0200 C.3   573  PRO573      0.0237
     76  CD       -30.5880  -62.0970  -73.0730 C.3   573  PRO573      0.0939
@<TRIPOS>BOND
     1    16    15    2
     2    14    13    1
     3    14    15    1
     4    14    17    1
     5    15    19   am
     6    17    18    1
     7    22    21    2
     8    21    20    1
     9    19    20    1
    10    20    23    1
    11     4     3    2
    12    10     8   ar
    13    10    11   ar
    14     8     6   ar
    15     2     1    1
    16     2     3    1
    17     2     5    1
    18    12    11    1
    19    11     9   ar
    20    23    24    1
    21     6     5    1
    22     6     7   ar
    23     9     7   ar
    24    26    24    1
    25    24    25    1
    26    27    28    1
    27    28    31    1
    28    28    29    1
    29    31    32    1
    30    56    55   ar
    31    34    32   ar
    32    32    33   ar
    33    55    57   ar
    34    55    54    1
    35    29    35   am
    36    29    30    2
    37    35    36    1
    38    64    62    1
    39    54    53    1
    40    37    36    1
    41    37    38    2
    42    36    39    1
    43    39    40    1
    44    62    59    1
    45    62    63    1
    46    53    50    1
    47    59    58    1
    48    59    60    1
    49    40    41    1
    50    75    74    1
    51    75    76    1
    52    61    60    2
    53    58    51   am
    54    52    51    2
    55    47    46    2
    56    51    50    1
    57    50    49    1
    58    74    71    1
    59    76    70    1
    60    46    45    1
    61    41    43   am
    62    41    42    2
    63    71    70    1
    64    71    72    1
    65    70    67   am
    66    69    66    1
    67    48    45    1
    68    45    44    1
    69    65    66    1
    70    66    67    1
    71    67    68    2
    72    72    73    2
