@<TRIPOS>MOLECULE
tmp/3oomA00.pdb
 173 163 0 0 0
SMALL
GASTEIGER

@<TRIPOS>ATOM
      1  N         -0.8550   26.9590   11.7210 N.3    12  VAL12      -0.1231
      2  CA         0.3000   26.7490   10.8520 C.3    12  VAL12       0.1692
      3  C          0.6640   25.2570   10.7980 C.2    12  VAL12       0.2592
      4  O          1.5150   24.8280   10.0080 O.2    12  VAL12      -0.2718
      5  CB         1.4930   27.6700   11.2440 C.3    12  VAL12       0.0266
      6  CG1        1.1610   29.1720   10.8710 C.3    12  VAL12       0.0020
      7  CG2        1.8610   27.5440   12.7510 C.3    12  VAL12       0.0020
      8  N          0.0230   24.4580   11.6370 N.am   13  GLY13      -0.1957
      9  CA         0.2600   23.0200   11.6130 C.3    13  GLY13       0.1869
     10  C         -0.7650   22.2630   12.4330 C.2    13  GLY13       0.2309
     11  O         -1.2440   22.7610   13.4590 O.2    13  GLY13      -0.2863
     12  N          0.7760   15.6770   17.0370 N.3    17  TYR17      -0.1241
     13  CA         1.2980   16.5620   18.0830 C.3    17  TYR17       0.1605
     14  C          0.3040   17.6020   18.6080 C.2    17  TYR17       0.2264
     15  O          0.6440   18.3990   19.4950 O.2    17  TYR17      -0.2867
     16  CB         2.5320   17.3170   17.5510 C.3    17  TYR17       0.0534
     17  CG         2.3090   18.0790   16.2280 C.ar   17  TYR17      -0.0201
     18  CD1        1.7620   19.3700   16.2160 C.ar   17  TYR17      -0.0009
     19  CD2        2.6210   17.4930   14.9980 C.ar   17  TYR17      -0.0009
     20  CE1        1.5560   20.0760   15.0070 C.ar   17  TYR17       0.0417
     21  CE2        2.4090   18.1790   13.7830 C.ar   17  TYR17       0.0417
     22  CZ         1.8890   19.4860   13.8030 C.ar   17  TYR17       0.1957
     23  OH         1.6670   20.1770   12.6280 O.3    17  TYR17      -0.2866
     24  N         -0.3940   23.7980   15.9920 N.3    20  VAL20      -0.1245
     25  CA         0.3660   25.0040   16.2580 C.3    20  VAL20       0.1561
     26  C         -0.2560   26.1700   15.4910 C.2    20  VAL20       0.2260
     27  O         -0.5380   26.0690   14.2720 O.2    20  VAL20      -0.2867
     28  CB         1.8890   24.8800   15.8650 C.3    20  VAL20       0.0252
     29  CG1        2.6040   26.2420   16.0380 C.3    20  VAL20       0.0019
     30  CG2        2.6200   23.8150   16.6580 C.3    20  VAL20       0.0019
     31  N          3.4170   32.2840   19.0910 N.3    31  ALA31      -0.1245
     32  CA         3.0460   30.9440   18.6870 C.3    31  ALA31       0.1562
     33  C          2.2980   30.3290   19.8470 C.2    31  ALA31       0.2260
     34  O          2.6930   30.5340   21.0120 O.2    31  ALA31      -0.2867
     35  CB         4.3100   30.0580   18.3210 C.3    31  ALA31       0.0290
     36  N          1.0240   26.4240   20.8110 N.3    33  LYS33      -0.1245
     37  CA         0.8960   24.9800   20.6340 C.3    33  LYS33       0.1561
     38  C         -0.2330   24.4520   21.5280 C.2    33  LYS33       0.2260
     39  O         -0.1890   24.5790   22.7790 O.2    33  LYS33      -0.2867
     40  CB         2.1970   24.2070   20.9450 C.3    33  LYS33       0.0271
     41  CG         2.0080   22.6920   20.7560 C.3    33  LYS33       0.0035
     42  CD         3.2860   21.9360   20.6910 C.3    33  LYS33       0.0206
     43  CE         3.0240   20.4610   20.5770 C.3    33  LYS33       0.1093
     44  NZ         4.1970   19.6260   20.8930 N.3    33  LYS33      -0.1314
     45  N          7.2720   20.3750   29.4920 N.3    46  GLU46      -0.1245
     46  CA         7.7410   21.6780   28.9630 C.3    46  GLU46       0.1567
     47  C          7.4020   22.7890   29.9060 C.2    46  GLU46       0.2260
     48  O          8.2110   23.7470   30.0900 O.2    46  GLU46      -0.2867
     49  CB         7.1140   22.0660   27.6120 C.3    46  GLU46       0.0388
     50  CG         7.5380   21.2190   26.5090 C.3    46  GLU46       0.1160
     51  CD         7.5210   21.8760   25.1790 C.2    46  GLU46       0.3649
     52  OE1        6.5670   21.5950   24.4440 O.co2  46  GLU46      -0.2457
     53  OE2        8.4700   22.6280   24.8200 O.co2  46  GLU46      -0.2457
     54  N         13.9540   27.8110   21.8980 N.3    61  LEU61      -0.1245
     55  CA        12.7360   28.5390   21.6610 C.3    61  LEU61       0.1561
     56  C         12.3080   29.2410   22.9370 C.2    61  LEU61       0.2260
     57  O         12.2400   28.6210   24.0060 O.2    61  LEU61      -0.2867
     58  CB        11.6210   27.6230   21.1640 C.3    61  LEU61       0.0270
     59  CG        10.2340   28.2250   20.9720 C.3    61  LEU61       0.0019
     60  CD1       10.2820   29.3110   19.8490 C.3    61  LEU61       0.0001
     61  CD2        9.2020   27.1500   20.6970 C.3    61  LEU61       0.0001
     62  N          0.8490   25.8950   25.1710 N.3    79  LEU79      -0.1245
     63  CA         2.1890   26.4450   25.3300 C.3    79  LEU79       0.1561
     64  C          2.2660   27.6580   24.4110 C.2    79  LEU79       0.2260
     65  O          2.0080   27.5800   23.1940 O.2    79  LEU79      -0.2867
     66  CB         3.2690   25.4050   24.9520 C.3    79  LEU79       0.0270
     67  CG         4.7450   25.6260   25.3460 C.3    79  LEU79       0.0019
     68  CD1        4.9100   25.6470   26.8370 C.3    79  LEU79       0.0001
     69  CD2        5.7420   24.5590   24.6910 C.3    79  LEU79       0.0001
     70  N          4.7550   30.7380   22.9550 N.3    81  THR81      -0.1203
     71  CA         6.1470   31.0350   22.7360 C.3    81  THR81       0.1994
     72  C          6.3500   32.1730   21.7340 C.2    81  THR81       0.2618
     73  O          5.4010   32.6670   21.1150 O.2    81  THR81      -0.2717
     74  CB         6.9320   29.7760   22.2580 C.3    81  THR81       0.1784
     75  OG1        6.6290   29.4990   20.8820 O.3    81  THR81      -0.2211
     76  CG2        6.6430   28.5580   23.1580 C.3    81  THR81       0.0376
     77  N          7.5970   32.5610   21.5440 N.am   82  HIS82      -0.1961
     78  CA         7.9500   33.4060   20.4050 C.3    82  HIS82       0.1787
     79  C          7.5330   32.7420   19.0940 C.2    82  HIS82       0.2620
     80  O          7.5220   31.5120   18.9590 O.2    82  HIS82      -0.2715
     81  CB         9.4370   33.7080   20.3270 C.3    82  HIS82       0.0785
     82  CG         9.9770   34.4580   21.5010 C.ar   82  HIS82       0.0821
     83  ND1       11.3320   34.6370   21.7010 N.ar   82  HIS82      -0.2267
     84  CD2        9.3590   35.0630   22.5410 C.ar   82  HIS82       0.1154
     85  CE1       11.5200   35.3170   22.8200 C.ar   82  HIS82       0.1986
     86  NE2       10.3400   35.5950   23.3440 N.ar   82  HIS82      -0.2212
     87  N          7.1770   33.5850   18.1400 N.am   83  TYR83      -0.1960
     88  CA         6.7260   33.1610   16.8300 C.3    83  TYR83       0.1771
     89  C          7.8660   33.3690   15.8460 C.2    83  TYR83       0.2620
     90  O          8.4870   34.4420   15.8200 O.2    83  TYR83      -0.2715
     91  CB         5.4900   33.9350   16.3720 C.3    83  TYR83       0.0574
     92  CG         4.9940   33.4470   15.0260 C.ar   83  TYR83      -0.0198
     93  CD1        4.3950   32.2090   14.9160 C.ar   83  TYR83      -0.0009
     94  CD2        5.1430   34.2110   13.8690 C.ar   83  TYR83      -0.0009
     95  CE1        3.9390   31.7240   13.7060 C.ar   83  TYR83       0.0417
     96  CE2        4.6870   33.7260   12.6180 C.ar   83  TYR83       0.0417
     97  CZ         4.0870   32.4680   12.5640 C.ar   83  TYR83       0.1957
     98  OH         3.6390   31.9110   11.3920 O.3    83  TYR83      -0.2866
     99  N          8.1540   32.3150   15.0820 N.am   84  HIS84      -0.1959
    100  CA         9.2010   32.3310   14.0620 C.3    84  HIS84       0.1787
    101  C          8.6420   32.1250   12.6810 C.2    84  HIS84       0.2620
    102  O          8.4460   30.9800   12.2550 O.2    84  HIS84      -0.2715
    103  CB        10.2560   31.2720   14.3860 C.3    84  HIS84       0.0785
    104  CG        10.9910   31.5850   15.6380 C.ar   84  HIS84       0.0821
    105  ND1       11.8920   32.6260   15.7140 N.ar   84  HIS84      -0.2267
    106  CD2       10.9170   31.0530   16.8810 C.ar   84  HIS84       0.1154
    107  CE1       12.3640   32.7040   16.9460 C.ar   84  HIS84       0.1986
    108  NE2       11.7990   31.7560   17.6710 N.ar   84  HIS84      -0.2212
    109  N          8.4230   33.2350   11.9820 N.am   85  GLU85      -0.1977
    110  CA         7.7980   33.2170   10.6630 C.3    85  GLU85       0.1602
    111  C          8.5030   32.2880    9.6590 C.2    85  GLU85       0.2287
    112  O          7.8340   31.6310    8.8540 O.2    85  GLU85      -0.2864
    113  CB         7.6290   34.6430   10.1000 C.3    85  GLU85       0.0415
    114  CG         8.9130   35.4360    9.8540 C.3    85  GLU85       0.1163
    115  CD         8.6220   36.8750    9.4190 C.2    85  GLU85       0.3649
    116  OE1        9.0110   37.2660    8.3000 O.co2  85  GLU85      -0.2457
    117  OE2        7.9820   37.6110   10.1920 O.co2  85  GLU85      -0.2457
    118  N          9.4840   29.4390   10.1050 N.3    87  GLY87      -0.1210
    119  CA         8.9530   28.0700   10.3010 C.3    87  GLY87       0.1956
    120  C         10.0370   27.0440   10.6240 C.2    87  GLY87       0.2612
    121  O         11.1360   27.3980   11.0850 O.2    87  GLY87      -0.2717
    122  N          9.7320   25.7600   10.4120 N.am   88  SER88      -0.1952
    123  CA        10.6440   24.7130   10.7890 C.3    88  SER88       0.1924
    124  C         11.8090   24.5660    9.8070 C.2    88  SER88       0.2314
    125  O         11.6950   24.8830    8.6150 O.2    88  SER88      -0.2863
    126  CB         9.9290   23.3430   10.9480 C.3    88  SER88       0.2116
    127  OG         9.4540   22.8000    9.7250 O.3    88  SER88      -0.2180
    128  N         10.7670   22.0980    6.9930 N.3    91  ASP91      -0.1239
    129  CA        10.0520   22.6540    5.8440 C.3    91  ASP91       0.1674
    130  C         10.9840   23.6180    5.0630 C.2    91  ASP91       0.2266
    131  O         11.0420   23.5940    3.8400 O.2    91  ASP91      -0.2867
    132  CB         8.8080   23.4120    6.2950 C.3    91  ASP91       0.1410
    133  CG         7.6880   22.4900    6.8200 C.2    91  ASP91       0.3668
    134  OD1        7.6160   21.3140    6.4170 O.co2  91  ASP91      -0.2456
    135  OD2        6.8590   22.9690    7.6310 O.co2  91  ASP91      -0.2456
    136  N         12.2100   18.9700   12.3080 N.3   138  LYS138     -0.1231
    137  CA        10.8830   19.4930   12.5680 C.3   138  LYS138      0.1693
    138  C         10.7400   20.1730   13.9320 C.2   138  LYS138      0.2592
    139  O          9.8630   21.0030   14.1020 O.2   138  LYS138     -0.2718
    140  CB         9.8700   18.3660   12.3990 C.3   138  LYS138      0.0285
    141  CG         8.4600   18.7920   12.2170 C.3   138  LYS138      0.0035
    142  CD         7.4930   17.5880   12.2970 C.3   138  LYS138      0.0206
    143  CE         6.0290   18.0340   12.1920 C.3   138  LYS138      0.1093
    144  NZ         5.7910   18.7830   10.9430 N.3   138  LYS138     -0.1314
    145  N         11.6250   19.8460   14.8810 N.am  139  ASN139     -0.1974
    146  CA        11.6900   20.4680   16.2240 C.3   139  ASN139      0.1688
    147  C         12.7470   21.5930   16.3310 C.2   139  ASN139      0.2292
    148  O         13.1660   21.9910   17.4260 O.2   139  ASN139     -0.2864
    149  CB        11.9210   19.4030   17.3130 C.3   139  ASN139      0.1181
    150  CG        10.6780   18.5720   17.5970 C.2   139  ASN139      0.2629
    151  OD1        9.5800   18.9520   17.2110 O.2   139  ASN139     -0.2716
    152  ND2       10.8490   17.4250   18.2600 N.am  139  ASN139     -0.0877
    153  N         13.3780   25.4800   14.7010 N.3   141  LEU141     -0.1245
    154  CA        12.8430   26.6240   14.0030 C.3   141  LEU141      0.1561
    155  C         13.9910   27.5290   13.4910 C.2   141  LEU141      0.2260
    156  O         15.0340   27.6960   14.1650 O.2   141  LEU141     -0.2867
    157  CB        11.9000   27.4050   14.9560 C.3   141  LEU141      0.0270
    158  CG        10.7320   26.4550   15.3260 C.3   141  LEU141      0.0019
    159  CD1       10.2020   26.6580   16.6390 C.3   141  LEU141      0.0001
    160  CD2        9.6570   26.5260   14.2250 C.3   141  LEU141      0.0001
    161  N         13.2180   23.4840   19.7350 N.3   151  ALA151     -0.1231
    162  CA        11.9160   23.4360   20.4010 C.3   151  ALA151      0.1694
    163  C         11.6220   22.0430   20.9040 C.2   151  ALA151      0.2592
    164  O         12.3470   21.0770   20.6180 O.2   151  ALA151     -0.2718
    165  CB        10.7980   23.8700   19.4310 C.3   151  ALA151      0.0304
    166  N         10.4800   21.9720   21.6000 N.am  152  ASP152     -0.1974
    167  CA         9.8330   20.7570   22.0840 C.3   152  ASP152      0.1709
    168  C         10.6580   20.0150   23.1280 C.2   152  ASP152      0.2293
    169  O         11.3680   19.0810   22.8230 O.2   152  ASP152     -0.2864
    170  CB         9.4300   19.8270   20.9570 C.3   152  ASP152      0.1436
    171  CG         8.6360   18.6030   21.4760 C.2   152  ASP152      0.3671
    172  OD1        8.3840   18.4930   22.6890 O.co2 152  ASP152     -0.2456
    173  OD2        8.2670   17.7400   20.6840 O.co2 152  ASP152     -0.2456
@<TRIPOS>BOND
     1   131   130    2
     2   130   129    1
     3   129   132    1
     4   129   128    1
     5   132   133    1
     6   134   133   ar
     7   133   135   ar
     8   116   115   ar
     9   125   124    2
    10   112   111    2
    11   115   114    1
    12   115   117   ar
    13   111   110    1
    14   127   126    1
    15   124   123    1
    16   114   113    1
    17     4     3    2
    18   113   110    1
    19   118   119    1
    20   119   120    1
    21   122   120   am
    22   122   123    1
    23   120   121    2
    24   110   109    1
    25   123   126    1
    26     3     2    1
    27     3     8   am
    28     2     5    1
    29     2     1    1
    30     6     5    1
    31   144   143    1
    32     5     7    1
    33    98    97    1
    34     9     8    1
    35     9    10    1
    36   109   101   am
    37   143   142    1
    38   141   142    1
    39   141   140    1
    40   102   101    2
    41   136   137    1
    42   140   137    1
    43    10    11    2
    44    97    96   ar
    45    97    95   ar
    46   137   138    1
    47    96    94   ar
    48    23    22    1
    49   101   100    1
    50   155   154    1
    51   155   156    2
    52    95    93   ar
    53    21    22   ar
    54    21    19   ar
    55    22    20   ar
    56    94    92   ar
    57   138   139    2
    58   138   145   am
    59   154   153    1
    60   154   157    1
    61   100   103    1
    62   100    99    1
    63   160   158    1
    64    27    26    2
    65   103   104    1
    66   145   146    1
    67    93    92   ar
    68   157   158    1
    69    19    17   ar
    70    20    18   ar
    71    92    91    1
    72    99    89   am
    73   158   159    1
    74    26    25    1
    75   104   105   ar
    76   104   106   ar
    77   105   107   ar
    78    90    89    2
    79    89    88    1
    80    28    29    1
    81    28    25    1
    82    28    30    1
    83    24    25    1
    84    18    17   ar
    85   146   147    1
    86   146   149    1
    87    17    16    1
    88   147   148    2
    89    91    88    1
    90    88    87    1
    91   106   108   ar
    92   107   108   ar
    93    12    13    1
    94   151   150    2
    95   149   150    1
    96    16    13    1
    97   150   152   am
    98    13    14    1
    99    87    79   am
   100    35    32    1
   101    14    15    2
   102    32    31    1
   103    32    33    1
   104    80    79    2
   105    79    78    1
   106   165   162    1
   107   161   162    1
   108    33    34    2
   109    60    59    1
   110    81    78    1
   111    81    82    1
   112   162   163    1
   113    78    77    1
   114    43    42    1
   115    43    44    1
   116   164   163    2
   117    37    36    1
   118    37    40    1
   119    37    38    1
   120   173   171   ar
   121    42    41    1
   122    61    59    1
   123    41    40    1
   124    75    74    1
   125   163   166   am
   126   170   171    1
   127   170   167    1
   128    59    58    1
   129    73    72    2
   130    58    55    1
   131   171   172   ar
   132    82    83   ar
   133    82    84   ar
   134    38    39    2
   135    77    72   am
   136   166   167    1
   137    55    54    1
   138    55    56    1
   139    83    85   ar
   140    72    71    1
   141   167   168    1
   142    74    71    1
   143    74    76    1
   144    84    86   ar
   145    71    70    1
   146    85    86   ar
   147   169   168    2
   148    56    57    2
   149    65    64    2
   150    64    63    1
   151    52    51   ar
   152    69    67    1
   153    53    51   ar
   154    66    63    1
   155    66    67    1
   156    62    63    1
   157    51    50    1
   158    67    68    1
   159    50    49    1
   160    49    46    1
   161    46    45    1
   162    46    47    1
   163    47    48    2
