@<TRIPOS>MOLECULE
tmp/3oosA01.pdb
 118 115 0 0 0
SMALL
GASTEIGER

@<TRIPOS>ATOM
      1  N         29.1970   28.3960   36.7060 N.3    31  TYR31      -0.1241
      2  CA        28.9340   29.8340   36.8200 C.3    31  TYR31       0.1605
      3  C         27.7940   30.1800   37.7730 C.2    31  TYR31       0.2264
      4  O         26.8890   30.9390   37.4290 O.2    31  TYR31      -0.2867
      5  CB        28.7310   30.4840   35.4360 C.3    31  TYR31       0.0534
      6  CG        27.9090   29.6850   34.4470 C.ar   31  TYR31      -0.0201
      7  CD1       26.5160   29.6560   34.5270 C.ar   31  TYR31      -0.0009
      8  CD2       28.5260   28.9820   33.4120 C.ar   31  TYR31      -0.0009
      9  CE1       25.7610   28.9310   33.6130 C.ar   31  TYR31       0.0417
     10  CE2       27.7760   28.2560   32.4880 C.ar   31  TYR31       0.0417
     11  CZ        26.3960   28.2330   32.5990 C.ar   31  TYR31       0.1957
     12  OH        25.6460   27.5140   31.6930 O.3    31  TYR31      -0.2866
     13  N         24.5360   19.8990   34.2870 N.3    97  SER97      -0.1202
     14  CA        24.5260   20.7890   33.1170 C.3    97  SER97       0.2020
     15  C         25.9340   21.3240   32.8540 C.2    97  SER97       0.2618
     16  O         26.8360   20.5260   32.6040 O.2    97  SER97      -0.2717
     17  CB        23.4600   21.8810   33.2600 C.3    97  SER97       0.2103
     18  OG        23.1810   22.4770   32.0050 O.3    97  SER97      -0.2182
     19  N         26.1520   22.6400   32.9290 N.am   98  ALA98      -0.1979
     20  CA        27.5220   23.1650   32.7920 C.3    98  ALA98       0.1597
     21  C         28.4550   22.5900   33.8640 C.2    98  ALA98       0.2287
     22  O         29.6470   22.3820   33.6140 O.2    98  ALA98      -0.2864
     23  CB        27.5430   24.6940   32.8070 C.3    98  ALA98       0.0319
     24  N         26.1410   20.1840   21.4180 N.3   127  TYR127     -0.1227
     25  CA        24.7760   20.2280   21.9620 C.3   127  TYR127      0.1736
     26  C         24.0060   21.4570   21.4630 C.2   127  TYR127      0.2595
     27  O         22.8150   21.3700   21.1780 O.2   127  TYR127     -0.2718
     28  CB        24.7670   20.1740   23.4990 C.3   127  TYR127      0.0548
     29  CG        25.3230   21.4100   24.1730 C.ar  127  TYR127     -0.0200
     30  CD1       24.4790   22.4330   24.6180 C.ar  127  TYR127     -0.0009
     31  CD2       26.6930   21.5540   24.3720 C.ar  127  TYR127     -0.0009
     32  CE1       24.9950   23.5730   25.2370 C.ar  127  TYR127      0.0417
     33  CE2       27.2180   22.6820   24.9830 C.ar  127  TYR127      0.0417
     34  CZ        26.3670   23.6870   25.4130 C.ar  127  TYR127      0.1957
     35  OH        26.9000   24.7960   26.0240 O.3   127  TYR127     -0.2866
     36  N         24.6990   22.5860   21.3350 N.am  128  ALA128     -0.1980
     37  CA        24.0590   23.8430   20.9510 C.3   128  ALA128      0.1597
     38  C         23.7790   23.9350   19.4470 C.2   128  ALA128      0.2287
     39  O         23.1820   24.9130   18.9870 O.2   128  ALA128     -0.2864
     40  CB        24.8850   25.0350   21.4280 C.3   128  ALA128      0.0319
     41  N         19.3250   26.1680   22.3940 N.3   135  TYR135     -0.1241
     42  CA        20.4710   26.9850   21.9920 C.3   135  TYR135      0.1605
     43  C         20.7510   26.9190   20.4900 C.2   135  TYR135      0.2264
     44  O         21.5970   27.6610   19.9800 O.2   135  TYR135     -0.2867
     45  CB        21.7210   26.5930   22.7900 C.3   135  TYR135      0.0534
     46  CG        21.5240   26.6500   24.2860 C.ar  135  TYR135     -0.0201
     47  CD1       21.2110   27.8540   24.9230 C.ar  135  TYR135     -0.0009
     48  CD2       21.6460   25.5020   25.0660 C.ar  135  TYR135     -0.0009
     49  CE1       21.0270   27.9120   26.2950 C.ar  135  TYR135      0.0417
     50  CE2       21.4650   25.5510   26.4420 C.ar  135  TYR135      0.0417
     51  CZ        21.1560   26.7580   27.0480 C.ar  135  TYR135      0.1957
     52  OH        20.9730   26.8210   28.4080 O.3   135  TYR135     -0.2866
     53  N         29.8450   33.1850   33.5630 N.3   195  LEU195     -0.1245
     54  CA        28.9840   32.8470   32.4290 C.3   195  LEU195      0.1561
     55  C         29.5290   33.4520   31.1390 C.2   195  LEU195      0.2260
     56  O         29.6080   32.7690   30.1120 O.2   195  LEU195     -0.2867
     57  CB        27.5440   33.3150   32.6670 C.3   195  LEU195      0.0270
     58  CG        26.5750   33.1510   31.4870 C.3   195  LEU195      0.0019
     59  CD1       26.3520   31.6730   31.1420 C.3   195  LEU195      0.0001
     60  CD2       25.2490   33.8430   31.7780 C.3   195  LEU195      0.0001
     61  N         32.5140   31.4940   29.9700 N.3   198  PHE198     -0.1227
     62  CA        32.1080   30.2430   29.3460 C.3   198  PHE198      0.1736
     63  C         31.6060   30.4670   27.9220 C.2   198  PHE198      0.2595
     64  O         32.0420   29.7880   26.9950 O.2   198  PHE198     -0.2718
     65  CB        31.0450   29.5000   30.1610 C.3   198  PHE198      0.0547
     66  CG        30.4970   28.2940   29.4510 C.ar  198  PHE198     -0.0202
     67  CD1       31.2880   27.1610   29.2760 C.ar  198  PHE198     -0.0042
     68  CD2       29.2100   28.3030   28.9180 C.ar  198  PHE198     -0.0042
     69  CE1       30.8000   26.0440   28.6040 C.ar  198  PHE198     -0.0003
     70  CE2       28.7130   27.1930   28.2430 C.ar  198  PHE198     -0.0003
     71  CZ        29.5110   26.0600   28.0870 C.ar  198  PHE198     -0.0000
     72  N         30.7000   31.4260   27.7570 N.am  199  ARG199     -0.1966
     73  CA        30.0520   31.6420   26.4630 C.3   199  ARG199      0.1729
     74  C         30.9810   32.2470   25.4130 C.2   199  ARG199      0.2616
     75  O         30.9240   31.8660   24.2420 O.2   199  ARG199     -0.2715
     76  CB        28.7920   32.4970   26.6180 C.3   199  ARG199      0.0348
     77  CG        27.6870   31.8330   27.4430 C.3   199  ARG199      0.0492
     78  CD        26.3310   32.4550   27.1570 C.3   199  ARG199      0.2205
     79  NE        25.8740   32.1400   25.8020 N.pl3 199  ARG199     -0.0865
     80  CZ        24.9740   32.8440   25.1220 C.cat 199  ARG199      0.5346
     81  NH1       24.4160   33.9230   25.6570 N.pl3 199  ARG199      0.1354
     82  NH2       24.6370   32.4690   23.8950 N.pl3 199  ARG199      0.1354
     83  N         31.8460   33.1640   25.8430 N.am  200  GLN200     -0.1977
     84  CA        32.6890   33.9280   24.9220 C.3   200  GLN200      0.1601
     85  C         34.0460   33.2800   24.6510 C.2   200  GLN200      0.2287
     86  O         34.6300   33.4770   23.5800 O.2   200  GLN200     -0.2864
     87  CB        32.8770   35.3590   25.4360 C.3   200  GLN200      0.0394
     88  CG        31.5870   36.1700   25.4880 C.3   200  GLN200      0.0908
     89  CD        31.6540   37.3260   26.4700 C.2   200  GLN200      0.2608
     90  OE1       32.7200   37.6620   26.9840 O.2   200  GLN200     -0.2717
     91  NE2       30.5060   37.9350   26.7400 N.am  200  GLN200     -0.0878
     92  N         33.3640   27.9360   25.5220 N.3   203  TYR203     -0.1241
     93  CA        32.4270   27.1610   24.7060 C.3   203  TYR203      0.1605
     94  C         32.9720   26.7510   23.3310 C.2   203  TYR203      0.2264
     95  O         32.8510   25.5880   22.9390 O.2   203  TYR203     -0.2867
     96  CB        31.0890   27.9060   24.5510 C.3   203  TYR203      0.0534
     97  CG        30.2070   27.3160   23.4730 C.ar  203  TYR203     -0.0201
     98  CD1       29.3380   26.2590   23.7530 C.ar  203  TYR203     -0.0009
     99  CD2       30.2610   27.7990   22.1660 C.ar  203  TYR203     -0.0009
    100  CE1       28.5390   25.7060   22.7590 C.ar  203  TYR203      0.0417
    101  CE2       29.4710   27.2540   21.1670 C.ar  203  TYR203      0.0417
    102  CZ        28.6120   26.2100   21.4700 C.ar  203  TYR203      0.1957
    103  OH        27.8390   25.6710   20.4700 O.3   203  TYR203     -0.2866
    104  N         18.0480   21.6190   27.0610 N.3   229  GLN229     -0.1231
    105  CA        19.3140   22.3510   27.0410 C.3   229  GLN229      0.1698
    106  C         20.4040   21.4960   26.3970 C.2   229  GLN229      0.2592
    107  O         20.7970   21.7610   25.2600 O.2   229  GLN229     -0.2718
    108  CB        19.6820   22.8660   28.4360 C.3   229  GLN229      0.0381
    109  CG        18.7750   24.0160   28.8800 C.3   229  GLN229      0.0905
    110  CD        19.1150   24.5570   30.2520 C.2   229  GLN229      0.2608
    111  OE1       20.2420   24.9800   30.5110 O.2   229  GLN229     -0.2717
    112  NE2       18.1330   24.5570   31.1380 N.am  229  GLN229     -0.0878
    113  N         20.8760   20.4740   27.1100 N.am  230  CYS230     -0.1970
    114  CA        21.6380   19.3930   26.4790 C.3   230  CYS230      0.1712
    115  C         20.6920   18.2110   26.2750 C.2   230  CYS230      0.2296
    116  O         20.3760   17.5030   27.2350 O.2   230  CYS230     -0.2864
    117  CB        22.8310   18.9630   27.3420 C.3   230  CYS230      0.0983
    118  SG        24.0860   20.2330   27.6250 S.3   230  CYS230     -0.0798
@<TRIPOS>BOND
     1    39    38    2
     2    38    37    1
     3    44    43    2
     4   103   102    1
     5    43    42    1
     6    37    36    1
     7    37    40    1
     8   101   102   ar
     9   101    99   ar
    10    27    26    2
    11    36    26   am
    12    24    25    1
    13    26    25    1
    14   102   100   ar
    15    25    28    1
    16    42    41    1
    17    42    45    1
    18    99    97   ar
    19   100    98   ar
    20    45    46    1
    21    95    94    2
    22    94    93    1
    23    97    98   ar
    24    97    96    1
    25    28    29    1
    26    86    85    2
    27    82    80    1
    28    29    31   ar
    29    29    30   ar
    30    75    74    2
    31    46    47   ar
    32    46    48   ar
    33    31    33   ar
    34    96    93    1
    35    30    32   ar
    36    85    84    1
    37    93    92    1
    38    84    87    1
    39    84    83    1
    40    47    49   ar
    41    33    34   ar
    42    48    50   ar
    43    80    81    1
    44    80    79    2
    45    32    34   ar
    46   107   106    2
    47    74    83   am
    48    74    73    1
    49    34    35    1
    50    87    88    1
    51    88    89    1
    52    79    78    1
    53   115   114    1
    54   115   116    2
    55    49    51   ar
    56   106   105    1
    57   106   113   am
    58    50    51   ar
    59    73    76    1
    60    73    72    1
    61    89    91   am
    62    89    90    2
    63   114   113    1
    64   114   117    1
    65    76    77    1
    66    64    63    2
    67   105   104    1
    68   105   108    1
    69    51    52    1
    70    78    77    1
    71   117   118    1
    72    72    63   am
    73    63    62    1
    74    71    70   ar
    75    71    69   ar
    76    70    68   ar
    77   108   109    1
    78    69    67   ar
    79   109   110    1
    80    68    66   ar
    81    67    66   ar
    82    62    61    1
    83    62    65    1
    84    66    65    1
    85    56    55    2
    86   110   111    2
    87   110   112   am
    88    55    54    1
    89    59    58    1
    90    58    60    1
    91    58    57    1
    92    12    11    1
    93    18    17    1
    94    54    57    1
    95    54    53    1
    96    10    11   ar
    97    10     8   ar
    98    11     9   ar
    99    16    15    2
   100    20    23    1
   101    20    19    1
   102    20    21    1
   103    15    19   am
   104    15    14    1
   105    14    17    1
   106    14    13    1
   107     8     6   ar
   108     9     7   ar
   109    22    21    2
   110     6     7   ar
   111     6     5    1
   112     5     2    1
   113     1     2    1
   114     2     3    1
   115     4     3    2
