@<TRIPOS>MOLECULE
tmp/3oosA00.pdb
 107 101 0 0 0
SMALL
GASTEIGER

@<TRIPOS>ATOM
      1  N         29.1970   28.3960   36.7060 N.3    31  TYR31      -0.1241
      2  CA        28.9340   29.8340   36.8200 C.3    31  TYR31       0.1605
      3  C         27.7940   30.1800   37.7730 C.2    31  TYR31       0.2264
      4  O         26.8890   30.9390   37.4290 O.2    31  TYR31      -0.2867
      5  CB        28.7310   30.4840   35.4360 C.3    31  TYR31       0.0534
      6  CG        27.9090   29.6850   34.4470 C.ar   31  TYR31      -0.0201
      7  CD1       26.5160   29.6560   34.5270 C.ar   31  TYR31      -0.0009
      8  CD2       28.5260   28.9820   33.4120 C.ar   31  TYR31      -0.0009
      9  CE1       25.7610   28.9310   33.6130 C.ar   31  TYR31       0.0417
     10  CE2       27.7760   28.2560   32.4880 C.ar   31  TYR31       0.0417
     11  CZ        26.3960   28.2330   32.5990 C.ar   31  TYR31       0.1957
     12  OH        25.6460   27.5140   31.6930 O.3    31  TYR31      -0.2866
     13  N         19.3250   26.1680   22.3940 N.3   135  TYR135     -0.1241
     14  CA        20.4710   26.9850   21.9920 C.3   135  TYR135      0.1605
     15  C         20.7510   26.9190   20.4900 C.2   135  TYR135      0.2264
     16  O         21.5970   27.6610   19.9800 O.2   135  TYR135     -0.2867
     17  CB        21.7210   26.5930   22.7900 C.3   135  TYR135      0.0534
     18  CG        21.5240   26.6500   24.2860 C.ar  135  TYR135     -0.0201
     19  CD1       21.2110   27.8540   24.9230 C.ar  135  TYR135     -0.0009
     20  CD2       21.6460   25.5020   25.0660 C.ar  135  TYR135     -0.0009
     21  CE1       21.0270   27.9120   26.2950 C.ar  135  TYR135      0.0417
     22  CE2       21.4650   25.5510   26.4420 C.ar  135  TYR135      0.0417
     23  CZ        21.1560   26.7580   27.0480 C.ar  135  TYR135      0.1957
     24  OH        20.9730   26.8210   28.4080 O.3   135  TYR135     -0.2866
     25  N         18.4700   38.5800   31.1870 N.3   151  LEU151     -0.1245
     26  CA        18.9040   38.0820   32.4950 C.3   151  LEU151      0.1561
     27  C         20.3730   38.4100   32.7890 C.2   151  LEU151      0.2260
     28  O         20.7410   38.6300   33.9480 O.2   151  LEU151     -0.2867
     29  CB        18.6290   36.5810   32.6410 C.3   151  LEU151      0.0270
     30  CG        17.1630   36.1620   32.8130 C.3   151  LEU151      0.0019
     31  CD1       17.0380   34.6470   32.7740 C.3   151  LEU151      0.0001
     32  CD2       16.5570   36.7120   34.1050 C.3   151  LEU151      0.0001
     33  N         12.8800   40.7260   35.6170 N.3   161  ARG161     -0.1245
     34  CA        13.7100   39.5880   36.0180 C.3   161  ARG161      0.1563
     35  C         12.8570   38.4560   36.5980 C.2   161  ARG161      0.2260
     36  O         13.0770   37.2810   36.2830 O.2   161  ARG161     -0.2867
     37  CB        14.7890   40.0200   37.0170 C.3   161  ARG161      0.0307
     38  CG        15.7400   38.9000   37.4270 C.3   161  ARG161      0.0489
     39  CD        16.9230   39.4200   38.2440 C.3   161  ARG161      0.2205
     40  NE        17.8080   40.2590   37.4370 N.pl3 161  ARG161     -0.0865
     41  CZ        18.7220   39.7920   36.5850 C.cat 161  ARG161      0.5346
     42  NH1       18.8980   38.4860   36.4240 N.pl3 161  ARG161      0.1354
     43  NH2       19.4690   40.6370   35.8950 N.pl3 161  ARG161      0.1354
     44  N         12.5830   34.7840   34.8450 N.3   165  SER165     -0.1217
     45  CA        13.0270   33.6380   35.6340 C.3   165  SER165      0.1889
     46  C         11.9330   32.5810   35.7200 C.2   165  SER165      0.2288
     47  O         12.2190   31.3820   35.6520 O.2   165  SER165     -0.2866
     48  CB        13.4490   34.0850   37.0310 C.3   165  SER165      0.2089
     49  OG        14.5070   35.0240   36.9410 O.3   165  SER165     -0.2183
     50  N         11.6180   30.8940   32.2820 N.3   168  TRP168     -0.1241
     51  CA        12.7220   29.9480   32.1480 C.3   168  TRP168      0.1605
     52  C         12.4550   28.6620   32.9290 C.2   168  TRP168      0.2264
     53  O         12.6340   27.5630   32.3950 O.2   168  TRP168     -0.2867
     54  CB        14.0440   30.5780   32.6050 C.3   168  TRP168      0.0550
     55  CG        15.2230   29.7180   32.2800 C.ar  168  TRP168      0.0003
     56  CD1       15.6990   28.6710   33.0150 C.ar  168  TRP168      0.0946
     57  CD2       16.0620   29.8110   31.1210 C.ar  168  TRP168      0.0152
     58  NE1       16.7840   28.1110   32.3920 N.ar  168  TRP168     -0.2442
     59  CE2       17.0300   28.7900   31.2270 C.ar  168  TRP168      0.0810
     60  CE3       16.0920   30.6590   30.0060 C.ar  168  TRP168      0.0012
     61  CZ2       18.0260   28.5940   30.2610 C.ar  168  TRP168      0.0191
     62  CZ3       17.0830   30.4600   29.0390 C.ar  168  TRP168      0.0001
     63  CH2       18.0320   29.4360   29.1760 C.ar  168  TRP168      0.0015
     64  N         22.9090   31.4330   42.3090 N.3   189  LYS189     -0.1231
     65  CA        22.6810   32.5730   41.4240 C.3   189  LYS189      0.1693
     66  C         23.7640   32.6350   40.3510 C.2   189  LYS189      0.2592
     67  O         24.9390   32.4110   40.6310 O.2   189  LYS189     -0.2718
     68  CB        22.6690   33.8730   42.2330 C.3   189  LYS189      0.0285
     69  CG        21.6590   34.9080   41.7570 C.3   189  LYS189      0.0035
     70  CD        21.4540   35.9920   42.8080 C.3   189  LYS189      0.0206
     71  CE        22.6100   36.9810   42.8250 C.3   189  LYS189      0.1093
     72  NZ        22.5930   37.8680   41.6290 N.3   189  LYS189     -0.1314
     73  N         23.3570   32.9380   39.1220 N.am  190  THR190     -0.1953
     74  CA        24.2980   33.0370   38.0070 C.3   190  THR190      0.1897
     75  C         25.3560   34.1040   38.2830 C.2   190  THR190      0.2313
     76  O         25.0290   35.2130   38.7120 O.2   190  THR190     -0.2863
     77  CB        23.5710   33.3590   36.6940 C.3   190  THR190      0.1794
     78  OG1       22.5780   32.3600   36.4530 O.3   190  THR190     -0.2208
     79  CG2       24.5470   33.3720   35.5240 C.3   190  THR190      0.0378
     80  N         29.8450   33.1850   33.5630 N.3   195  LEU195     -0.1245
     81  CA        28.9840   32.8470   32.4290 C.3   195  LEU195      0.1561
     82  C         29.5290   33.4520   31.1390 C.2   195  LEU195      0.2260
     83  O         29.6080   32.7690   30.1120 O.2   195  LEU195     -0.2867
     84  CB        27.5440   33.3150   32.6670 C.3   195  LEU195      0.0270
     85  CG        26.5750   33.1510   31.4870 C.3   195  LEU195      0.0019
     86  CD1       26.3520   31.6730   31.1420 C.3   195  LEU195      0.0001
     87  CD2       25.2490   33.8430   31.7780 C.3   195  LEU195      0.0001
     88  N         30.7000   31.4260   27.7570 N.3   199  ARG199     -0.1245
     89  CA        30.0520   31.6420   26.4630 C.3   199  ARG199      0.1563
     90  C         30.9810   32.2470   25.4130 C.2   199  ARG199      0.2260
     91  O         30.9240   31.8660   24.2420 O.2   199  ARG199     -0.2867
     92  CB        28.7920   32.4970   26.6180 C.3   199  ARG199      0.0307
     93  CG        27.6870   31.8330   27.4430 C.3   199  ARG199      0.0489
     94  CD        26.3310   32.4550   27.1570 C.3   199  ARG199      0.2205
     95  NE        25.8740   32.1400   25.8020 N.pl3 199  ARG199     -0.0865
     96  CZ        24.9740   32.8440   25.1220 C.cat 199  ARG199      0.5346
     97  NH1       24.4160   33.9230   25.6570 N.pl3 199  ARG199      0.1354
     98  NH2       24.6370   32.4690   23.8950 N.pl3 199  ARG199      0.1354
     99  N         18.0480   21.6190   27.0610 N.3   229  GLN229     -0.1245
    100  CA        19.3140   22.3510   27.0410 C.3   229  GLN229      0.1566
    101  C         20.4040   21.4960   26.3970 C.2   229  GLN229      0.2260
    102  O         20.7970   21.7610   25.2600 O.2   229  GLN229     -0.2867
    103  CB        19.6820   22.8660   28.4360 C.3   229  GLN229      0.0367
    104  CG        18.7750   24.0160   28.8800 C.3   229  GLN229      0.0905
    105  CD        19.1150   24.5570   30.2520 C.2   229  GLN229      0.2608
    106  OE1       20.2420   24.9800   30.5110 O.2   229  GLN229     -0.2717
    107  NE2       18.1330   24.5570   31.1380 N.am  229  GLN229     -0.0878
@<TRIPOS>BOND
     1    16    15    2
     2    15    14    1
     3    14    13    1
     4    14    17    1
     5    17    18    1
     6    98    96    1
     7    91    90    2
     8    18    19   ar
     9    18    20   ar
    10    19    21   ar
    11    20    22   ar
    12    96    97    1
    13    96    95    2
    14   102   101    2
    15    90    89    1
    16    95    94    1
    17    21    23   ar
    18   101   100    1
    19    22    23   ar
    20    89    92    1
    21    89    88    1
    22    92    93    1
    23   100    99    1
    24   100   103    1
    25    23    24    1
    26    94    93    1
    27   103   104    1
    28   104   105    1
    29    62    63   ar
    30    62    60   ar
    31    63    61   ar
    32    60    57   ar
    33    83    82    2
    34   105   106    2
    35   105   107   am
    36    61    59   ar
    37    57    59   ar
    38    57    55   ar
    39    82    81    1
    40    86    85    1
    41    25    26    1
    42    59    58   ar
    43    85    87    1
    44    85    84    1
    45    12    11    1
    46    51    50    1
    47    51    54    1
    48    51    52    1
    49    55    54    1
    50    55    56   ar
    51    58    56   ar
    52    53    52    2
    53    81    84    1
    54    81    80    1
    55    10    11   ar
    56    10     8   ar
    57    26    29    1
    58    26    27    1
    59    11     9   ar
    60    29    30    1
    61    31    30    1
    62    27    28    2
    63    30    32    1
    64     8     6   ar
    65     9     7   ar
    66     6     7   ar
    67     6     5    1
    68    44    45    1
    69     5     2    1
    70    79    77    1
    71    33    34    1
    72    45    46    1
    73    45    48    1
    74    47    46    2
    75    43    41    1
    76    34    35    1
    77    34    37    1
    78    36    35    2
    79    42    41    1
    80    78    77    1
    81    41    40    2
    82    77    74    1
    83     1     2    1
    84     2     3    1
    85    49    48    1
    86    37    38    1
    87    38    39    1
    88     4     3    2
    89    40    39    1
    90    74    75    1
    91    74    73    1
    92    75    76    2
    93    73    66   am
    94    66    67    2
    95    66    65    1
    96    65    68    1
    97    65    64    1
    98    72    71    1
    99    69    68    1
   100    69    70    1
   101    70    71    1
