@<TRIPOS>MOLECULE
tmp/3oosA02.pdb
 76 74 0 0 0
SMALL
GASTEIGER

@<TRIPOS>ATOM
      1  N         26.8490   30.9490   42.1810 N.3    33  GLU33      -0.1231
      2  CA        27.3090   31.1570   43.5500 C.3    33  GLU33       0.1699
      3  C         26.2630   30.7130   44.5610 C.2    33  GLU33       0.2592
      4  O         25.0720   30.9430   44.3780 O.2    33  GLU33      -0.2718
      5  CB        27.7400   32.6080   43.7900 C.3    33  GLU33       0.0402
      6  CG        26.6570   33.6600   43.5670 C.3    33  GLU33       0.1161
      7  CD        27.1910   35.0810   43.6330 C.2    33  GLU33       0.3649
      8  OE1       28.3740   35.2810   43.9850 O.co2  33  GLU33      -0.2457
      9  OE2       26.4170   36.0080   43.3330 O.co2  33  GLU33      -0.2457
     10  N         26.7330   30.0690   45.6230 N.am   34  TYR34      -0.1962
     11  CA        25.8770   29.4510   46.6220 C.3    34  TYR34       0.1771
     12  C         25.9380   30.1780   47.9620 C.2    34  TYR34       0.2620
     13  O         26.8500   30.9640   48.2200 O.2    34  TYR34      -0.2715
     14  CB        26.3010   27.9940   46.8310 C.3    34  TYR34       0.0574
     15  CG        26.3480   27.1610   45.5710 C.ar   34  TYR34      -0.0198
     16  CD1       25.1750   26.6940   44.9790 C.ar   34  TYR34      -0.0009
     17  CD2       27.5660   26.8240   44.9800 C.ar   34  TYR34      -0.0009
     18  CE1       25.2110   25.9200   43.8260 C.ar   34  TYR34       0.0417
     19  CE2       27.6140   26.0480   43.8250 C.ar   34  TYR34       0.0417
     20  CZ        26.4320   25.6010   43.2560 C.ar   34  TYR34       0.1957
     21  OH        26.4640   24.8270   42.1180 O.3    34  TYR34      -0.2866
     22  N         24.9480   29.9070   48.8060 N.am   35  ASN35      -0.1958
     23  CA        24.9590   30.3510   50.1960 C.3    35  ASN35       0.1819
     24  C         24.5530   29.1850   51.0990 C.2    35  ASN35       0.2621
     25  O         24.3760   28.0670   50.6120 O.2    35  ASN35      -0.2715
     26  CB        24.0670   31.5850   50.3900 C.3    35  ASN35       0.1195
     27  CG        22.6180   31.3340   50.0170 C.2    35  ASN35       0.2630
     28  OD1       22.0350   30.3200   50.3940 O.2    35  ASN35      -0.2716
     29  ND2       22.0230   32.2740   49.2850 N.am   35  ASN35      -0.0877
     30  N         24.4010   29.4360   52.3970 N.am   36  ASP36      -0.1971
     31  CA        24.1720   28.3440   53.3500 C.3    36  ASP36       0.1709
     32  C         22.7800   27.6940   53.3010 C.2    36  ASP36       0.2293
     33  O         22.4930   26.7870   54.0830 O.2    36  ASP36      -0.2864
     34  CB        24.5740   28.7470   54.7790 C.3    36  ASP36       0.1436
     35  CG        23.6780   29.8200   55.3810 C.2    36  ASP36       0.3671
     36  OD1       22.6690   30.2200   54.7620 O.co2  36  ASP36      -0.2456
     37  OD2       23.9900   30.2610   56.5060 O.co2  36  ASP36      -0.2456
     38  N         30.4580   34.1850   45.5190 N.3    60  GLY60      -0.1210
     39  CA        30.2260   34.3710   46.9500 C.3    60  GLY60       0.1956
     40  C         31.3810   35.0690   47.6440 C.2    60  GLY60       0.2611
     41  O         31.8530   36.1130   47.1890 O.2    60  GLY60      -0.2717
     42  N         31.8490   34.4790   48.7370 N.am   61  ASN61      -0.1974
     43  CA        32.9470   35.0650   49.5020 C.3    61  ASN61       0.1688
     44  C         34.3240   34.4870   49.1770 C.2    61  ASN61       0.2292
     45  O         35.3000   34.7700   49.8740 O.2    61  ASN61      -0.2864
     46  CB        32.6470   35.0100   51.0040 C.3    61  ASN61       0.1181
     47  CG        31.4600   35.8710   51.3800 C.2    61  ASN61       0.2629
     48  OD1       31.4800   37.0890   51.1880 O.2    61  ASN61      -0.2716
     49  ND2       30.4090   35.2440   51.9010 N.am   61  ASN61      -0.0877
     50  N         17.3090   26.6660   48.6490 N.3   186  ASN186     -0.1225
     51  CA        18.1200   26.6480   47.4410 C.3   186  ASN186      0.1785
     52  C         18.9720   27.8940   47.3120 C.2   186  ASN186      0.2598
     53  O         18.6330   28.9550   47.8440 O.2   186  ASN186     -0.2718
     54  CB        17.2290   26.4990   46.1990 C.3   186  ASN186      0.1169
     55  CG        17.9710   25.9120   45.0020 C.2   186  ASN186      0.2627
     56  OD1       18.9900   25.2350   45.1500 O.2   186  ASN186     -0.2716
     57  ND2       17.4440   26.1570   43.8080 N.am  186  ASN186     -0.0877
     58  N         20.0910   27.7380   46.6130 N.am  187  SER187     -0.1938
     59  CA        20.9260   28.8460   46.1800 C.3   187  SER187      0.2055
     60  C         21.6490   28.4250   44.9030 C.2   187  SER187      0.2644
     61  O         21.6390   27.2460   44.5330 O.2   187  SER187     -0.2714
     62  CB        21.9240   29.2460   47.2730 C.3   187  SER187      0.2130
     63  OG        22.9280   28.2600   47.4540 O.3   187  SER187     -0.2179
     64  N         22.2670   29.3900   44.2270 N.am  188  GLY188     -0.1939
     65  CA        22.9880   29.1210   42.9880 C.3   188  GLY188      0.2014
     66  C         22.6940   30.1710   41.9360 C.2   188  GLY188      0.2638
     67  O         22.2830   29.8360   40.8210 O.2   188  GLY188     -0.2714
     68  N         22.9090   31.4330   42.3090 N.am  189  LYS189     -0.1977
     69  CA        22.6810   32.5730   41.4240 C.3   189  LYS189      0.1596
     70  C         23.7640   32.6350   40.3510 C.2   189  LYS189      0.2287
     71  O         24.9390   32.4110   40.6310 O.2   189  LYS189     -0.2864
     72  CB        22.6690   33.8730   42.2330 C.3   189  LYS189      0.0298
     73  CG        21.6590   34.9080   41.7570 C.3   189  LYS189      0.0038
     74  CD        21.4540   35.9920   42.8080 C.3   189  LYS189      0.0206
     75  CE        22.6100   36.9810   42.8250 C.3   189  LYS189      0.1093
     76  NZ        22.5930   37.8680   41.6290 N.3   189  LYS189     -0.1314
@<TRIPOS>BOND
     1    70    71    2
     2    70    69    1
     3    67    66    2
     4    69    72    1
     5    69    68    1
     6    76    75    1
     7    73    72    1
     8    73    74    1
     9    66    68   am
    10    66    65    1
    11    21    20    1
    12     1     2    1
    13    74    75    1
    14    65    64    1
    15    20    19   ar
    16    20    18   ar
    17     9     7   ar
    18     2     5    1
    19     2     3    1
    20     6     7    1
    21     6     5    1
    22     7     8   ar
    23    57    55   am
    24    19    17   ar
    25    18    16   ar
    26    64    60   am
    27     4     3    2
    28    61    60    2
    29     3    10   am
    30    60    59    1
    31    16    15   ar
    32    17    15   ar
    33    55    56    2
    34    55    54    1
    35    38    39    1
    36    15    14    1
    37    10    11    1
    38    59    58    1
    39    59    62    1
    40    54    51    1
    41    58    52   am
    42    11    14    1
    43    11    12    1
    44    39    40    1
    45    41    40    2
    46    62    63    1
    47    52    51    1
    48    52    53    2
    49    51    50    1
    50    40    42   am
    51    12    13    2
    52    12    22   am
    53    42    43    1
    54    22    23    1
    55    44    43    1
    56    44    45    2
    57    29    27   am
    58    43    46    1
    59    27    26    1
    60    27    28    2
    61    23    26    1
    62    23    24    1
    63    25    24    2
    64    46    47    1
    65    24    30   am
    66    48    47    2
    67    47    49   am
    68    30    31    1
    69    32    31    1
    70    32    33    2
    71    31    34    1
    72    36    35   ar
    73    34    35    1
    74    35    37   ar
