@<TRIPOS>MOLECULE
tmp/3ootB01.pdb
 176 167 0 0 0
SMALL
GASTEIGER

@<TRIPOS>ATOM
      1  N        -33.2240  -44.5190  -18.3690 N.3    15  THR15      -0.1203
      2  CA       -33.4590  -45.8720  -18.8990 C.3    15  THR15       0.1994
      3  C        -32.6640  -46.9580  -18.1740 C.2    15  THR15       0.2617
      4  O        -33.0170  -48.1390  -18.2820 O.2    15  THR15      -0.2717
      5  CB       -33.1800  -45.9260  -20.4040 C.3    15  THR15       0.1784
      6  OG1      -31.8050  -45.5830  -20.6370 O.3    15  THR15      -0.2211
      7  CG2      -34.1330  -45.0300  -21.2280 C.3    15  THR15       0.0376
      8  N        -31.5740  -46.5690  -17.4590 N.am   16  GLN16      -0.1979
      9  CA       -30.7170  -47.5140  -16.7360 C.3    16  GLN16       0.1601
     10  C        -30.3720  -46.9620  -15.3810 C.2    16  GLN16       0.2287
     11  O        -29.8660  -45.8570  -15.2870 O.2    16  GLN16      -0.2864
     12  CB       -29.4160  -47.8020  -17.5170 C.3    16  GLN16       0.0394
     13  CG       -29.5970  -48.5450  -18.8310 C.3    16  GLN16       0.0908
     14  CD       -28.3250  -48.5720  -19.6490 C.2    16  GLN16       0.2608
     15  OE1      -27.2410  -48.9310  -19.1710 O.2    16  GLN16      -0.2717
     16  NE2      -28.4390  -48.2130  -20.9130 N.am   16  GLN16      -0.0878
     17  N        -27.3210  -53.7820  -12.4300 N.3    33  VAL33      -0.1245
     18  CA       -28.7480  -53.4490  -12.4020 C.3    33  VAL33       0.1561
     19  C        -29.3790  -54.4470  -11.4160 C.2    33  VAL33       0.2260
     20  O        -29.0570  -55.6410  -11.4380 O.2    33  VAL33      -0.2867
     21  CB       -29.4080  -53.4720  -13.8160 C.3    33  VAL33       0.0252
     22  CG1      -30.9250  -53.4440  -13.7400 C.3    33  VAL33       0.0019
     23  CG2      -28.9490  -52.2890  -14.6270 C.3    33  VAL33       0.0019
     24  N        -32.4390  -56.2690  -10.6940 N.3    35  ASP35      -0.1239
     25  CA       -33.5670  -56.7070  -11.5000 C.3    35  ASP35       0.1674
     26  C        -34.5490  -57.6630  -10.8190 C.2    35  ASP35       0.2266
     27  O        -34.2090  -58.8190  -10.5700 O.2    35  ASP35      -0.2867
     28  CB       -33.0040  -57.2990  -12.8190 C.3    35  ASP35       0.1410
     29  CG       -34.0090  -57.9040  -13.7830 C.2    35  ASP35       0.3668
     30  OD1      -35.1540  -57.4160  -13.8340 O.co2  35  ASP35      -0.2456
     31  OD2      -33.6270  -58.8060  -14.5450 O.co2  35  ASP35      -0.2456
     32  N        -37.1900  -58.7060  -12.3540 N.3    37  GLY37      -0.1225
     33  CA       -37.6850  -59.5050  -13.4700 C.3    37  GLY37       0.1811
     34  C        -36.8470  -60.7390  -13.7860 C.2    37  GLY37       0.2280
     35  O        -37.1240  -61.4130  -14.7790 O.2    37  GLY37      -0.2866
     36  N        -33.2670  -63.8680  -21.8430 N.3    80  TYR80      -0.1227
     37  CA       -34.0940  -62.7420  -21.4420 C.3    80  TYR80       0.1736
     38  C        -34.8730  -62.2780  -22.6540 C.2    80  TYR80       0.2596
     39  O        -34.5550  -62.6980  -23.7620 O.2    80  TYR80      -0.2718
     40  CB       -33.1890  -61.6080  -20.9510 C.3    80  TYR80       0.0548
     41  CG       -32.2990  -61.9640  -19.7820 C.ar   80  TYR80      -0.0200
     42  CD1      -32.8120  -62.0450  -18.4900 C.ar   80  TYR80      -0.0009
     43  CD2      -30.9260  -62.1330  -19.9500 C.ar   80  TYR80      -0.0009
     44  CE1      -31.9880  -62.3230  -17.3970 C.ar   80  TYR80       0.0417
     45  CE2      -30.0880  -62.4100  -18.8630 C.ar   80  TYR80       0.0417
     46  CZ       -30.6250  -62.4960  -17.5860 C.ar   80  TYR80       0.1957
     47  OH       -29.8120  -62.7520  -16.5100 O.3    80  TYR80      -0.2866
     48  N        -35.8710  -61.3970  -22.4560 N.am   81  SER81      -0.1938
     49  CA       -36.7170  -60.8550  -23.5310 C.3    81  SER81       0.2055
     50  C        -35.9230  -60.1590  -24.6300 C.2    81  SER81       0.2643
     51  O        -36.3000  -60.2470  -25.7950 O.2    81  SER81      -0.2714
     52  CB       -37.7360  -59.8710  -22.9680 C.3    81  SER81       0.2130
     53  OG       -38.5710  -60.4770  -22.0040 O.3    81  SER81      -0.2179
     54  N        -34.8380  -59.4650  -24.2610 N.am   82  THR82      -0.1950
     55  CA       -34.0140  -58.6740  -25.1790 C.3    82  THR82       0.1897
     56  C        -32.7600  -59.3560  -25.7270 C.2    82  THR82       0.2313
     57  O        -32.1510  -58.8170  -26.6540 O.2    82  THR82      -0.2863
     58  CB       -33.6280  -57.3310  -24.5280 C.3    82  THR82       0.1794
     59  OG1      -32.8370  -57.5860  -23.3640 O.3    82  THR82      -0.2208
     60  CG2      -34.8310  -56.4630  -24.2070 C.3    82  THR82       0.0378
     61  N        -28.2580  -56.8150  -26.8260 N.3   115  PRO115     -0.2102
     62  CA       -28.2960  -55.4140  -26.3740 C.3   115  PRO115      0.1504
     63  C        -27.1580  -54.9330  -25.4650 C.2   115  PRO115      0.2575
     64  O        -27.1480  -53.7610  -25.0910 O.2   115  PRO115     -0.2718
     65  CB       -29.6030  -55.3850  -25.5890 C.3   115  PRO115      0.0282
     66  CG       -29.6490  -56.7460  -24.9260 C.3   115  PRO115      0.0208
     67  CD       -28.9220  -57.7010  -25.8520 C.3   115  PRO115      0.0893
     68  N        -26.2320  -55.8210  -25.0800 N.am  116  PHE116     -0.1977
     69  CA       -25.2120  -55.5330  -24.0690 C.3   116  PHE116      0.1639
     70  C        -24.2080  -54.4170  -24.2990 C.2   116  PHE116      0.2290
     71  O        -23.6860  -53.8620  -23.3360 O.2   116  PHE116     -0.2864
     72  CB       -24.6190  -56.8060  -23.4720 C.3   116  PHE116      0.0560
     73  CG       -25.7170  -57.6570  -22.8770 C.ar  116  PHE116     -0.0200
     74  CD1      -26.3090  -57.3120  -21.6660 C.ar  116  PHE116     -0.0042
     75  CD2      -26.2160  -58.7630  -23.5660 C.ar  116  PHE116     -0.0042
     76  CE1      -27.3580  -58.0810  -21.1370 C.ar  116  PHE116     -0.0003
     77  CE2      -27.2810  -59.5230  -23.0480 C.ar  116  PHE116     -0.0003
     78  CZ       -27.8450  -59.1770  -21.8410 C.ar  116  PHE116     -0.0000
     79  N        -25.2150  -51.5880  -25.3800 N.3   118  LEU118     -0.1231
     80  CA       -26.0290  -50.4390  -25.0030 C.3   118  LEU118      0.1693
     81  C        -26.0360  -50.2470  -23.4940 C.2   118  LEU118      0.2591
     82  O        -26.3600  -49.1600  -23.0310 O.2   118  LEU118     -0.2718
     83  CB       -27.4710  -50.6000  -25.5180 C.3   118  LEU118      0.0284
     84  CG       -27.6500  -50.7820  -27.0200 C.3   118  LEU118      0.0019
     85  CD1      -29.1130  -50.7570  -27.3930 C.3   118  LEU118      0.0001
     86  CD2      -26.9490  -49.7240  -27.7810 C.3   118  LEU118      0.0001
     87  N        -25.6590  -51.3000  -22.7400 N.am  119  ALA119     -0.1980
     88  CA       -25.6340  -51.3220  -21.2960 C.3   119  ALA119      0.1597
     89  C        -24.4790  -50.5350  -20.7280 C.2   119  ALA119      0.2287
     90  O        -23.3370  -50.7400  -21.1240 O.2   119  ALA119     -0.2864
     91  CB       -25.5610  -52.7640  -20.8140 C.3   119  ALA119      0.0319
     92  N        -24.2180  -50.6850  -17.4210 N.3   121  PHE121     -0.1241
     93  CA       -23.9640  -51.6560  -16.3720 C.3   121  PHE121      0.1605
     94  C        -23.1400  -52.8170  -16.9540 C.2   121  PHE121      0.2264
     95  O        -23.2260  -53.1010  -18.1530 O.2   121  PHE121     -0.2867
     96  CB       -25.2950  -52.1650  -15.7740 C.3   121  PHE121      0.0534
     97  CG       -26.2540  -52.7900  -16.7630 C.ar  121  PHE121     -0.0203
     98  CD1      -27.1920  -52.0100  -17.4390 C.ar  121  PHE121     -0.0042
     99  CD2      -26.2390  -54.1650  -17.0000 C.ar  121  PHE121     -0.0042
    100  CE1      -28.1130  -52.5990  -18.3110 C.ar  121  PHE121     -0.0003
    101  CE2      -27.1300  -54.7460  -17.9080 C.ar  121  PHE121     -0.0003
    102  CZ       -28.0670  -53.9600  -18.5490 C.ar  121  PHE121     -0.0000
    103  N        -25.7990  -58.0310  -13.8480 N.3   124  VAL124     -0.1245
    104  CA       -27.1550  -58.0620  -13.3330 C.3   124  VAL124      0.1561
    105  C        -27.1870  -58.7610  -11.9700 C.2   124  VAL124      0.2260
    106  O        -26.4650  -59.7330  -11.7470 O.2   124  VAL124     -0.2867
    107  CB       -28.0670  -58.7580  -14.3780 C.3   124  VAL124      0.0252
    108  CG1      -29.4490  -59.1010  -13.8120 C.3   124  VAL124      0.0019
    109  CG2      -28.2040  -57.9040  -15.6350 C.3   124  VAL124      0.0019
    110  N        -41.0800  -54.9180  -12.9220 N.3   223  ASP223     -0.1239
    111  CA       -39.6940  -55.1510  -13.3330 C.3   223  ASP223      0.1674
    112  C        -38.8070  -53.8980  -13.2060 C.2   223  ASP223      0.2266
    113  O        -38.8810  -52.9940  -14.0420 O.2   223  ASP223     -0.2867
    114  CB       -39.7020  -55.6800  -14.7790 C.3   223  ASP223      0.1410
    115  CG       -38.3880  -56.2430  -15.2920 C.2   223  ASP223      0.3668
    116  OD1      -37.3270  -55.8310  -14.7830 O.co2 223  ASP223     -0.2456
    117  OD2      -38.4220  -57.0370  -16.2570 O.co2 223  ASP223     -0.2456
    118  N        -35.6100  -53.6500  -13.7240 N.3   225  GLY225     -0.1210
    119  CA       -34.6310  -53.6220  -14.8100 C.3   225  GLY225      0.1956
    120  C        -35.1840  -53.1320  -16.1480 C.2   225  GLY225      0.2612
    121  O        -34.4190  -52.7400  -17.0300 O.2   225  GLY225     -0.2717
    122  N        -36.5160  -53.1560  -16.3260 N.am  226  ALA226     -0.1965
    123  CA       -37.1520  -52.6950  -17.5530 C.3   226  ALA226      0.1728
    124  C        -37.1540  -51.1710  -17.5740 C.2   226  ALA226      0.2617
    125  O        -37.5610  -50.5400  -16.5900 O.2   226  ALA226     -0.2715
    126  CB       -38.5740  -53.2240  -17.6360 C.3   226  ALA226      0.0334
    127  N        -36.7120  -50.5800  -18.7020 N.am  227  SER227     -0.1936
    128  CA       -36.6130  -49.1270  -18.8650 C.3   227  SER227      0.2055
    129  C        -37.9570  -48.3940  -18.8720 C.2   227  SER227      0.2643
    130  O        -38.0430  -47.2460  -18.4300 O.2   227  SER227     -0.2714
    131  CB       -35.8510  -48.7930  -20.1420 C.3   227  SER227      0.2130
    132  OG       -34.4950  -49.1970  -20.0570 O.3   227  SER227     -0.2179
    133  N        -38.9880  -49.0290  -19.4090 N.am  228  TYR228     -0.1973
    134  CA       -40.2680  -48.3580  -19.6030 C.3   228  TYR228      0.1639
    135  C        -41.4380  -49.1380  -19.0810 C.2   228  TYR228      0.2290
    136  O        -41.2860  -50.2220  -18.5110 O.2   228  TYR228     -0.2864
    137  CB       -40.5000  -48.2000  -21.1260 C.3   228  TYR228      0.0560
    138  CG       -39.2670  -47.8420  -21.9210 C.ar  228  TYR228     -0.0198
    139  CD1      -38.7380  -46.5520  -21.8840 C.ar  228  TYR228     -0.0009
    140  CD2      -38.6250  -48.7920  -22.7140 C.ar  228  TYR228     -0.0009
    141  CE1      -37.5960  -46.2210  -22.6050 C.ar  228  TYR228      0.0417
    142  CE2      -37.4860  -48.4670  -23.4510 C.ar  228  TYR228      0.0417
    143  CZ       -36.9840  -47.1770  -23.4030 C.ar  228  TYR228      0.1957
    144  OH       -35.8790  -46.8460  -24.1530 O.3   228  TYR228     -0.2866
    145  N        -44.1780  -51.4060  -20.4370 N.3   230  SER230     -0.1217
    146  CA       -44.3930  -52.1770  -21.6590 C.3   230  SER230      0.1889
    147  C        -45.7000  -52.9500  -21.6020 C.2   230  SER230      0.2288
    148  O        -46.1840  -53.3050  -20.5350 O.2   230  SER230     -0.2866
    149  CB       -43.2050  -53.0850  -21.9800 C.3   230  SER230      0.2089
    150  OG       -43.0960  -54.1860  -21.0980 O.3   230  SER230     -0.2183
    151  N        -43.2340  -48.6250  -24.3900 N.3   298  HIS298     -0.1241
    152  CA       -42.8000  -49.4460  -25.5330 C.3   298  HIS298      0.1621
    153  C        -43.5410  -50.7910  -25.5870 C.2   298  HIS298      0.2264
    154  O        -44.0340  -51.2530  -24.5630 O.2   298  HIS298     -0.2867
    155  CB       -41.2830  -49.7270  -25.4270 C.3   298  HIS298      0.0745
    156  CG       -40.4000  -48.6220  -25.9260 C.ar  298  HIS298      0.0817
    157  ND1      -40.5440  -47.3010  -25.4780 N.ar  298  HIS298     -0.2268
    158  CD2      -39.3540  -48.6770  -26.7870 C.ar  298  HIS298      0.1154
    159  CE1      -39.6000  -46.6020  -26.0960 C.ar  298  HIS298      0.1986
    160  NE2      -38.8530  -47.3830  -26.8900 N.ar  298  HIS298     -0.2212
    161  N        -43.5970  -54.9160  -25.8130 N.3   300  MET300     -0.1245
    162  CA       -42.7880  -56.0800  -25.4550 C.3   300  MET300      0.1570
    163  C        -43.6790  -57.2800  -25.3420 C.2   300  MET300      0.2261
    164  O        -44.5490  -57.3380  -24.4650 O.2   300  MET300     -0.2867
    165  CB       -41.9980  -55.8860  -24.1560 C.3   300  MET300      0.0387
    166  CG       -40.5470  -55.5610  -24.3970 C.3   300  MET300      0.0595
    167  SD       -39.5090  -57.0130  -24.7890 S.3   300  MET300     -0.1393
    168  CE       -38.2710  -56.2120  -25.6270 C.3   300  MET300      0.0692
    169  N        -43.8990  -60.5810  -24.0960 N.3   302  ILE302     -0.1245
    170  CA       -43.2540  -61.4960  -23.1640 C.3   302  ILE302      0.1561
    171  C        -43.9200  -62.8690  -23.3450 C.2   302  ILE302      0.2260
    172  O        -45.1520  -62.9670  -23.2680 O.2   302  ILE302     -0.2867
    173  CB       -43.2450  -60.9540  -21.7050 C.3   302  ILE302      0.0252
    174  CG1      -42.3400  -59.7090  -21.6010 C.3   302  ILE302      0.0019
    175  CG2      -42.8160  -62.0310  -20.6830 C.3   302  ILE302      0.0019
    176  CD1      -42.9210  -58.5900  -20.7960 C.3   302  ILE302      0.0001
@<TRIPOS>BOND
     1    86    84    1
     2    85    84    1
     3    84    83    1
     4   160   158   ar
     5   160   159   ar
     6    61    62    1
     7    61    67    1
     8   158   156   ar
     9    57    56    2
    10    62    65    1
    11    62    63    1
    12   159   157   ar
    13   156   157   ar
    14   156   155    1
    15    67    66    1
    16   161   162    1
    17    51    50    2
    18    56    55    1
    19   168   167    1
    20    65    66    1
    21   153   152    1
    22   153   154    2
    23   152   155    1
    24   152   151    1
    25    83    80    1
    26    63    64    2
    27    63    68   am
    28   162   163    1
    29   162   165    1
    30    79    80    1
    31   163   164    2
    32    55    58    1
    33    55    54    1
    34    68    69    1
    35    80    81    1
    36   167   166    1
    37    50    54   am
    38    50    49    1
    39    58    60    1
    40    58    59    1
    41   166   165    1
    42    70    69    1
    43    70    71    2
    44   144   143    1
    45   169   170    1
    46    69    72    1
    47    39    38    2
    48    75    77   ar
    49    75    73   ar
    50    49    52    1
    51    49    48    1
    52    81    82    2
    53    81    87   am
    54    72    73    1
    55   142   143   ar
    56   142   140   ar
    57   143   141   ar
    58   171   172    2
    59   171   170    1
    60   170   173    1
    61    77    78   ar
    62    52    53    1
    63    73    74   ar
    64    87    88    1
    65   140   138   ar
    66    38    48   am
    67    38    37    1
    68   141   139   ar
    69   149   146    1
    70   149   150    1
    71   138   139   ar
    72   138   137    1
    73    36    37    1
    74    78    76   ar
    75   173   174    1
    76   173   175    1
    77    74    76   ar
    78   146   147    1
    79   146   145    1
    80   147   148    2
    81   174   176    1
    82    37    40    1
    83    88    91    1
    84    88    89    1
    85     7     5    1
    86   137   134    1
    87    90    89    2
    88    40    41    1
    89    16    14   am
    90     6     5    1
    91     5     2    1
    92   131   132    1
    93   131   128    1
    94    43    41   ar
    95    43    45   ar
    96    41    42   ar
    97    14    15    2
    98    14    13    1
    99   134   133    1
   100   134   135    1
   101   133   129   am
   102   135   136    2
   103     2     1    1
   104     2     3    1
   105   129   128    1
   106   129   130    2
   107   128   127    1
   108    45    46   ar
   109    13    12    1
   110   127   124   am
   111   102   100   ar
   112   102   101   ar
   113    42    44   ar
   114   100    98   ar
   115     4     3    2
   116     3     8   am
   117    95    94    2
   118   101    99   ar
   119   126   123    1
   120    46    44   ar
   121    46    47    1
   122   124   123    1
   123   124   125    2
   124   123   122    1
   125    12     9    1
   126     8     9    1
   127    98    97   ar
   128    92    93    1
   129   121   120    2
   130    99    97   ar
   131    94    93    1
   132    97    96    1
   133     9    10    1
   134    93    96    1
   135   122   120   am
   136   117   115   ar
   137   120   119    1
   138   109   107    1
   139    10    11    2
   140   115   116   ar
   141   115   114    1
   142   119   118    1
   143   114   111    1
   144    35    34    2
   145    23    21    1
   146    31    29   ar
   147   107   108    1
   148   107   104    1
   149   113   112    2
   150   103   104    1
   151    30    29   ar
   152    21    22    1
   153    21    18    1
   154    34    33    1
   155    29    28    1
   156    33    32    1
   157   104   105    1
   158   111   112    1
   159   111   110    1
   160    28    25    1
   161    17    18    1
   162    18    19    1
   163   105   106    2
   164    25    26    1
   165    25    24    1
   166    20    19    2
   167    26    27    2
