@<TRIPOS>MOLECULE
tmp/3ooyB00.pdb
 85 80 0 0 0
SMALL
GASTEIGER

@<TRIPOS>ATOM
      1  N         52.8300  -12.9790  -37.2000 N.3   333  GLY333     -0.1210
      2  CA        51.5660  -13.4960  -36.7070 C.3   333  GLY333      0.1956
      3  C         51.1720  -13.1080  -35.2690 C.2   333  GLY333      0.2612
      4  O         50.8810  -13.9930  -34.4700 O.2   333  GLY333     -0.2717
      5  N         51.0270  -11.8050  -34.9900 N.am  334  ASP334     -0.1959
      6  CA        50.7080  -11.2870  -33.6260 C.3   334  ASP334      0.1840
      7  C         51.7610  -11.6120  -32.5910 C.2   334  ASP334      0.2622
      8  O         51.4410  -11.7200  -31.4320 O.2   334  ASP334     -0.2715
      9  CB        49.3200  -11.7640  -33.1190 C.3   334  ASP334      0.1450
     10  CG        48.8260  -11.0000  -31.8750 C.2   334  ASP334      0.3671
     11  OD1       49.2480   -9.8330  -31.6460 O.co2 334  ASP334     -0.2456
     12  OD2       47.9880  -11.5670  -31.1070 O.co2 334  ASP334     -0.2456
     13  N         53.0060  -11.8080  -33.0060 N.am  335  THR335     -0.1951
     14  CA        54.0960  -12.1100  -32.0860 C.3   335  THR335      0.1897
     15  C         55.2550  -11.1040  -32.2870 C.2   335  THR335      0.2313
     16  O         56.3930  -11.3790  -31.9020 O.2   335  THR335     -0.2863
     17  CB        54.6320  -13.5160  -32.3350 C.3   335  THR335      0.1794
     18  OG1       54.7910  -13.7040  -33.7520 O.3   335  THR335     -0.2208
     19  CG2       53.6850  -14.5780  -31.7780 C.3   335  THR335      0.0378
     20  N         46.7910  -14.1670  -35.8550 N.3   357  ILE357     -0.1245
     21  CA        47.1530  -15.5180  -35.3600 C.3   357  ILE357      0.1561
     22  C         46.6160  -16.5040  -36.3960 C.2   357  ILE357      0.2260
     23  O         45.5720  -17.1400  -36.2150 O.2   357  ILE357     -0.2867
     24  CB        46.6160  -15.8110  -33.9260 C.3   357  ILE357      0.0252
     25  CG1       46.9170  -14.6450  -32.9720 C.3   357  ILE357      0.0019
     26  CG2       47.1870  -17.1210  -33.3880 C.3   357  ILE357      0.0019
     27  CD1       46.4110  -14.8340  -31.4910 C.3   357  ILE357      0.0001
     28  N         48.9160  -18.5410  -39.0030 N.3   359  GLU359     -0.1245
     29  CA        50.2350  -18.8660  -39.5270 C.3   359  GLU359      0.1567
     30  C         50.1780  -19.4630  -40.9400 C.2   359  GLU359      0.2260
     31  O         51.0350  -19.1870  -41.7680 O.2   359  GLU359     -0.2867
     32  CB        51.0250  -19.7910  -38.5940 C.3   359  GLU359      0.0388
     33  CG        51.3940  -19.1810  -37.2480 C.3   359  GLU359      0.1160
     34  CD        50.2800  -19.2700  -36.1910 C.2   359  GLU359      0.3649
     35  OE1       49.3170  -20.0710  -36.3690 O.co2 359  GLU359     -0.2457
     36  OE2       50.3870  -18.5600  -35.1510 O.co2 359  GLU359     -0.2457
     37  N         57.3490  -15.8150  -36.6640 N.3   381  THR381     -0.1203
     38  CA        56.5580  -16.1900  -35.5050 C.3   381  THR381      0.1994
     39  C         57.5070  -17.0310  -34.6770 C.2   381  THR381      0.2617
     40  O         58.7200  -17.0190  -34.9280 O.2   381  THR381     -0.2717
     41  CB        55.2070  -16.9240  -35.9030 C.3   381  THR381      0.1784
     42  OG1       54.4480  -17.2630  -34.7290 O.3   381  THR381     -0.2211
     43  CG2       55.4840  -18.1480  -36.7430 C.3   381  THR381      0.0376
     44  N         56.9790  -17.7330  -33.6890 N.am  382  PHE382     -0.1975
     45  CA        57.7440  -18.6960  -32.9350 C.3   382  PHE382      0.1639
     46  C         57.9730  -19.8590  -33.8720 C.2   382  PHE382      0.2290
     47  O         57.0730  -20.2700  -34.5940 O.2   382  PHE382     -0.2864
     48  CB        56.9850  -19.2410  -31.7090 C.3   382  PHE382      0.0560
     49  CG        56.7820  -18.2550  -30.5750 C.ar  382  PHE382     -0.0200
     50  CD1       56.5600  -16.9070  -30.7900 C.ar  382  PHE382     -0.0042
     51  CD2       56.7310  -18.7260  -29.2550 C.ar  382  PHE382     -0.0042
     52  CE1       56.3610  -16.0360  -29.7010 C.ar  382  PHE382     -0.0003
     53  CE2       56.5130  -17.8560  -28.1800 C.ar  382  PHE382     -0.0003
     54  CZ        56.3330  -16.5310  -28.4000 C.ar  382  PHE382     -0.0000
     55  N         55.2710  -22.6130  -34.0430 N.3   385  PHE385     -0.1241
     56  CA        54.0240  -22.3960  -34.7730 C.3   385  PHE385      0.1605
     57  C         54.1950  -22.4110  -36.2880 C.2   385  PHE385      0.2264
     58  O         53.2190  -22.3560  -37.0100 O.2   385  PHE385     -0.2867
     59  CB        53.3160  -21.1450  -34.2870 C.3   385  PHE385      0.0534
     60  CG        53.1830  -21.0960  -32.7920 C.ar  385  PHE385     -0.0203
     61  CD1       52.7480  -22.2130  -32.0930 C.ar  385  PHE385     -0.0042
     62  CD2       53.5310  -19.9620  -32.0820 C.ar  385  PHE385     -0.0042
     63  CE1       52.6560  -22.1930  -30.7390 C.ar  385  PHE385     -0.0003
     64  CE2       53.4380  -19.9510  -30.7050 C.ar  385  PHE385     -0.0003
     65  CZ        53.0000  -21.0790  -30.0430 C.ar  385  PHE385     -0.0000
     66  N         52.4340  -25.2920  -37.8190 N.3   388  ARG388     -0.1245
     67  CA        51.0420  -25.0420  -38.2150 C.3   388  ARG388      0.1563
     68  C         50.9270  -24.7700  -39.7190 C.2   388  ARG388      0.2260
     69  O         49.8570  -24.9150  -40.2820 O.2   388  ARG388     -0.2867
     70  CB        50.5110  -23.8460  -37.4220 C.3   388  ARG388      0.0307
     71  CG        48.9930  -23.5760  -37.4790 C.3   388  ARG388      0.0489
     72  CD        48.1900  -24.7260  -36.8860 C.3   388  ARG388      0.2205
     73  NE        46.9460  -24.2560  -36.3360 N.pl3 388  ARG388     -0.0865
     74  CZ        46.7380  -23.8870  -35.0630 C.cat 388  ARG388      0.5346
     75  NH1       47.6800  -23.9490  -34.1150 N.pl3 388  ARG388      0.1354
     76  NH2       45.5430  -23.4760  -34.7320 N.pl3 388  ARG388      0.1354
     77  N         55.2630  -24.0360  -26.5960 N.3   421  GLN421     -0.1245
     78  CA        55.9590  -22.9310  -27.2260 C.3   421  GLN421      0.1566
     79  C         57.3620  -23.3180  -27.7320 C.2   421  GLN421      0.2260
     80  O         58.0600  -22.5160  -28.3740 O.2   421  GLN421     -0.2867
     81  CB        56.0780  -21.7970  -26.2190 C.3   421  GLN421      0.0367
     82  CG        55.1180  -20.6950  -26.4190 C.3   421  GLN421      0.0905
     83  CD        53.7090  -21.0230  -26.0870 C.2   421  GLN421      0.2608
     84  OE1       53.4230  -22.0400  -25.4770 O.2   421  GLN421     -0.2717
     85  NE2       52.7990  -20.1400  -26.4790 N.am  421  GLN421     -0.0878
@<TRIPOS>BOND
     1    31    30    2
     2    30    29    1
     3    69    68    2
     4    68    67    1
     5    29    28    1
     6    29    32    1
     7    32    33    1
     8    67    66    1
     9    67    70    1
    10    71    70    1
    11    71    72    1
    12    33    34    1
    13     1     2    1
    14    58    57    2
    15    72    73    1
    16    43    41    1
    17     2     3    1
    18    37    38    1
    19    22    23    2
    20    22    21    1
    21    35    34   ar
    22    73    74    2
    23    57    56    1
    24    34    36   ar
    25    41    38    1
    26    41    42    1
    27    20    21    1
    28    38    39    1
    29    21    24    1
    30     3     5   am
    31     3     4    2
    32    74    76    1
    33    74    75    1
    34     5     6    1
    35    40    39    2
    36    56    59    1
    37    56    55    1
    38    39    44   am
    39    47    46    2
    40    59    60    1
    41    24    26    1
    42    24    25    1
    43    46    45    1
    44    18    17    1
    45    44    45    1
    46     6     9    1
    47     6     7    1
    48     9    10    1
    49    13     7   am
    50    13    14    1
    51    25    27    1
    52    45    48    1
    53    60    61   ar
    54    60    62   ar
    55     7     8    2
    56    17    14    1
    57    17    19    1
    58    15    14    1
    59    15    16    2
    60    61    63   ar
    61    62    64   ar
    62    10    11   ar
    63    10    12   ar
    64    48    49    1
    65    50    49   ar
    66    50    52   ar
    67    63    65   ar
    68    64    65   ar
    69    49    51   ar
    70    52    54   ar
    71    51    53   ar
    72    54    53   ar
    73    80    79    2
    74    79    78    1
    75    78    77    1
    76    78    81    1
    77    85    83   am
    78    82    81    1
    79    82    83    1
    80    83    84    2
