@<TRIPOS>MOLECULE
tmp/3oozA00.pdb
 210 199 0 0 0
SMALL
GASTEIGER

@<TRIPOS>ATOM
      1  N          4.9380    2.2700   12.8300 N.3    13  GLY13      -0.1210
      2  CA         5.4470    1.7750   14.1040 C.3    13  GLY13       0.1956
      3  C          5.4480    0.2610   14.2440 C.2    13  GLY13       0.2612
      4  O          5.8470   -0.2690   15.2900 O.2    13  GLY13      -0.2717
      5  N          5.0110   -0.4480   13.2020 N.am   14  GLN14      -0.1965
      6  CA         4.9710   -1.9140   13.2560 C.3    14  GLN14       0.1733
      7  C          5.8860   -2.5900   12.2350 C.2    14  GLN14       0.2616
      8  O          5.8300   -3.8050   12.0560 O.2    14  GLN14      -0.2715
      9  CB         3.5290   -2.4360   13.1730 C.3    14  GLN14       0.0408
     10  CG         2.6450   -1.9590   14.3390 C.3    14  GLN14       0.0908
     11  CD         1.2910   -2.6420   14.3850 C.2    14  GLN14       0.2608
     12  OE1        0.6990   -2.9530   13.3530 O.2    14  GLN14      -0.2717
     13  NE2        0.7840   -2.8580   15.5930 N.am   14  GLN14      -0.0878
     14  N          6.7490   -1.8010   11.5970 N.am   15  GLY15      -0.1955
     15  CA         7.7950   -2.3310   10.7260 C.3    15  GLY15       0.1869
     16  C          7.3990   -2.4800    9.2730 C.2    15  GLY15       0.2309
     17  O          6.2200   -2.3850    8.9320 O.2    15  GLY15      -0.2863
     18  N          9.1690   -9.3950    8.1510 N.3    32  LEU32      -0.1245
     19  CA         9.8410   -8.1540    8.5330 C.3    32  LEU32       0.1561
     20  C         11.2620   -8.0470    7.9480 C.2    32  LEU32       0.2260
     21  O         12.0930   -8.9730    8.0750 O.2    32  LEU32      -0.2867
     22  CB         9.8600   -7.9920   10.0480 C.3    32  LEU32       0.0270
     23  CG        10.5070   -6.7180   10.5950 C.3    32  LEU32       0.0019
     24  CD1        9.5750   -5.5140   10.4500 C.3    32  LEU32       0.0001
     25  CD2       10.9670   -6.9040   12.0520 C.3    32  LEU32       0.0001
     26  N         14.6150   -6.6920    8.3830 N.3    34  ASP34      -0.1239
     27  CA        15.3030   -6.2940    9.6070 C.3    34  ASP34       0.1674
     28  C         16.8170   -6.2830    9.4610 C.2    34  ASP34       0.2266
     29  O         17.4670   -7.3350    9.5330 O.2    34  ASP34      -0.2867
     30  CB        14.8900   -7.2400   10.7420 C.3    34  ASP34       0.1410
     31  CG        15.4720   -6.8500   12.0970 C.2    34  ASP34       0.3668
     32  OD1       16.0150   -5.7170   12.2810 O.co2  34  ASP34      -0.2456
     33  OD2       15.3580   -7.6890   12.9980 O.co2  34  ASP34      -0.2456
     34  N         18.7730   -5.1870   11.5780 N.3    36  GLY36      -0.1210
     35  CA        19.3060   -5.2010   12.9450 C.3    36  GLY36       0.1956
     36  C         19.4300   -6.5850   13.5710 C.2    36  GLY36       0.2613
     37  O         19.6960   -6.7020   14.7710 O.2    36  GLY36      -0.2717
     38  N         19.2330   -7.6200   12.7530 N.am   37  SER37      -0.1938
     39  CA        19.3920   -9.0210   13.1750 C.3    37  SER37       0.2055
     40  C         19.7930   -9.9020   11.9960 C.2    37  SER37       0.2644
     41  O         19.8680   -9.4390   10.8520 O.2    37  SER37      -0.2714
     42  CB        18.1240   -9.5610   13.8490 C.3    37  SER37       0.2130
     43  OG        17.0720   -9.7750   12.9170 O.3    37  SER37      -0.2179
     44  N         20.0470  -11.1750   12.2700 N.am   38  SER38      -0.1935
     45  CA        20.7100  -12.0110   11.2790 C.3    38  SER38       0.2055
     46  C         20.1120  -13.3970   11.0770 C.2    38  SER38       0.2643
     47  O         20.6930  -14.2210   10.3420 O.2    38  SER38      -0.2714
     48  CB        22.2020  -12.1170   11.6180 C.3    38  SER38       0.2130
     49  OG        22.7790  -10.8260   11.6400 O.3    38  SER38      -0.2179
     50  N         18.9700  -13.6570   11.7230 N.am   39  ASN39      -0.1971
     51  CA        18.2200  -14.8980   11.5150 C.3    39  ASN39       0.1688
     52  C         16.9990  -14.7410   10.6260 C.2    39  ASN39       0.2292
     53  O         16.2760  -13.7360   10.7030 O.2    39  ASN39      -0.2864
     54  CB        17.7340  -15.4770   12.8490 C.3    39  ASN39       0.1181
     55  CG        18.8420  -16.1160   13.6360 C.2    39  ASN39       0.2629
     56  OD1       19.6660  -15.4250   14.2300 O.2    39  ASN39      -0.2716
     57  ND2       18.8590  -17.4510   13.6650 N.am   39  ASN39      -0.0877
     58  N         13.7720  -16.0490   10.8600 N.3    41  ALA41      -0.1245
     59  CA        13.0120  -16.6450   11.9530 C.3    41  ALA41       0.1562
     60  C         11.5410  -16.4210   11.6820 C.2    41  ALA41       0.2260
     61  O         11.0950  -15.2680   11.5910 O.2    41  ALA41      -0.2867
     62  CB        13.4020  -16.0110   13.2780 C.3    41  ALA41       0.0290
     63  N         16.2460  -17.9970   22.0500 N.3    71  VAL71      -0.1245
     64  CA        16.7440  -16.6270   21.9780 C.3    71  VAL71       0.1561
     65  C         16.0440  -15.7010   22.9730 C.2    71  VAL71       0.2260
     66  O         15.0110  -15.1080   22.6530 O.2    71  VAL71      -0.2867
     67  CB        16.6740  -16.0520   20.5360 C.3    71  VAL71       0.0252
     68  CG1       17.3800  -14.6930   20.4570 C.3    71  VAL71       0.0019
     69  CG2       17.2940  -17.0290   19.5450 C.3    71  VAL71       0.0019
     70  N         16.1010  -12.1360   24.7000 N.3    73  TYR73      -0.1241
     71  CA        16.6510  -10.8130   24.4210 C.3    73  TYR73       0.1605
     72  C         15.9570   -9.7610   25.2830 C.2    73  TYR73       0.2264
     73  O         15.1080  -10.0990   26.1150 O.2    73  TYR73      -0.2867
     74  CB        16.6160  -10.4890   22.9150 C.3    73  TYR73       0.0534
     75  CG        15.2360  -10.3660   22.3030 C.ar   73  TYR73      -0.0201
     76  CD1       14.5060  -11.4990   21.9200 C.ar   73  TYR73      -0.0009
     77  CD2       14.6680   -9.1140   22.0850 C.ar   73  TYR73      -0.0009
     78  CE1       13.2330  -11.3760   21.3570 C.ar   73  TYR73       0.0417
     79  CE2       13.4060   -8.9810   21.5240 C.ar   73  TYR73       0.0417
     80  CZ        12.6930  -10.1100   21.1630 C.ar   73  TYR73       0.1957
     81  OH        11.4470   -9.9550   20.6070 O.3    73  TYR73      -0.2866
     82  N         13.7170   -7.1370   24.8970 N.3    75  GLN75      -0.1245
     83  CA        12.2760   -6.8830   24.8010 C.3    75  GLN75       0.1566
     84  C         11.3950   -8.1320   24.9330 C.2    75  GLN75       0.2260
     85  O         10.2250   -8.0290   25.3130 O.2    75  GLN75      -0.2867
     86  CB        11.9440   -6.1690   23.4880 C.3    75  GLN75       0.0367
     87  CG        12.4930   -4.7540   23.3700 C.3    75  GLN75       0.0905
     88  CD        11.6260   -3.8720   22.4850 C.2    75  GLN75       0.2608
     89  OE1       11.1570   -4.2990   21.4220 O.2    75  GLN75      -0.2717
     90  NE2       11.4010   -2.6350   22.9240 N.am   75  GLN75      -0.0878
     91  N         12.1720  -15.8590   22.0670 N.3    78  TRP78      -0.1241
     92  CA        11.5800  -16.8930   21.2390 C.3    78  TRP78       0.1605
     93  C         12.3900  -18.1870   21.2780 C.2    78  TRP78       0.2264
     94  O         13.5840  -18.1830   21.6040 O.2    78  TRP78      -0.2867
     95  CB        11.3470  -16.4000   19.8060 C.3    78  TRP78       0.0550
     96  CG        12.5850  -16.0540   19.0240 C.ar   78  TRP78       0.0003
     97  CD1       13.2130  -14.8320   18.9590 C.ar   78  TRP78       0.0946
     98  CD2       13.3270  -16.9290   18.1680 C.ar   78  TRP78       0.0152
     99  NE1       14.3010  -14.9020   18.1250 N.ar   78  TRP78      -0.2442
    100  CE2       14.3950  -16.1770   17.6250 C.ar   78  TRP78       0.0810
    101  CE3       13.1980  -18.2780   17.8130 C.ar   78  TRP78       0.0012
    102  CZ2       15.3300  -16.7340   16.7450 C.ar   78  TRP78       0.0191
    103  CZ3       14.1230  -18.8270   16.9400 C.ar   78  TRP78       0.0001
    104  CH2       15.1770  -18.0590   16.4170 C.ar   78  TRP78       0.0015
    105  N          6.3080  -11.8270   23.7280 N.3   109  LYS109     -0.1231
    106  CA         6.4970  -10.4170   23.3400 C.3   109  LYS109      0.1693
    107  C          7.3590  -10.2520   22.0790 C.2   109  LYS109      0.2592
    108  O          8.0230   -9.2250   21.8900 O.2   109  LYS109     -0.2718
    109  CB         7.0790   -9.5940   24.5010 C.3   109  LYS109      0.0285
    110  CG         6.2260   -9.5760   25.7650 C.3   109  LYS109      0.0035
    111  CD         6.9200   -8.8090   26.8780 C.3   109  LYS109      0.0206
    112  CE         6.1260   -8.8630   28.1650 C.3   109  LYS109      0.1093
    113  NZ         6.7810   -8.0610   29.2560 N.3   109  LYS109     -0.1314
    114  N          7.3280  -11.2610   21.2110 N.am  110  PHE110     -0.1976
    115  CA         8.0740  -11.2310   19.9620 C.3   110  PHE110      0.1639
    116  C          7.1800  -10.6910   18.8460 C.2   110  PHE110      0.2290
    117  O          7.4620   -9.6350   18.2680 O.2   110  PHE110     -0.2864
    118  CB         8.6090  -12.6340   19.6460 C.3   110  PHE110      0.0560
    119  CG         9.4530  -12.7120   18.4010 C.ar  110  PHE110     -0.0200
    120  CD1       10.7620  -12.2290   18.3910 C.ar  110  PHE110     -0.0042
    121  CD2        8.9500  -13.2990   17.2450 C.ar  110  PHE110     -0.0042
    122  CE1       11.5380  -12.3090   17.2420 C.ar  110  PHE110     -0.0003
    123  CE2        9.7180  -13.3820   16.0890 C.ar  110  PHE110     -0.0003
    124  CZ        11.0160  -12.8970   16.0880 C.ar  110  PHE110     -0.0000
    125  N          3.9340   -8.9220   17.0450 N.3   112  ILE112     -0.1245
    126  CA         3.2350   -7.6690   17.3240 C.3   112  ILE112      0.1561
    127  C          1.7860   -7.8350   16.8770 C.2   112  ILE112      0.2260
    128  O          1.5240   -8.2240   15.7320 O.2   112  ILE112     -0.2867
    129  CB         3.9010   -6.4600   16.5730 C.3   112  ILE112      0.0252
    130  CG1        5.3740   -6.3150   16.9780 C.3   112  ILE112      0.0019
    131  CG2        3.1380   -5.1430   16.8250 C.3   112  ILE112      0.0019
    132  CD1        6.1370   -5.2840   16.1780 C.3   112  ILE112      0.0001
    133  N          2.7910   -9.2210    9.7570 N.3   117  TRP117     -0.1241
    134  CA         3.9080  -10.0960    9.4000 C.3   117  TRP117      0.1605
    135  C          4.0330  -11.2670   10.3590 C.2   117  TRP117      0.2264
    136  O          3.6040  -11.1820   11.5160 O.2   117  TRP117     -0.2867
    137  CB         5.2380   -9.3360    9.2650 C.3   117  TRP117      0.0550
    138  CG         5.6400   -8.4730   10.4310 C.ar  117  TRP117      0.0003
    139  CD1        5.4910   -7.1120   10.5370 C.ar  117  TRP117      0.0946
    140  CD2        6.3450   -8.8930   11.6120 C.ar  117  TRP117      0.0152
    141  NE1        6.0200   -6.6760   11.7320 N.ar  117  TRP117     -0.2442
    142  CE2        6.5530   -7.7430   12.4060 C.ar  117  TRP117      0.0810
    143  CE3        6.8060  -10.1310   12.0810 C.ar  117  TRP117      0.0012
    144  CZ2        7.2060   -7.7940   13.6480 C.ar  117  TRP117      0.0191
    145  CZ3        7.4650  -10.1870   13.3190 C.ar  117  TRP117      0.0001
    146  CH2        7.6460   -9.0250   14.0920 C.ar  117  TRP117      0.0015
    147  N         10.6890  -12.7860   10.5990 N.3   120  ILE120     -0.1245
    148  CA        11.7080  -11.7550   10.4440 C.3   120  ILE120      0.1561
    149  C         12.8110  -12.2350    9.5110 C.2   120  ILE120      0.2260
    150  O         13.3060  -13.3590    9.6530 O.2   120  ILE120     -0.2867
    151  CB        12.3340  -11.3480   11.8090 C.3   120  ILE120      0.0252
    152  CG1       11.2570  -10.7820   12.7540 C.3   120  ILE120      0.0019
    153  CG2       13.4520  -10.3100   11.6100 C.3   120  ILE120      0.0019
    154  CD1       11.8310  -10.2070   14.0510 C.3   120  ILE120      0.0001
    155  N         26.2300  -12.0940   14.5760 N.3   128  ILE128     -0.1245
    156  CA        25.1340  -11.9690   15.5380 C.3   128  ILE128      0.1561
    157  C         23.9800  -12.9540   15.3020 C.2   128  ILE128      0.2260
    158  O         22.9130  -12.8060   15.8960 O.2   128  ILE128     -0.2867
    159  CB        24.6250  -10.4950   15.6770 C.3   128  ILE128      0.0252
    160  CG1       24.0600   -9.9480   14.3530 C.3   128  ILE128      0.0019
    161  CG2       25.7480   -9.5940   16.1850 C.3   128  ILE128      0.0019
    162  CD1       23.1550   -8.7220   14.5110 C.3   128  ILE128      0.0001
    163  N         21.8830  -16.4540   15.6410 N.3   130  ARG130     -0.1245
    164  CA        21.6070  -17.3650   16.7480 C.3   130  ARG130      0.1563
    165  C         21.3220  -18.7620   16.1990 C.2   130  ARG130      0.2260
    166  O         20.6220  -18.8950   15.2150 O.2   130  ARG130     -0.2867
    167  CB        20.4190  -16.8680   17.5730 C.3   130  ARG130      0.0307
    168  CG        20.6120  -15.4970   18.1940 C.3   130  ARG130      0.0489
    169  CD        21.7370  -15.5050   19.2050 C.3   130  ARG130      0.2205
    170  NE        21.8100  -14.2480   19.9520 N.pl3 130  ARG130     -0.0865
    171  CZ        21.3530  -14.0810   21.1940 C.cat 130  ARG130      0.5346
    172  NH1       21.4680  -12.8970   21.7880 N.pl3 130  ARG130      0.1354
    173  NH2       20.7910  -15.0880   21.8510 N.pl3 130  ARG130      0.1354
    174  N         19.3180    0.2780   11.5860 N.3   223  ASP223     -0.1225
    175  CA        18.3940   -0.8000   11.9670 C.3   223  ASP223      0.1805
    176  C         16.9670   -0.5490   11.4790 C.2   223  ASP223      0.2598
    177  O         16.2140    0.1980   12.0930 O.2   223  ASP223     -0.2718
    178  CB        18.4110   -0.9910   13.4930 C.3   223  ASP223      0.1424
    179  CG        17.5970   -2.2060   13.9500 C.2   223  ASP223      0.3668
    180  OD1       17.0910   -2.9270   13.0740 O.co2 223  ASP223     -0.2456
    181  OD2       17.4660   -2.4360   15.1770 O.co2 223  ASP223     -0.2456
    182  N         16.5830   -1.1990   10.3830 N.am  224  SER224     -0.1938
    183  CA        15.2270   -1.0670    9.8830 C.3   224  SER224      0.2055
    184  C         14.2090   -1.7080   10.8220 C.2   224  SER224      0.2644
    185  O         13.0220   -1.4230   10.7110 O.2   224  SER224     -0.2714
    186  CB        15.0940   -1.6790    8.4950 C.3   224  SER224      0.2130
    187  OG        15.4080   -3.0610    8.5340 O.3   224  SER224     -0.2179
    188  N         14.6810   -2.5810   11.7170 N.am  225  GLY225     -0.1939
    189  CA        13.8270   -3.2730   12.7000 C.3   225  GLY225      0.2014
    190  C         13.6690   -2.4990   14.0060 C.2   225  GLY225      0.2640
    191  O         13.2310   -3.0570   15.0180 O.2   225  GLY225     -0.2714
    192  N         14.0350   -1.2180   13.9770 N.am  226  THR226     -0.1936
    193  CA        13.8040   -0.2780   15.0890 C.3   226  THR226      0.2028
    194  C         13.0410    0.9300   14.5240 C.2   226  THR226      0.2642
    195  O         13.4430    1.5050   13.5050 O.2   226  THR226     -0.2714
    196  CB        15.1410    0.1930   15.7570 C.3   226  THR226      0.1808
    197  OG1       15.7260   -0.8790   16.5170 O.3   226  THR226     -0.2208
    198  CG2       14.9030    1.3900   16.7090 C.3   226  THR226      0.0379
    199  N         11.9580    1.3280   15.1880 N.am  227  THR227     -0.1950
    200  CA        11.1750    2.4870   14.7330 C.3   227  THR227      0.1897
    201  C         11.9290    3.8150   14.9290 C.2   227  THR227      0.2313
    202  O         12.1010    4.5790   13.9830 O.2   227  THR227     -0.2863
    203  CB         9.7810    2.5500   15.4170 C.3   227  THR227      0.1794
    204  OG1        9.0740    1.3210   15.2000 O.3   227  THR227     -0.2208
    205  CG2        8.9490    3.7260   14.8720 C.3   227  THR227      0.0378
    206  N         13.9040    3.3520   11.6020 N.3   322  ALA322     -0.1245
    207  CA        13.0700    3.6920   10.4450 C.3   322  ALA322      0.1562
    208  C         12.8980    5.1890   10.2440 C.2   322  ALA322      0.2260
    209  O         12.8500    5.6530    9.1020 O.2   322  ALA322     -0.2867
    210  CB        11.7010    3.0170   10.5390 C.3   322  ALA322      0.0290
@<TRIPOS>BOND
     1    20    21    2
     2    20    19    1
     3    18    19    1
     4    26    27    1
     5   186   187    1
     6   186   183    1
     7    19    22    1
     8    17    16    2
     9   209   208    2
    10   137   134    1
    11   137   138    1
    12    16    15    1
    13   134   133    1
    14   134   135    1
    15    28    29    2
    16    28    27    1
    17   149   150    2
    18   149   148    1
    19    27    30    1
    20   183   182    1
    21   183   184    1
    22    22    23    1
    23   208   207    1
    24    47    46    2
    25   135   136    2
    26   182   176   am
    27   138   139   ar
    28   138   140   ar
    29   148   147    1
    30   148   151    1
    31   207   210    1
    32   207   206    1
    33    24    23    1
    34   139   141   ar
    35    23    25    1
    36    52    53    2
    37    52    51    1
    38   185   184    2
    39    15    14    1
    40    30    31    1
    41   184   188   am
    42    41    40    2
    43    58    59    1
    44    46    45    1
    45    46    50   am
    46    45    48    1
    47    45    44    1
    48   176   175    1
    49   176   177    2
    50    51    50    1
    51    51    54    1
    52    34    35    1
    53   174   175    1
    54    61    60    2
    55    14     7   am
    56   153   151    1
    57   140   143   ar
    58   140   142   ar
    59    48    49    1
    60    60    59    1
    61   188   189    1
    62   141   142   ar
    63   151   152    1
    64    59    62    1
    65   175   178    1
    66    40    44   am
    67    40    39    1
    68     8     7    2
    69   143   145   ar
    70    31    32   ar
    71    31    33   ar
    72     7     6    1
    73   142   144   ar
    74   189   190    1
    75    38    39    1
    76    38    36   am
    77   152   154    1
    78     1     2    1
    79    54    55    1
    80    43    42    1
    81    35    36    1
    82   180   179   ar
    83     9     6    1
    84     9    10    1
    85    39    42    1
    86     5     6    1
    87     5     3   am
    88   145   146   ar
    89    12    11    2
    90   178   179    1
    91   195   194    2
    92    36    37    2
    93    55    57   am
    94    55    56    2
    95   144   146   ar
    96   179   181   ar
    97   192   190   am
    98   192   193    1
    99   202   201    2
   100   190   191    2
   101     2     3    1
   102     3     4    2
   103    10    11    1
   104   160   162    1
   105   160   159    1
   106    11    13   am
   107   194   193    1
   108   194   199   am
   109   155   156    1
   110   200   201    1
   111   200   199    1
   112   200   203    1
   113   205   203    1
   114   193   196    1
   115   204   203    1
   116   166   165    2
   117   157   156    1
   118   157   158    2
   119   156   159    1
   120   163   164    1
   121   159   161    1
   122   128   127    2
   123   196   197    1
   124   196   198    1
   125   124   123   ar
   126   124   122   ar
   127   123   121   ar
   128   132   130    1
   129   165   164    1
   130   104   102   ar
   131   104   103   ar
   132   129   131    1
   133   129   130    1
   134   129   126    1
   135   102   100   ar
   136   164   167    1
   137   127   126    1
   138   103   101   ar
   139   125   126    1
   140   122   120   ar
   141   121   119   ar
   142   167   168    1
   143   100    99   ar
   144   100    98   ar
   145   101    98   ar
   146    99    97   ar
   147    98    96   ar
   148   168   169    1
   149   117   116    2
   150   120   119   ar
   151   119   118    1
   152   116   115    1
   153    97    96   ar
   154    96    95    1
   155   169   170    1
   156    69    67    1
   157   118   115    1
   158    95    92    1
   159   170   171    2
   160   115   114    1
   161    68    67    1
   162    67    64    1
   163    81    80    1
   164    80    78   ar
   165    80    79   ar
   166   171   172    1
   167   171   173    1
   168   114   107   am
   169    92    93    1
   170    92    91    1
   171    93    94    2
   172    78    76   ar
   173    89    88    2
   174    79    77   ar
   175   108   107    2
   176    76    75   ar
   177    64    63    1
   178    64    65    1
   179   107   106    1
   180    77    75   ar
   181    75    74    1
   182    88    90   am
   183    88    87    1
   184    66    65    2
   185    74    71    1
   186   106   105    1
   187   106   109    1
   188    87    86    1
   189    86    83    1
   190    71    70    1
   191    71    72    1
   192   109   110    1
   193    83    82    1
   194    83    84    1
   195    84    85    2
   196    72    73    2
   197   110   111    1
   198   111   112    1
   199   112   113    1
