@<TRIPOS>MOLECULE
tmp/3op1B02.pdb
 130 128 0 0 0
SMALL
GASTEIGER

@<TRIPOS>ATOM
      1  N         13.0540  -20.3390  -26.8760 N.3    21  VAL21      -0.1231
      2  CA        13.4860  -21.7160  -26.6190 C.3    21  VAL21       0.1692
      3  C         14.0630  -21.8090  -25.2110 C.2    21  VAL21       0.2592
      4  O         14.8390  -20.9530  -24.8300 O.2    21  VAL21      -0.2718
      5  CB        14.5900  -22.1770  -27.6070 C.3    21  VAL21       0.0266
      6  CG1       14.8550  -23.6740  -27.4530 C.3    21  VAL21       0.0020
      7  CG2       14.2270  -21.8170  -29.0480 C.3    21  VAL21       0.0020
      8  N         13.7050  -22.8450  -24.4540 N.am   22  LEU22      -0.1966
      9  CA        14.2530  -23.0350  -23.0990 C.3    22  LEU22       0.1728
     10  C         15.2580  -24.2050  -22.9480 C.2    22  LEU22       0.2616
     11  O         15.2900  -25.1440  -23.7520 O.2    22  LEU22      -0.2715
     12  CB        13.1330  -23.2200  -22.0670 C.3    22  LEU22       0.0311
     13  CG        11.8670  -22.3610  -22.0720 C.3    22  LEU22       0.0022
     14  CD1       10.7550  -23.2530  -21.6300 C.3    22  LEU22       0.0001
     15  CD2       11.9690  -21.1550  -21.1540 C.3    22  LEU22       0.0001
     16  N         16.0360  -24.1400  -21.8690 N.am   23  GLY23      -0.1955
     17  CA        17.1010  -25.0860  -21.5520 C.3    23  GLY23       0.1869
     18  C         18.3110  -24.3380  -21.0140 C.2    23  GLY23       0.2309
     19  O         18.3570  -23.1060  -21.0840 O.2    23  GLY23      -0.2863
     20  N         22.0190  -23.8220  -22.0520 N.3    25  PHE25      -0.1241
     21  CA        22.6830  -24.0380  -23.3330 C.3    25  PHE25       0.1605
     22  C         24.2040  -23.9570  -23.2830 C.2    25  PHE25       0.2264
     23  O         24.7840  -22.9000  -23.5350 O.2    25  PHE25      -0.2867
     24  CB        22.1690  -23.0470  -24.3660 C.3    25  PHE25       0.0534
     25  CG        20.6920  -23.1230  -24.5890 C.ar   25  PHE25      -0.0203
     26  CD1       20.1110  -24.3040  -25.0090 C.ar   25  PHE25      -0.0042
     27  CD2       19.8790  -22.0110  -24.3860 C.ar   25  PHE25      -0.0042
     28  CE1       18.7610  -24.3780  -25.2140 C.ar   25  PHE25      -0.0003
     29  CE2       18.5320  -22.0870  -24.5950 C.ar   25  PHE25      -0.0003
     30  CZ        17.9730  -23.2730  -25.0070 C.ar   25  PHE25      -0.0000
     31  N         16.1460  -15.9200  -26.3750 N.3    52  VAL52      -0.1245
     32  CA        16.5710  -16.9820  -25.4790 C.3    52  VAL52       0.1561
     33  C         17.1670  -16.4270  -24.1620 C.2    52  VAL52       0.2260
     34  O         17.8210  -15.3720  -24.1190 O.2    52  VAL52      -0.2867
     35  CB        17.5680  -17.9160  -26.2080 C.3    52  VAL52       0.0252
     36  CG1       18.6650  -18.3130  -25.2790 C.3    52  VAL52       0.0019
     37  CG2       16.8270  -19.1320  -26.7730 C.3    52  VAL52       0.0019
     38  N         19.5990  -17.6820  -21.0170 N.3    53  THR53      -0.1203
     39  CA        20.3990  -18.6450  -20.2640 C.3    53  THR53       0.1994
     40  C         21.2100  -17.9310  -19.1700 C.2    53  THR53       0.2617
     41  O         21.0020  -16.7410  -18.9310 O.2    53  THR53      -0.2717
     42  CB        21.2830  -19.5140  -21.1920 C.3    53  THR53       0.1784
     43  OG1       21.3370  -20.8540  -20.6860 O.3    53  THR53      -0.2211
     44  CG2       22.6970  -18.9450  -21.3440 C.3    53  THR53       0.0376
     45  N         22.1440  -18.6320  -18.5230 N.am   54  PHE54      -0.1975
     46  CA        22.8580  -18.0440  -17.3840 C.3    54  PHE54       0.1639
     47  C         24.3420  -17.8610  -17.5540 C.2    54  PHE54       0.2290
     48  O         25.0000  -18.5960  -18.2890 O.2    54  PHE54      -0.2864
     49  CB        22.5900  -18.8390  -16.1110 C.3    54  PHE54       0.0560
     50  CG        21.1730  -19.2330  -15.9600 C.ar   54  PHE54      -0.0200
     51  CD1       20.2480  -18.3370  -15.4600 C.ar   54  PHE54      -0.0042
     52  CD2       20.7410  -20.4820  -16.3900 C.ar   54  PHE54      -0.0042
     53  CE1       18.9000  -18.7010  -15.3600 C.ar   54  PHE54      -0.0003
     54  CE2       19.4020  -20.8490  -16.2920 C.ar   54  PHE54      -0.0003
     55  CZ        18.4840  -19.9620  -15.7720 C.ar   54  PHE54      -0.0000
     56  N         22.0870  -16.9720  -12.1170 N.3    96  PHE96      -0.1241
     57  CA        21.1640  -17.8850  -11.4970 C.3    96  PHE96       0.1605
     58  C         21.3260  -17.7260   -9.9990 C.2    96  PHE96       0.2264
     59  O         21.9880  -18.5080   -9.3340 O.2    96  PHE96      -0.2867
     60  CB        21.4680  -19.3140  -11.9220 C.3    96  PHE96       0.0534
     61  CG        20.4900  -20.3140  -11.4080 C.ar   96  PHE96      -0.0203
     62  CD1       19.4910  -20.7960  -12.2160 C.ar   96  PHE96      -0.0042
     63  CD2       20.5650  -20.7640  -10.1170 C.ar   96  PHE96      -0.0042
     64  CE1       18.5930  -21.7100  -11.7450 C.ar   96  PHE96      -0.0003
     65  CE2       19.6680  -21.6790   -9.6450 C.ar   96  PHE96      -0.0003
     66  CZ        18.6820  -22.1530  -10.4600 C.ar   96  PHE96      -0.0000
     67  N         16.3620  -16.1940   -8.1110 N.3   100  PHE100     -0.1241
     68  CA        15.7930  -16.8030   -9.2870 C.3   100  PHE100      0.1605
     69  C         15.4030  -18.2530   -9.0140 C.2   100  PHE100      0.2264
     70  O         14.4310  -18.7620   -9.5750 O.2   100  PHE100     -0.2867
     71  CB        16.7600  -16.7250  -10.4530 C.3   100  PHE100      0.0534
     72  CG        16.2470  -17.3730  -11.6940 C.ar  100  PHE100     -0.0203
     73  CD1       15.5900  -16.6260  -12.6540 C.ar  100  PHE100     -0.0042
     74  CD2       16.4220  -18.7380  -11.8990 C.ar  100  PHE100     -0.0042
     75  CE1       15.1280  -17.2220  -13.7870 C.ar  100  PHE100     -0.0003
     76  CE2       15.9540  -19.3550  -13.0280 C.ar  100  PHE100     -0.0003
     77  CZ        15.3140  -18.6020  -13.9830 C.ar  100  PHE100     -0.0000
     78  N         11.6900  -18.7070   -7.5920 N.3   103  LEU103     -0.1245
     79  CA        10.5600  -18.5960   -8.5140 C.3   103  LEU103      0.1561
     80  C          9.9050  -19.9440   -8.7410 C.2   103  LEU103      0.2260
     81  O         10.5900  -20.9120   -9.0870 O.2   103  LEU103     -0.2867
     82  CB        10.9880  -18.0210   -9.8770 C.3   103  LEU103      0.0270
     83  CG        11.7610  -16.6980   -9.7920 C.3   103  LEU103      0.0019
     84  CD1       11.8340  -15.9580  -11.1300 C.3   103  LEU103      0.0001
     85  CD2       11.1780  -15.7910   -8.6870 C.3   103  LEU103      0.0001
     86  N          7.6510  -17.6980  -12.7380 N.3   108  PHE108     -0.1241
     87  CA         8.5860  -17.5200  -13.8370 C.3   108  PHE108      0.1605
     88  C          7.8980  -16.9840  -15.1020 C.2   108  PHE108      0.2264
     89  O          8.3970  -16.0440  -15.7520 O.2   108  PHE108     -0.2867
     90  CB         9.2560  -18.8570  -14.1250 C.3   108  PHE108      0.0534
     91  CG        10.1030  -18.8580  -15.3450 C.ar  108  PHE108     -0.0203
     92  CD1       11.2630  -18.0880  -15.4010 C.ar  108  PHE108     -0.0042
     93  CD2        9.7800  -19.6730  -16.4240 C.ar  108  PHE108     -0.0042
     94  CE1       12.0630  -18.1010  -16.5260 C.ar  108  PHE108     -0.0003
     95  CE2       10.5840  -19.7060  -17.5540 C.ar  108  PHE108     -0.0003
     96  CZ        11.7190  -18.9180  -17.6120 C.ar  108  PHE108     -0.0000
     97  N         13.3640  -31.1580  -20.0330 N.3   126  TYR126     -0.1227
     98  CA        13.5070  -29.8870  -19.3470 C.3   126  TYR126      0.1736
     99  C         12.6250  -29.7710  -18.1130 C.2   126  TYR126      0.2596
    100  O         11.4330  -30.0760  -18.1380 O.2   126  TYR126     -0.2718
    101  CB        13.2140  -28.7310  -20.3060 C.3   126  TYR126      0.0548
    102  CG        13.2240  -27.3690  -19.6470 C.ar  126  TYR126     -0.0200
    103  CD1       14.4150  -26.7830  -19.2410 C.ar  126  TYR126     -0.0009
    104  CD2       12.0430  -26.6720  -19.4300 C.ar  126  TYR126     -0.0009
    105  CE1       14.4300  -25.5400  -18.6380 C.ar  126  TYR126      0.0417
    106  CE2       12.0480  -25.4290  -18.8280 C.ar  126  TYR126      0.0417
    107  CZ        13.2450  -24.8660  -18.4340 C.ar  126  TYR126      0.1957
    108  OH        13.2530  -23.6290  -17.8330 O.3   126  TYR126     -0.2866
    109  N         13.2520  -29.3310  -17.0260 N.am  127  THR127     -0.1939
    110  CA        12.5960  -29.0720  -15.7590 C.3   127  THR127      0.2028
    111  C         12.8440  -27.6210  -15.3940 C.2   127  THR127      0.2642
    112  O         13.9740  -27.1540  -15.4720 O.2   127  THR127     -0.2714
    113  CB        13.1850  -29.9370  -14.6390 C.3   127  THR127      0.1808
    114  OG1       13.3610  -31.2790  -15.1030 O.3   127  THR127     -0.2208
    115  CG2       12.2690  -29.9460  -13.4380 C.3   127  THR127      0.0379
    116  N         11.7970  -26.9080  -14.9940 N.am  128  PHE128     -0.1959
    117  CA        11.9220  -25.5000  -14.6380 C.3   128  PHE128      0.1771
    118  C         11.2610  -25.2090  -13.2950 C.2   128  PHE128      0.2620
    119  O         10.4930  -26.0220  -12.7820 O.2   128  PHE128     -0.2715
    120  CB        11.3100  -24.6160  -15.7270 C.3   128  PHE128      0.0574
    121  CG         9.8890  -24.9660  -16.0660 C.ar  128  PHE128     -0.0200
    122  CD1        9.5960  -26.1230  -16.7670 C.ar  128  PHE128     -0.0042
    123  CD2        8.8470  -24.1390  -15.6820 C.ar  128  PHE128     -0.0042
    124  CE1        8.2900  -26.4500  -17.0800 C.ar  128  PHE128     -0.0003
    125  CE2        7.5390  -24.4590  -15.9920 C.ar  128  PHE128     -0.0003
    126  CZ         7.2600  -25.6160  -16.6920 C.ar  128  PHE128     -0.0000
    127  N         11.5370  -24.0530  -12.7220 N.am  129  GLY129     -0.1954
    128  CA        10.6870  -23.5190  -11.6850 C.3   129  GLY129      0.1869
    129  C         10.9990  -24.1240  -10.3450 C.2   129  GLY129      0.2309
    130  O         11.5360  -25.2210  -10.2660 O.2   129  GLY129     -0.2863
@<TRIPOS>BOND
     1     7     5    1
     2     5     6    1
     3     5     2    1
     4     1     2    1
     5    37    35    1
     6     2     3    1
     7    31    32    1
     8    35    32    1
     9    35    36    1
    10    32    33    1
    11    28    26   ar
    12    28    30   ar
    13     3     4    2
    14     3     8   am
    15    26    25   ar
    16    30    29   ar
    17    29    27   ar
    18    25    27   ar
    19    25    24    1
    20     8     9    1
    21    24    21    1
    22    33    34    2
    23    11    10    2
    24    23    22    2
    25    21    22    1
    26    21    20    1
    27     9    10    1
    28     9    12    1
    29    10    16   am
    30    13    12    1
    31    13    14    1
    32    13    15    1
    33    16    17    1
    34    17    18    1
    35    44    42    1
    36    42    43    1
    37    42    39    1
    38    19    18    2
    39    38    39    1
    40   101   102    1
    41   101    98    1
    42    39    40    1
    43    97    98    1
    44   102   104   ar
    45   102   103   ar
    46   104   106   ar
    47    98    99    1
    48   103   105   ar
    49    40    41    2
    50    40    45   am
    51   106   107   ar
    52   105   107   ar
    53    45    46    1
    54   107   108    1
    55    48    47    2
    56   100    99    2
    57    99   109   am
    58    96    95   ar
    59    96    94   ar
    60    95    93   ar
    61    47    46    1
    62    46    49    1
    63   124   122   ar
    64   124   126   ar
    65   109   110    1
    66   122   121   ar
    67   126   125   ar
    68    94    92   ar
    69    93    91   ar
    70    52    54   ar
    71    52    50   ar
    72    54    55   ar
    73    49    50    1
    74   121   120    1
    75   121   123   ar
    76   125   123   ar
    77    50    51   ar
    78    55    53   ar
    79   110   111    1
    80   110   113    1
    81    89    88    2
    82   120   117    1
    83   112   111    2
    84    51    53   ar
    85    92    91   ar
    86   111   116   am
    87    91    90    1
    88   114   113    1
    89    88    87    1
    90   116   117    1
    91   113   115    1
    92   117   118    1
    93    90    87    1
    94    77    75   ar
    95    77    76   ar
    96    87    86    1
    97    75    73   ar
    98   118   119    2
    99   118   127   am
   100    76    74   ar
   101   127   128    1
   102    73    72   ar
   103    62    64   ar
   104    62    61   ar
   105    56    57    1
   106    60    57    1
   107    60    61    1
   108    74    72   ar
   109    64    66   ar
   110    72    71    1
   111   128   129    1
   112    57    58    1
   113    61    63   ar
   114    84    83    1
   115    66    65   ar
   116    71    68    1
   117   129   130    2
   118    63    65   ar
   119    58    59    2
   120    82    83    1
   121    82    79    1
   122    83    85    1
   123    70    69    2
   124    68    69    1
   125    68    67    1
   126    81    80    2
   127    80    79    1
   128    79    78    1
