@<TRIPOS>MOLECULE
tmp/3op2A00.pdb
 110 100 0 0 0
SMALL
GASTEIGER

@<TRIPOS>ATOM
      1  N         33.4360   32.1800  -38.1210 N.3    22  GLU22      -0.1245
      2  CA        34.6930   32.7570  -38.6300 C.3    22  GLU22       0.1567
      3  C         35.8560   31.7520  -38.7100 C.2    22  GLU22       0.2260
      4  O         36.6020   31.7350  -39.6940 O.2    22  GLU22      -0.2867
      5  CB        35.0670   34.0170  -37.8370 C.3    22  GLU22       0.0388
      6  CG        34.0160   35.1400  -37.9780 C.3    22  GLU22       0.1160
      7  CD        34.4250   36.4670  -37.3420 C.2    22  GLU22       0.3649
      8  OE1       35.0660   36.4560  -36.2660 O.co2  22  GLU22      -0.2457
      9  OE2       34.0840   37.5280  -37.9130 O.co2  22  GLU22      -0.2457
     10  N         27.8460   48.4700  -39.8650 N.3   134  SER134     -0.1202
     11  CA        28.6950   47.3990  -39.3270 C.3   134  SER134      0.2020
     12  C         28.1490   45.9990  -39.6520 C.2   134  SER134      0.2619
     13  O         27.0430   45.6540  -39.2330 O.2   134  SER134     -0.2717
     14  CB        28.8540   47.5500  -37.8150 C.3   134  SER134      0.2103
     15  OG        29.6330   46.4940  -37.2820 O.3   134  SER134     -0.2182
     16  N         28.9140   45.1830  -40.3750 N.am  135  SER135     -0.1951
     17  CA        30.2440   45.5170  -40.8900 C.3   135  SER135      0.1924
     18  C         30.5040   44.7420  -42.1760 C.2   135  SER135      0.2314
     19  O         29.8310   43.7500  -42.4610 O.2   135  SER135     -0.2863
     20  CB        31.3370   45.1910  -39.8560 C.3   135  SER135      0.2116
     21  OG        31.1940   43.8770  -39.3430 O.3   135  SER135     -0.2180
     22  N         32.3450   50.1580  -41.3770 N.3   161  LYS161     -0.1245
     23  CA        33.4460   49.3940  -40.7840 C.3   161  LYS161      0.1561
     24  C         33.7690   48.1120  -41.5620 C.2   161  LYS161      0.2260
     25  O         32.8640   47.3420  -41.9300 O.2   161  LYS161     -0.2867
     26  CB        33.1410   49.0720  -39.3180 C.3   161  LYS161      0.0271
     27  CG        34.3030   48.5040  -38.5100 C.3   161  LYS161      0.0035
     28  CD        34.0170   48.6540  -37.0220 C.3   161  LYS161      0.0206
     29  CE        33.1010   47.5510  -36.5220 C.3   161  LYS161      0.1093
     30  NZ        32.6830   47.7450  -35.1030 N.3   161  LYS161     -0.1314
     31  N         36.0560   44.4960  -41.5620 N.3   163  LYS163     -0.1245
     32  CA        36.8460   43.4930  -40.8660 C.3   163  LYS163      0.1561
     33  C         38.1820   43.2980  -41.5790 C.2   163  LYS163      0.2260
     34  O         38.2440   43.2720  -42.8080 O.2   163  LYS163     -0.2867
     35  CB        36.0870   42.1680  -40.7510 C.3   163  LYS163      0.0271
     36  CG        35.0600   42.1710  -39.6260 C.3   163  LYS163      0.0035
     37  CD        34.2820   40.8590  -39.5640 C.3   163  LYS163      0.0206
     38  CE        33.5200   40.7280  -38.2570 C.3   163  LYS163      0.1093
     39  NZ        32.5700   41.8590  -38.0390 N.3   163  LYS163     -0.1314
     40  N         38.2200   46.8190  -38.1500 N.3   190  ASP190     -0.1239
     41  CA        38.0880   46.0070  -36.9160 C.3   190  ASP190      0.1674
     42  C         38.8980   44.7170  -37.0810 C.2   190  ASP190      0.2266
     43  O         38.6200   43.9160  -37.9900 O.2   190  ASP190     -0.2867
     44  CB        36.6050   45.6820  -36.6330 C.3   190  ASP190      0.1410
     45  CG        36.3590   45.0770  -35.2450 C.2   190  ASP190      0.3668
     46  OD1       37.2540   44.4310  -34.6430 O.co2 190  ASP190     -0.2456
     47  OD2       35.2210   45.2350  -34.7370 O.co2 190  ASP190     -0.2456
     48  N         39.4200   42.4190  -34.5780 N.3   192  ASN192     -0.1240
     49  CA        38.8910   41.4040  -33.6770 C.3   192  ASN192      0.1653
     50  C         39.9840   40.6790  -32.8940 C.2   192  ASN192      0.2266
     51  O         39.9100   39.4650  -32.7040 O.2   192  ASN192     -0.2867
     52  CB        37.9700   40.4200  -34.4430 C.3   192  ASN192      0.1155
     53  CG        36.7100   41.0900  -34.9620 C.2   192  ASN192      0.2627
     54  OD1       36.5970   41.4020  -36.1510 O.2   192  ASN192     -0.2716
     55  ND2       35.7680   41.3480  -34.0630 N.am  192  ASN192     -0.0877
     56  N         40.1180   49.1350  -34.6670 N.3   215  GLU215     -0.1245
     57  CA        39.3670   48.5330  -33.5600 C.3   215  GLU215      0.1567
     58  C         39.9080   47.1470  -33.1930 C.2   215  GLU215      0.2260
     59  O         40.2580   46.3460  -34.0770 O.2   215  GLU215     -0.2867
     60  CB        37.8620   48.4650  -33.9240 C.3   215  GLU215      0.0388
     61  CG        36.9520   47.8090  -32.8490 C.3   215  GLU215      0.1160
     62  CD        35.4520   47.9530  -33.1490 C.2   215  GLU215      0.3649
     63  OE1       35.0500   48.8440  -33.9180 O.co2 215  GLU215     -0.2457
     64  OE2       34.6640   47.1690  -32.5830 O.co2 215  GLU215     -0.2457
     65  N         34.5360   46.5380  -26.6120 N.3   242  GLU242     -0.1245
     66  CA        33.3460   45.6820  -26.6050 C.3   242  GLU242      0.1567
     67  C         33.4950   44.4680  -25.6820 C.2   242  GLU242      0.2260
     68  O         32.4950   43.9220  -25.2030 O.2   242  GLU242     -0.2867
     69  CB        32.9810   45.2350  -28.0130 C.3   242  GLU242      0.0388
     70  CG        33.9640   44.2550  -28.5990 C.3   242  GLU242      0.1160
     71  CD        33.7330   44.0020  -30.0530 C.2   242  GLU242      0.3649
     72  OE1       33.2690   42.9000  -30.3680 O.co2 242  GLU242     -0.2457
     73  OE2       34.0170   44.8910  -30.8830 O.co2 242  GLU242     -0.2457
     74  N         30.2220   49.9720  -28.5720 N.3   292  HIS292     -0.1241
     75  CA        29.7400   48.8020  -29.2940 C.3   292  HIS292      0.1621
     76  C         28.2720   48.6370  -28.9090 C.2   292  HIS292      0.2264
     77  O         27.9400   48.7700  -27.7260 O.2   292  HIS292     -0.2867
     78  CB        30.5330   47.5960  -28.8250 C.3   292  HIS292      0.0745
     79  CG        29.9900   46.2860  -29.2930 C.ar  292  HIS292      0.0817
     80  ND1       28.9810   45.6200  -28.6280 N.ar  292  HIS292     -0.2268
     81  CD2       30.3320   45.5070  -30.3460 C.ar  292  HIS292      0.1154
     82  CE1       28.7250   44.4860  -29.2580 C.ar  292  HIS292      0.1986
     83  NE2       29.5280   44.3970  -30.3040 N.ar  292  HIS292     -0.2212
     84  N         26.0620   46.1440  -30.7090 N.3   294  PHE294     -0.1241
     85  CA        25.6600   45.0000  -31.5190 C.3   294  PHE294      0.1605
     86  C         25.0650   43.8310  -30.7180 C.2   294  PHE294      0.2264
     87  O         25.8040   43.0920  -30.0600 O.2   294  PHE294     -0.2867
     88  CB        26.9520   44.5410  -32.2320 C.3   294  PHE294      0.0534
     89  CG        26.7560   43.6380  -33.4250 C.ar  294  PHE294     -0.0203
     90  CD1       26.3620   42.3140  -33.2680 C.ar  294  PHE294     -0.0042
     91  CD2       27.0690   44.0990  -34.7080 C.ar  294  PHE294     -0.0042
     92  CE1       26.2260   41.4660  -34.3770 C.ar  294  PHE294     -0.0003
     93  CE2       26.9320   43.2660  -35.8380 C.ar  294  PHE294     -0.0003
     94  CZ        26.5170   41.9430  -35.6690 C.ar  294  PHE294     -0.0000
     95  N         27.5750   52.6340  -33.9620 N.3   316  GLU316     -0.1245
     96  CA        27.5140   51.3430  -34.6190 C.3   316  GLU316      0.1567
     97  C         26.0830   50.9330  -34.9380 C.2   316  GLU316      0.2260
     98  O         25.2370   50.8140  -34.0300 O.2   316  GLU316     -0.2867
     99  CB        28.1850   50.2690  -33.7650 C.3   316  GLU316      0.0388
    100  CG        28.1550   48.9020  -34.4140 C.3   316  GLU316      0.1160
    101  CD        28.9570   47.8640  -33.6670 C.2   316  GLU316      0.3649
    102  OE1       28.9420   47.8610  -32.4170 O.co2 316  GLU316     -0.2457
    103  OE2       29.5950   47.0400  -34.3500 O.co2 316  GLU316     -0.2457
    104  N         23.3990   43.5890  -40.4410 N.3   320  THR320     -0.1218
    105  CA        23.0820   42.2020  -40.7990 C.3   320  THR320      0.1862
    106  C         21.6060   41.8840  -40.5510 C.2   320  THR320      0.2287
    107  O         20.9340   42.5530  -39.7640 O.2   320  THR320     -0.2866
    108  CB        23.9550   41.1630  -40.0350 C.3   320  THR320      0.1770
    109  OG1       23.5550   41.0940  -38.6570 O.3   320  THR320     -0.2211
    110  CG2       25.4430   41.5020  -40.1380 C.3   320  THR320      0.0375
@<TRIPOS>BOND
     1    34    33    2
     2    19    18    2
     3    18    17    1
     4    25    24    2
     5    33    32    1
     6    31    32    1
     7    24    23    1
     8    22    23    1
     9    17    16    1
    10    17    20    1
    11    32    35    1
    12   105   106    1
    13   105   104    1
    14   105   108    1
    15    23    26    1
    16    35    36    1
    17   106   107    2
    18    16    12   am
    19   110   108    1
    20   108   109    1
    21    10    11    1
    22    20    21    1
    23     4     3    2
    24    12    11    1
    25    12    13    2
    26    36    37    1
    27    37    38    1
    28    11    14    1
    29    26    27    1
    30     3     2    1
    31     2     1    1
    32     2     5    1
    33    27    28    1
    34    38    39    1
    35    40    41    1
    36    43    42    2
    37     6     5    1
    38     6     7    1
    39     9     7   ar
    40    14    15    1
    41     7     8   ar
    42    42    41    1
    43    28    29    1
    44    41    44    1
    45    44    45    1
    46    29    30    1
    47    54    53    2
    48    93    94   ar
    49    93    91   ar
    50    94    92   ar
    51    45    47   ar
    52    45    46   ar
    53    53    52    1
    54    53    55   am
    55    97    96    1
    56    97    98    2
    57    91    89   ar
    58    56    57    1
    59    96    95    1
    60    96    99    1
    61    48    49    1
    62    52    49    1
    63   100    99    1
    64   100   101    1
    65    92    90   ar
    66   103   101   ar
    67    59    58    2
    68    60    57    1
    69    60    61    1
    70    63    62   ar
    71    49    50    1
    72   101   102   ar
    73    57    58    1
    74    89    90   ar
    75    89    88    1
    76    62    61    1
    77    62    64   ar
    78    50    51    2
    79    88    85    1
    80    85    86    1
    81    85    84    1
    82    73    71   ar
    83    86    87    2
    84    72    71   ar
    85    81    83   ar
    86    81    79   ar
    87    83    82   ar
    88    71    70    1
    89    75    76    1
    90    75    78    1
    91    75    74    1
    92    79    78    1
    93    79    80   ar
    94    82    80   ar
    95    76    77    2
    96    70    69    1
    97    69    66    1
    98    65    66    1
    99    66    67    1
   100    67    68    2
