@<TRIPOS>MOLECULE
tmp/3op5A00.pdb
 167 158 0 0 0
SMALL
GASTEIGER

@<TRIPOS>ATOM
      1  N         36.5490    3.8520   10.6890 N.3    23  ILE23      -0.1231
      2  CA        35.8800    4.9140   11.4400 C.3    23  ILE23       0.1692
      3  C         35.5060    4.4170   12.8610 C.2    23  ILE23       0.2593
      4  O         35.0020    5.2060   13.6580 O.2    23  ILE23      -0.2718
      5  CB        34.6630    5.5110   10.6680 C.3    23  ILE23       0.0266
      6  CG1       33.6840    4.4210   10.1810 C.3    23  ILE23       0.0019
      7  CG2       35.1330    6.4130    9.5180 C.3    23  ILE23       0.0020
      8  CD1       32.2770    4.9050    9.9220 C.3    23  ILE23       0.0001
      9  N         35.8060    3.1440   13.1580 N.am   24  GLY24      -0.1942
     10  CA        35.5850    2.5110   14.4570 C.3    24  GLY24       0.2014
     11  C         36.4130    3.1860   15.5370 C.2    24  GLY24       0.2638
     12  O         37.6480    3.1660   15.4820 O.2    24  GLY24      -0.2714
     13  N         35.7300    3.8470   16.4930 N.am   25  GLN25      -0.1977
     14  CA        36.3460    4.6440   17.5650 C.3    25  GLN25       0.1601
     15  C         36.8110    3.7790   18.7520 C.2    25  GLN25       0.2287
     16  O         35.9850    3.1570   19.4250 O.2    25  GLN25      -0.2864
     17  CB        35.3690    5.7360   18.0580 C.3    25  GLN25       0.0394
     18  CG        34.9010    6.7120   16.9670 C.3    25  GLN25       0.0908
     19  CD        33.5680    7.3790   17.2620 C.2    25  GLN25       0.2608
     20  OE1       32.6040    6.7610   17.7350 O.2    25  GLN25      -0.2717
     21  NE2       33.4580    8.6470   16.8990 N.am   25  GLN25      -0.0878
     22  N         35.1030    0.4920   21.2390 N.3    27  PHE27      -0.1227
     23  CA        34.0420    0.0590   20.3310 C.3    27  PHE27       0.1736
     24  C         34.5780   -0.9700   19.2940 C.2    27  PHE27       0.2596
     25  O         35.7460   -1.3670   19.3740 O.2    27  PHE27      -0.2718
     26  CB        33.3890    1.2700   19.6430 C.3    27  PHE27       0.0547
     27  CG        32.6050    2.2210   20.5640 C.ar   27  PHE27      -0.0202
     28  CD1       32.1150    1.7640   21.7690 C.ar   27  PHE27      -0.0042
     29  CD2       32.3640    3.5210   20.1270 C.ar   27  PHE27      -0.0042
     30  CE1       31.3760    2.6420   22.5340 C.ar   27  PHE27      -0.0003
     31  CE2       31.6240    4.3840   20.8980 C.ar   27  PHE27      -0.0003
     32  CZ        31.1320    3.9230   22.1080 C.ar   27  PHE27      -0.0000
     33  N         33.7080   -1.4020   18.3680 N.am   28  GLY28      -0.1957
     34  CA        34.0060   -2.4060   17.3460 C.3    28  GLY28       0.1869
     35  C         34.8710   -1.9950   16.1630 C.2    28  GLY28       0.2309
     36  O         35.3180   -0.8450   16.0670 O.2    28  GLY28      -0.2863
     37  N         34.9350   -1.1270   12.5350 N.3    30  ILE30      -0.1245
     38  CA        34.0270   -0.5640   11.5360 C.3    30  ILE30       0.1561
     39  C         34.7860    0.2930   10.5240 C.2    30  ILE30       0.2260
     40  O         35.5900    1.1420   10.9040 O.2    30  ILE30      -0.2867
     41  CB        32.8800    0.2520   12.2320 C.3    30  ILE30       0.0252
     42  CG1       32.1160   -0.5980   13.2770 C.3    30  ILE30       0.0019
     43  CG2       31.8960    0.8520   11.2140 C.3    30  ILE30       0.0019
     44  CD1       31.6360    0.1610   14.4960 C.3    30  ILE30       0.0001
     45  N         28.4710    1.2660    5.9500 N.3    48  VAL48      -0.1245
     46  CA        29.5570    0.8730    6.8330 C.3    48  VAL48       0.1561
     47  C         29.6620   -0.6640    6.8220 C.2    48  VAL48       0.2260
     48  O         28.6550   -1.3640    6.6530 O.2    48  VAL48      -0.2867
     49  CB        29.5080    1.4230    8.2890 C.3    48  VAL48       0.0252
     50  CG1       29.6220    2.9420    8.3200 C.3    48  VAL48       0.0019
     51  CG2       28.2870    0.9130    9.0690 C.3    48  VAL48       0.0019
     52  N         30.8240   -3.7100    9.3700 N.3    50  LYS50      -0.1245
     53  CA        31.1740   -4.1140   10.7320 C.3    50  LYS50       0.1561
     54  C         31.8100   -5.5020   10.6560 C.2    50  LYS50       0.2260
     55  O         31.2310   -6.3940   10.0430 O.2    50  LYS50      -0.2867
     56  CB        29.9420   -4.1060   11.6540 C.3    50  LYS50       0.0271
     57  CG        30.2770   -4.1550   13.1400 C.3    50  LYS50       0.0035
     58  CD        29.0340   -3.9450   14.0060 C.3    50  LYS50       0.0206
     59  CE        29.2660   -4.2900   15.4630 C.3    50  LYS50       0.1093
     60  NZ        29.9420   -3.1970   16.2110 N.3    50  LYS50      -0.1314
     61  N         23.3510   -9.6880   16.6760 N.3    62  GLU62      -0.1245
     62  CA        23.0660   -8.4750   15.9140 C.3    62  GLU62       0.1567
     63  C         22.6920   -8.8080   14.4730 C.2    62  GLU62       0.2260
     64  O         21.7270   -8.2450   13.9590 O.2    62  GLU62      -0.2867
     65  CB        24.2540   -7.5160   15.9560 C.3    62  GLU62       0.0388
     66  CG        23.8930   -6.1310   15.4620 C.3    62  GLU62       0.1160
     67  CD        24.8830   -5.0460   15.8050 C.2    62  GLU62       0.3649
     68  OE1       26.0980   -5.2760   15.6180 O.co2  62  GLU62      -0.2457
     69  OE2       24.4420   -3.9520   16.2250 O.co2  62  GLU62      -0.2457
     70  N         18.9890   -8.1010   12.4640 N.3    66  TYR66      -0.1241
     71  CA        18.9660   -7.3810   11.1850 C.3    66  TYR66       0.1605
     72  C         18.4060   -8.2470   10.0440 C.2    66  TYR66       0.2264
     73  O         17.6210   -7.7450    9.2340 O.2    66  TYR66      -0.2867
     74  CB        20.3630   -6.8360   10.8140 C.3    66  TYR66       0.0534
     75  CG        20.6880   -5.5240   11.4930 C.ar   66  TYR66      -0.0201
     76  CD1       21.6690   -5.4460   12.4760 C.ar   66  TYR66      -0.0009
     77  CD2       19.9990   -4.3620   11.1730 C.ar   66  TYR66      -0.0009
     78  CE1       21.9510   -4.2430   13.1270 C.ar   66  TYR66       0.0417
     79  CE2       20.2710   -3.1560   11.8200 C.ar   66  TYR66       0.0417
     80  CZ        21.2510   -3.1000   12.7930 C.ar   66  TYR66       0.1957
     81  OH        21.5230   -1.9030   13.4010 O.3    66  TYR66      -0.2866
     82  N         18.2000    0.8750   11.4800 N.3    90  PRO90      -0.2116
     83  CA        19.1820    0.8610   10.3760 C.3    90  PRO90       0.1372
     84  C         18.9240   -0.2870    9.4110 C.2    90  PRO90       0.2244
     85  O         18.4890   -1.3470    9.8360 O.2    90  PRO90      -0.2868
     86  CB        20.5290    0.7100   11.0960 C.3    90  PRO90       0.0268
     87  CG        20.2480    1.0940   12.5470 C.3    90  PRO90       0.0207
     88  CD        18.8490    0.6140   12.7790 C.3    90  PRO90       0.0892
     89  N         25.7580   -2.2430    6.6590 N.3   110  MET110     -0.1230
     90  CA        24.6430   -1.4770    7.1950 C.3   110  MET110      0.1702
     91  C         24.7550   -0.0330    6.7790 C.2   110  MET110      0.2592
     92  O         25.7760    0.3570    6.2180 O.2   110  MET110     -0.2718
     93  CB        24.6110   -1.5800    8.7330 C.3   110  MET110      0.0401
     94  CG        24.1340   -2.9170    9.2580 C.3   110  MET110      0.0596
     95  SD        24.7040   -3.1070   10.9510 S.3   110  MET110     -0.1393
     96  CE        26.4920   -3.2540   10.6980 C.3   110  MET110      0.0692
     97  N         23.7000    0.7610    7.0600 N.am  111  ASP111     -0.1960
     98  CA        23.6240    2.1890    6.7760 C.3   111  ASP111      0.1840
     99  C         24.6970    2.9700    7.5210 C.2   111  ASP111      0.2622
    100  O         24.9870    2.6740    8.6890 O.2   111  ASP111     -0.2715
    101  CB        22.2480    2.7470    7.2130 C.3   111  ASP111      0.1450
    102  CG        21.0420    2.3980    6.3680 C.2   111  ASP111      0.3671
    103  OD1       21.2070    2.2220    5.1370 O.co2 111  ASP111     -0.2456
    104  OD2       19.9140    2.4070    6.9180 O.co2 111  ASP111     -0.2456
    105  N         25.2450    3.9930    6.8580 N.am  112  ARG112     -0.1963
    106  CA        26.2060    4.9120    7.4480 C.3   112  ARG112      0.1729
    107  C         25.4210    6.0500    8.1060 C.2   112  ARG112      0.2616
    108  O         24.4610    6.5590    7.5270 O.2   112  ARG112     -0.2715
    109  CB        27.1800    5.4450    6.3840 C.3   112  ARG112      0.0348
    110  CG        28.3580    6.2360    6.9360 C.3   112  ARG112      0.0492
    111  CD        28.1050    7.7210    6.9170 C.3   112  ARG112      0.2205
    112  NE        29.2430    8.5330    7.3390 N.pl3 112  ARG112     -0.0865
    113  CZ        30.0970    9.0820    6.4940 C.cat 112  ARG112      0.5346
    114  NH1       30.0390    8.7940    5.2020 N.pl3 112  ARG112      0.1354
    115  NH2       31.0280    9.9130    6.9330 N.pl3 112  ARG112      0.1354
    116  N         25.8370    6.4520    9.3010 N.am  113  PHE113     -0.1960
    117  CA        25.1900    7.5410   10.0170 C.3   113  PHE113      0.1771
    118  C         26.1680    8.6600   10.3450 C.2   113  PHE113      0.2620
    119  O         27.3830    8.5020   10.1880 O.2   113  PHE113     -0.2715
    120  CB        24.5280    7.0230   11.3110 C.3   113  PHE113      0.0574
    121  CG        23.4420    6.0060   11.0720 C.ar  113  PHE113     -0.0200
    122  CD1       22.3360    6.3190   10.2880 C.ar  113  PHE113     -0.0042
    123  CD2       23.5330    4.7320   11.6120 C.ar  113  PHE113     -0.0042
    124  CE1       21.3580    5.3710   10.0290 C.ar  113  PHE113     -0.0003
    125  CE2       22.5430    3.7890   11.3690 C.ar  113  PHE113     -0.0003
    126  CZ        21.4640    4.1160   10.5770 C.ar  113  PHE113     -0.0000
    127  N         25.6040    9.7810   10.7990 N.am  114  GLY114     -0.1954
    128  CA        26.3370   10.9530   11.2510 C.3   114  GLY114      0.1869
    129  C         26.7090   10.8190   12.7140 C.2   114  GLY114      0.2309
    130  O         27.0280    9.7230   13.1890 O.2   114  GLY114     -0.2863
    131  N         26.4810   10.7330   16.8890 N.3   116  ASP116     -0.1239
    132  CA        25.6450   10.1280   17.9140 C.3   116  ASP116      0.1674
    133  C         25.1260   11.2820   18.7740 C.2   116  ASP116      0.2266
    134  O         25.7210   12.3630   18.7600 O.2   116  ASP116     -0.2867
    135  CB        26.3970    9.0510   18.7310 C.3   116  ASP116      0.1410
    136  CG        27.5650    9.5440   19.5730 C.2   116  ASP116      0.3668
    137  OD1       27.3310   10.3010   20.5190 O.co2 116  ASP116     -0.2456
    138  OD2       28.6990    9.0810   19.3490 O.co2 116  ASP116     -0.2456
    139  N         24.2560    7.6290   23.1930 N.3   160  SER160     -0.1217
    140  CA        25.3940    7.0890   22.4340 C.3   160  SER160      0.1889
    141  C         24.9600    6.0070   21.4160 C.2   160  SER160      0.2288
    142  O         25.7270    5.7010   20.5030 O.2   160  SER160     -0.2866
    143  CB        26.4740    6.5470   23.3650 C.3   160  SER160      0.2089
    144  OG        26.0770    5.3500   24.0120 O.3   160  SER160     -0.2183
    145  N         22.0350    7.6410   16.5990 N.3   163  LEU163     -0.1245
    146  CA        22.8340    8.2990   15.5680 C.3   163  LEU163      0.1561
    147  C         21.9430    9.0070   14.5590 C.2   163  LEU163      0.2260
    148  O         20.8750    8.5020   14.2200 O.2   163  LEU163     -0.2867
    149  CB        23.7340    7.2620   14.8730 C.3   163  LEU163      0.0270
    150  CG        25.0890    6.9480   15.5300 C.3   163  LEU163      0.0019
    151  CD1       24.9390    6.1750   16.8440 C.3   163  LEU163      0.0001
    152  CD2       25.9660    6.1370   14.6010 C.3   163  LEU163      0.0001
    153  N         20.8470    2.2110   17.2310 N.3   175  VAL175     -0.1231
    154  CA        21.8520    1.2150   16.8390 C.3   175  VAL175      0.1692
    155  C         22.1710    0.2930   18.0240 C.2   175  VAL175      0.2592
    156  O         21.6590    0.5050   19.1290 O.2   175  VAL175     -0.2718
    157  CB        23.1440    1.8650   16.2390 C.3   175  VAL175      0.0266
    158  CG1       22.8250    2.7320   15.0210 C.3   175  VAL175      0.0020
    159  CG2       23.9400    2.6540   17.2800 C.3   175  VAL175      0.0020
    160  N         23.0340   -0.7260   17.7760 N.am  176  ASP176     -0.1974
    161  CA        23.5490   -1.7390   18.7050 C.3   176  ASP176      0.1709
    162  C         22.4690   -2.7570   19.1150 C.2   176  ASP176      0.2293
    163  O         21.7060   -2.5380   20.0660 O.2   176  ASP176     -0.2864
    164  CB        24.2200   -1.1140   19.9420 C.3   176  ASP176      0.1436
    165  CG        25.1390   -2.0350   20.7240 C.2   176  ASP176      0.3671
    166  OD1       25.0900   -3.2680   20.4990 O.co2 176  ASP176     -0.2456
    167  OD2       25.8980   -1.5270   21.5760 O.co2 176  ASP176     -0.2456
@<TRIPOS>BOND
     1   103   102   ar
     2   114   113    1
     3    45    46    1
     4    92    91    2
     5   102   104   ar
     6   102   101    1
     7   109   110    1
     8   109   106    1
     9   113   115    1
    10   113   112    2
    11    48    47    2
    12    89    90    1
    13    98    97    1
    14    98   101    1
    15    98    99    1
    16    91    97   am
    17    91    90    1
    18    47    46    1
    19    46    49    1
    20   105   106    1
    21   105    99   am
    22   111   110    1
    23   111   112    1
    24    90    93    1
    25   106   107    1
    26    99   100    2
    27   108   107    2
    28   107   116   am
    29    49    50    1
    30    49    51    1
    31    93    94    1
    32    73    72    2
    33    94    95    1
    34   116   117    1
    35    52    53    1
    36    84    85    2
    37    84    83    1
    38     7     5    1
    39     8     6    1
    40   117   118    1
    41   117   120    1
    42   124   122   ar
    43   124   126   ar
    44    55    54    2
    45    72    71    1
    46     6     5    1
    47   119   118    2
    48   122   121   ar
    49   118   127   am
    50    83    86    1
    51    83    82    1
    52    39    40    2
    53    39    38    1
    54   126   125   ar
    55    54    53    1
    56     5     2    1
    57     1     2    1
    58    96    95    1
    59    53    56    1
    60   127   128    1
    61    74    71    1
    62    74    75    1
    63   121   120    1
    64   121   123   ar
    65    86    87    1
    66    77    75   ar
    67    77    79   ar
    68    71    70    1
    69    43    41    1
    70   128   129    1
    71   125   123   ar
    72     2     3    1
    73    82    88    1
    74    75    76   ar
    75    38    41    1
    76    38    37    1
    77    56    57    1
    78    79    80   ar
    79    41    42    1
    80    76    78   ar
    81    87    88    1
    82   129   130    2
    83    80    78   ar
    84    80    81    1
    85     3     9   am
    86     3     4    2
    87    57    58    1
    88     9    10    1
    89    42    44    1
    90    64    63    2
    91    58    59    1
    92   148   147    2
    93    10    11    1
    94    63    62    1
    95   147   146    1
    96   152   150    1
    97   149   150    1
    98   149   146    1
    99   158   157    1
   100    66    67    1
   101    66    65    1
   102    59    60    1
   103    12    11    2
   104   150   151    1
   105    11    13   am
   106   146   145    1
   107    68    67   ar
   108    67    69   ar
   109    62    65    1
   110    62    61    1
   111    36    35    2
   112    35    34    1
   113   157   154    1
   114   157   159    1
   115    13    14    1
   116   154   153    1
   117   154   155    1
   118   131   132    1
   119    21    19   am
   120    18    19    1
   121    18    17    1
   122    19    20    2
   123    34    33    1
   124    14    17    1
   125    14    15    1
   126   160   155   am
   127   160   161    1
   128   132   135    1
   129   132   133    1
   130   155   156    2
   131    33    24   am
   132   161   162    1
   133   161   164    1
   134   135   136    1
   135    15    16    2
   136   134   133    2
   137   162   163    2
   138    24    25    2
   139    24    23    1
   140   138   136   ar
   141   136   137   ar
   142    26    23    1
   143    26    27    1
   144   164   165    1
   145    29    27   ar
   146    29    31   ar
   147    23    22    1
   148   166   165   ar
   149   142   141    2
   150    27    28   ar
   151   165   167   ar
   152    31    32   ar
   153   141   140    1
   154    28    30   ar
   155    32    30   ar
   156   140   139    1
   157   140   143    1
   158   143   144    1
