@<TRIPOS>MOLECULE
tmp/3opdC00.pdb
 194 181 0 0 0
SMALL
GASTEIGER

@<TRIPOS>ATOM
      1  N        -22.8200   38.7790    9.8040 N.3    11  ILE11      -0.1245
      2  CA       -23.6480   38.5070   10.9830 C.3    11  ILE11       0.1561
      3  C        -23.7520   36.9840   11.2870 C.2    11  ILE11       0.2260
      4  O        -23.6850   36.6150   12.4580 O.2    11  ILE11      -0.2867
      5  CB       -25.0020   39.2500   10.9690 C.3    11  ILE11       0.0252
      6  CG1      -24.7760   40.7680   10.9180 C.3    11  ILE11       0.0019
      7  CG2      -25.8210   38.8910   12.2100 C.3    11  ILE11       0.0019
      8  CD1      -26.0630   41.6290   10.5840 C.3    11  ILE11       0.0001
      9  N        -27.5190   45.3900   25.8050 N.3    33  LEU33      -0.1245
     10  CA       -28.9420   45.6520   25.5550 C.3    33  LEU33       0.1561
     11  C        -29.3410   47.0530   26.1200 C.2    33  LEU33       0.2260
     12  O        -29.9750   47.8570   25.4150 O.2    33  LEU33      -0.2867
     13  CB       -29.7570   44.5720   26.2890 C.3    33  LEU33       0.0270
     14  CG       -30.2330   43.3950   25.4520 C.3    33  LEU33       0.0019
     15  CD1      -30.3700   42.1540   26.3040 C.3    33  LEU33       0.0001
     16  CD2      -31.5700   43.7080   24.7970 C.3    33  LEU33       0.0001
     17  N        -27.8950   49.9900   24.1120 N.3    36  ASN36      -0.1225
     18  CA       -28.7180   50.2200   22.9130 C.3    36  ASN36       0.1785
     19  C        -29.9690   51.0270   23.2590 C.2    36  ASN36       0.2597
     20  O        -30.2970   51.9670   22.5350 O.2    36  ASN36      -0.2718
     21  CB       -29.0890   48.8880   22.2380 C.3    36  ASN36       0.1169
     22  CG       -27.9980   48.2470   21.3890 C.2    36  ASN36       0.2627
     23  OD1      -26.8720   48.7580   21.2230 O.2    36  ASN36      -0.2716
     24  ND2      -28.3190   47.1030   20.8080 N.am   36  ASN36      -0.0877
     25  N        -30.6320   50.6830   24.3950 N.am   37  SER37      -0.1952
     26  CA       -31.8330   51.3460   24.9210 C.3    37  SER37       0.1924
     27  C        -31.5500   52.8220   25.2150 C.2    37  SER37       0.2314
     28  O        -32.3410   53.6930   24.8320 O.2    37  SER37      -0.2863
     29  CB       -32.3050   50.6690   26.2070 C.3    37  SER37       0.2116
     30  OG       -32.8800   49.3930   25.9850 O.3    37  SER37      -0.2180
     31  N        -28.9920   54.6720   24.0050 N.3    39  ASP39      -0.1225
     32  CA       -28.6860   55.3410   22.7430 C.3    39  ASP39       0.1805
     33  C        -29.9770   55.7020   21.9900 C.2    39  ASP39       0.2597
     34  O        -30.0870   56.8140   21.4640 O.2    39  ASP39      -0.2718
     35  CB       -27.7430   54.4810   21.8720 C.3    39  ASP39       0.1424
     36  CG       -26.3320   54.2520   22.3990 C.2    39  ASP39       0.3668
     37  OD1      -26.0140   54.7430   23.5170 O.co2  39  ASP39      -0.2456
     38  OD2      -25.5460   53.5740   21.7020 O.co2  39  ASP39      -0.2456
     39  N        -30.9690   54.7850   21.9920 N.am   40  ALA40      -0.1979
     40  CA       -32.2820   54.9980   21.3570 C.3    40  ALA40       0.1597
     41  C        -33.0500   56.1550   22.0160 C.2    40  ALA40       0.2287
     42  O        -33.6970   56.9320   21.3150 O.2    40  ALA40      -0.2864
     43  CB       -33.1070   53.7210   21.4040 C.3    40  ALA40       0.0319
     44  N        -31.3590   59.5270   20.8880 N.3    43  LYS43      -0.1245
     45  CA       -31.7680   59.9330   19.5400 C.3    43  LYS43       0.1561
     46  C        -33.1380   60.6120   19.5650 C.2    43  LYS43       0.2260
     47  O        -33.2770   61.7140   19.0270 O.2    43  LYS43      -0.2867
     48  CB       -31.7090   58.7530   18.5560 C.3    43  LYS43       0.0271
     49  CG       -30.3000   58.1180   18.5450 C.3    43  LYS43       0.0035
     50  CD       -30.2020   57.1130   17.4020 C.3    43  LYS43       0.0206
     51  CE       -28.7260   56.6880   17.2190 C.3    43  LYS43       0.1093
     52  NZ       -28.3290   55.9890   18.4880 N.3    43  LYS43      -0.1314
     53  N        -35.9970   43.5090   27.7700 N.3    72  VAL72      -0.1245
     54  CA       -35.3450   44.7960   27.9280 C.3    72  VAL72       0.1561
     55  C        -36.1310   45.7190   26.9970 C.2    72  VAL72       0.2260
     56  O        -36.0860   45.5550   25.7710 O.2    72  VAL72      -0.2867
     57  CB       -33.8090   44.8140   27.6860 C.3    72  VAL72       0.0252
     58  CG1      -33.2780   46.2410   27.6650 C.3    72  VAL72       0.0019
     59  CG2      -33.0720   43.9900   28.7440 C.3    72  VAL72       0.0019
     60  N        -37.5910   49.8650   26.0300 N.3    74  ASP74      -0.1239
     61  CA       -37.3180   51.2930   26.1090 C.3    74  ASP74       0.1674
     62  C        -38.3270   52.1250   25.3380 C.2    74  ASP74       0.2266
     63  O        -38.9650   51.6370   24.3980 O.2    74  ASP74      -0.2867
     64  CB       -35.8830   51.6100   25.6260 C.3    74  ASP74       0.1410
     65  CG       -35.6100   51.2500   24.1840 C.2    74  ASP74       0.3668
     66  OD1      -35.9950   52.0330   23.2940 O.co2  74  ASP74      -0.2456
     67  OD2      -35.0030   50.1940   23.9450 O.co2  74  ASP74      -0.2456
     68  N        -36.1350   55.9820   20.3090 N.3    77  ILE77      -0.1231
     69  CA       -36.4790   56.3100   18.9200 C.3    77  ILE77       0.1692
     70  C        -37.2370   55.2010   18.1620 C.2    77  ILE77       0.2593
     71  O        -38.1910   55.5050   17.4240 O.2    77  ILE77      -0.2718
     72  CB       -35.2380   56.8300   18.1350 C.3    77  ILE77       0.0266
     73  CG1      -35.6330   57.4360   16.7710 C.3    77  ILE77       0.0019
     74  CG2      -34.1240   55.7690   17.9890 C.3    77  ILE77       0.0020
     75  CD1      -35.0370   58.7550   16.5040 C.3    77  ILE77       0.0001
     76  N        -36.7690   53.9560   18.3140 N.am   78  GLY78      -0.1942
     77  CA       -37.3480   52.8010   17.6440 C.3    78  GLY78       0.2014
     78  C        -36.8030   52.6040   16.2480 C.2    78  GLY78       0.2638
     79  O        -36.0620   53.4490   15.7320 O.2    78  GLY78      -0.2714
     80  N        -37.1780   51.4750   15.6350 N.am   79  MET79      -0.1976
     81  CA       -36.7050   51.0820   14.3170 C.3    79  MET79       0.1605
     82  C        -37.8220   50.9150   13.2900 C.2    79  MET79       0.2287
     83  O        -38.9230   50.4660   13.6340 O.2    79  MET79      -0.2864
     84  CB       -35.8510   49.8130   14.4350 C.3    79  MET79       0.0413
     85  CG       -34.4850   50.0910   15.0330 C.3    79  MET79       0.0598
     86  SD       -33.5200   48.6410   15.5350 S.3    79  MET79      -0.1393
     87  CE       -34.3550   48.1610   16.9980 C.3    79  MET79       0.0692
     88  N        -34.9730   49.2580    8.9240 N.3    83  ASP83      -0.1225
     89  CA       -33.9160   49.0110    9.9110 C.3    83  ASP83       0.1805
     90  C        -33.8690   47.5250   10.2960 C.2    83  ASP83       0.2597
     91  O        -32.7920   46.9370   10.2640 O.2    83  ASP83      -0.2718
     92  CB       -34.0770   49.9000   11.1640 C.3    83  ASP83       0.1424
     93  CG       -34.0380   51.4050   10.9620 C.2    83  ASP83       0.3668
     94  OD1      -33.4380   51.8580    9.9620 O.co2  83  ASP83      -0.2456
     95  OD2      -34.5780   52.1360   11.8280 O.co2  83  ASP83      -0.2456
     96  N        -35.0400   46.9250   10.6050 N.am   84  LEU84      -0.1979
     97  CA       -35.2170   45.5210   10.9990 C.3    84  LEU84       0.1596
     98  C        -34.8910   44.5110    9.8810 C.2    84  LEU84       0.2287
     99  O        -34.1200   43.5700   10.1280 O.2    84  LEU84      -0.2864
    100  CB       -36.6450   45.2760   11.5480 C.3    84  LEU84       0.0297
    101  CG       -37.0390   45.9640   12.8540 C.3    84  LEU84       0.0022
    102  CD1      -38.4820   45.7230   13.1470 C.3    84  LEU84       0.0001
    103  CD2      -36.2530   45.4350   14.0480 C.3    84  LEU84       0.0001
    104  N        -31.1690   44.7540    8.9860 N.3    87  ASN87      -0.1225
    105  CA       -30.3230   44.5890   10.1790 C.3    87  ASN87       0.1785
    106  C        -29.3900   45.7820   10.3230 C.2    87  ASN87       0.2597
    107  O        -28.1880   45.6230   10.4950 O.2    87  ASN87      -0.2718
    108  CB       -29.5500   43.2750   10.1810 C.3    87  ASN87       0.1169
    109  CG       -30.3630   42.0560   10.4870 C.2    87  ASN87       0.2627
    110  OD1      -31.2690   42.0530   11.3250 O.2    87  ASN87      -0.2716
    111  ND2      -30.0260   40.9700    9.8240 N.am   87  ASN87      -0.0877
    112  N        -29.9720   46.9910   10.2210 N.am   88  LEU88      -0.1980
    113  CA       -29.2930   48.2890   10.3030 C.3    88  LEU88       0.1596
    114  C        -28.2720   48.5370    9.1830 C.2    88  LEU88       0.2287
    115  O        -27.5080   49.5090    9.2140 O.2    88  LEU88      -0.2864
    116  CB       -28.7650   48.6010   11.7150 C.3    88  LEU88       0.0297
    117  CG       -29.8230   48.7550   12.8130 C.3    88  LEU88       0.0022
    118  CD1      -29.1670   48.9800   14.1410 C.3    88  LEU88       0.0001
    119  CD2      -30.7470   49.9000   12.5280 C.3    88  LEU88       0.0001
    120  N        -23.7900   48.4450   10.5160 N.3    92  ALA92      -0.1245
    121  CA       -23.7170   47.2140   11.3010 C.3    92  ALA92       0.1562
    122  C        -22.8110   46.1280   10.6690 C.2    92  ALA92       0.2260
    123  O        -22.0060   45.5290   11.3910 O.2    92  ALA92      -0.2867
    124  CB       -25.1190   46.6730   11.5440 C.3    92  ALA92       0.0290
    125  N        -20.5600   48.6090   17.7780 N.3   116  GLY116     -0.1210
    126  CA       -21.9800   48.9040   17.6310 C.3   116  GLY116      0.1956
    127  C        -22.8580   47.6970   17.3870 C.2   116  GLY116      0.2611
    128  O        -24.0390   47.8560   17.0740 O.2   116  GLY116     -0.2717
    129  N        -22.3050   46.4860   17.5580 N.am  117  VAL117     -0.1979
    130  CA       -23.0060   45.2210   17.3240 C.3   117  VAL117      0.1595
    131  C        -23.3830   44.4500   18.5910 C.2   117  VAL117      0.2287
    132  O        -23.7470   43.2660   18.5110 O.2   117  VAL117     -0.2864
    133  CB       -22.3080   44.3530   16.2530 C.3   117  VAL117      0.0276
    134  CG1      -22.4560   44.9830   14.8670 C.3   117  VAL117      0.0022
    135  CG2      -20.8390   44.1200   16.5990 C.3   117  VAL117      0.0022
    136  N        -26.0080   44.2210   20.3650 N.3   119  PHE119     -0.1227
    137  CA       -27.2990   43.5350   20.3150 C.3   119  PHE119      0.1736
    138  C        -27.1010   42.0310   20.1960 C.2   119  PHE119      0.2595
    139  O        -27.8540   41.2960   20.8260 O.2   119  PHE119     -0.2718
    140  CB       -28.1610   44.0480   19.1250 C.3   119  PHE119      0.0547
    141  CG       -29.2910   43.1200   18.7390 C.ar  119  PHE119     -0.0202
    142  CD1      -30.4530   43.0590   19.4990 C.ar  119  PHE119     -0.0042
    143  CD2      -29.1570   42.2470   17.6660 C.ar  119  PHE119     -0.0042
    144  CE1      -31.4670   42.1490   19.1770 C.ar  119  PHE119     -0.0003
    145  CE2      -30.1700   41.3370   17.3520 C.ar  119  PHE119     -0.0003
    146  CZ       -31.3140   41.2940   18.1100 C.ar  119  PHE119     -0.0000
    147  N        -26.1070   41.5740   19.3890 N.am  120  TYR120     -0.1976
    148  CA       -25.8500   40.1500   19.1730 C.3   120  TYR120      0.1639
    149  C        -25.3960   39.3550   20.3960 C.2   120  TYR120      0.2290
    150  O        -25.5880   38.1360   20.4350 O.2   120  TYR120     -0.2864
    151  CB       -25.0660   39.8690   17.8840 C.3   120  TYR120      0.0560
    152  CG       -25.9150   40.1350   16.6570 C.ar  120  TYR120     -0.0198
    153  CD1      -25.8010   41.3310   15.9500 C.ar  120  TYR120     -0.0009
    154  CD2      -26.9250   39.2520   16.2790 C.ar  120  TYR120     -0.0009
    155  CE1      -26.6230   41.6120   14.8610 C.ar  120  TYR120      0.0417
    156  CE2      -27.7850   39.5440   15.2180 C.ar  120  TYR120      0.0417
    157  CZ       -27.6260   40.7240   14.5090 C.ar  120  TYR120      0.1957
    158  OH       -28.4440   40.9930   13.4350 O.3   120  TYR120     -0.2866
    159  N        -37.6870   41.0860   18.5860 N.3   131  VAL131     -0.1245
    160  CA       -37.5320   42.5360   18.6150 C.3   131  VAL131      0.1561
    161  C        -38.7850   43.2210   18.0650 C.2   131  VAL131      0.2260
    162  O        -39.0210   43.2040   16.8570 O.2   131  VAL131     -0.2867
    163  CB       -36.2200   43.0030   17.9160 C.3   131  VAL131      0.0252
    164  CG1      -36.0480   44.5170   17.9870 C.3   131  VAL131      0.0019
    165  CG2      -35.0050   42.3070   18.5150 C.3   131  VAL131      0.0019
    166  N        -39.2290   41.6040   14.5530 N.3   143  TRP143     -0.1241
    167  CA       -38.0600   40.8800   14.0750 C.3   143  TRP143      0.1605
    168  C        -37.9180   39.6840   15.0060 C.2   143  TRP143      0.2264
    169  O        -38.1080   39.7960   16.2160 O.2   143  TRP143     -0.2867
    170  CB       -36.8340   41.7930   14.1760 C.3   143  TRP143      0.0550
    171  CG       -35.5170   41.2020   13.7580 C.ar  143  TRP143      0.0003
    172  CD1      -34.8570   41.4320   12.5890 C.ar  143  TRP143      0.0946
    173  CD2      -34.6310   40.4090   14.5690 C.ar  143  TRP143      0.0152
    174  NE1      -33.6540   40.7730   12.5860 N.ar  143  TRP143     -0.2442
    175  CE2      -33.4810   40.1450   13.7950 C.ar  143  TRP143      0.0810
    176  CE3      -34.6960   39.8950   15.8790 C.ar  143  TRP143      0.0012
    177  CZ2      -32.3870   39.4190   14.3000 C.ar  143  TRP143      0.0191
    178  CZ3      -33.6370   39.1410   16.3530 C.ar  143  TRP143      0.0001
    179  CH2      -32.4890   38.9330   15.5800 C.ar  143  TRP143      0.0015
    180  N        -38.6110   50.3350   21.5350 N.3   165  THR165     -0.1218
    181  CA       -38.2050   48.9570   21.2650 C.3   165  THR165      0.1862
    182  C        -38.3720   48.0310   22.4940 C.2   165  THR165      0.2287
    183  O        -38.0320   48.4000   23.6310 O.2   165  THR165     -0.2866
    184  CB       -36.7830   48.9530   20.6770 C.3   165  THR165      0.1770
    185  OG1      -36.6520   50.0160   19.7120 O.3   165  THR165     -0.2211
    186  CG2      -36.4140   47.6170   20.0400 C.3   165  THR165      0.0375
    187  N        -37.2810   44.1220   23.4730 N.3   167  ILE167     -0.1245
    188  CA       -36.4640   42.9540   23.1560 C.3   167  ILE167      0.1561
    189  C        -36.7150   41.8820   24.1940 C.2   167  ILE167      0.2260
    190  O        -36.4260   42.0550   25.3880 O.2   167  ILE167     -0.2867
    191  CB       -34.9750   43.2700   22.9990 C.3   167  ILE167      0.0252
    192  CG1      -34.7360   44.2590   21.8270 C.3   167  ILE167      0.0019
    193  CG2      -34.1910   41.9680   22.7830 C.3   167  ILE167      0.0019
    194  CD1      -33.5320   45.2140   22.0310 C.3   167  ILE167      0.0001
@<TRIPOS>BOND
     1    88    89    1
     2   104   105    1
     3   114   115    2
     4   114   113    1
     5     1     2    1
     6   111   109   am
     7    98    99    2
     8    98    97    1
     9    89    90    1
    10    89    92    1
    11    94    93   ar
    12   105   108    1
    13   105   106    1
    14   108   109    1
    15   112   113    1
    16   112   106   am
    17    91    90    2
    18    90    96   am
    19   113   116    1
    20   106   107    2
    21   109   110    2
    22   120   121    1
    23     8     6    1
    24    96    97    1
    25   122   121    1
    26   122   123    2
    27     6     5    1
    28    93    92    1
    29    93    95   ar
    30     5     2    1
    31     5     7    1
    32     2     3    1
    33    97   100    1
    34     3     4    2
    35   121   124    1
    36   100   101    1
    37   116   117    1
    38   119   117    1
    39   174   172   ar
    40   174   175   ar
    41   172   171   ar
    42   117   118    1
    43   101   102    1
    44   101   103    1
    45    82    83    2
    46    82    81    1
    47   158   157    1
    48   171   170    1
    49   171   173   ar
    50   175   177   ar
    51   175   173   ar
    52   167   170    1
    53   167   166    1
    54   167   168    1
    55   177   179   ar
    56    81    84    1
    57    81    80    1
    58    84    85    1
    59   157   155   ar
    60   157   156   ar
    61   173   176   ar
    62   155   153   ar
    63   134   133    1
    64   168   169    2
    65    85    86    1
    66   156   154   ar
    67    86    87    1
    68   179   178   ar
    69    80    78   am
    70    79    78    2
    71   176   178   ar
    72   153   152   ar
    73    78    77    1
    74   133   135    1
    75   133   130    1
    76   154   152   ar
    77    75    73    1
    78   152   151    1
    79    73    72    1
    80   162   161    2
    81   128   127    2
    82    51    50    1
    83    51    52    1
    84   130   129    1
    85   130   131    1
    86   145   143   ar
    87   145   146   ar
    88   127   129   am
    89   127   126    1
    90    50    49    1
    91    71    70    2
    92   126   125    1
    93    77    76    1
    94   143   141   ar
    95   151   148    1
    96   163   164    1
    97   163   165    1
    98   163   160    1
    99    74    72    1
   100   161   160    1
   101   146   144   ar
   102    72    69    1
   103    70    76   am
   104    70    69    1
   105   132   131    2
   106    49    48    1
   107    48    45    1
   108   159   160    1
   109   141   140    1
   110   141   142   ar
   111    69    68    1
   112    47    46    2
   113   140   137    1
   114   148   147    1
   115   148   149    1
   116   144   142   ar
   117   147   138   am
   118    45    46    1
   119    45    44    1
   120   185   184    1
   121   186   184    1
   122   138   137    1
   123   138   139    2
   124   137   136    1
   125   149   150    2
   126   184   181    1
   127    24    22   am
   128    23    22    2
   129   181   180    1
   130   181   182    1
   131    42    41    2
   132    40    43    1
   133    40    39    1
   134    40    41    1
   135    22    21    1
   136    34    33    2
   137    38    36   ar
   138   192   194    1
   139   192   191    1
   140    35    36    1
   141    35    32    1
   142    33    39   am
   143    33    32    1
   144    21    18    1
   145    36    37   ar
   146   182   183    2
   147    20    19    2
   148    32    31    1
   149   193   191    1
   150    18    19    1
   151    18    17    1
   152   191   188    1
   153   188   187    1
   154   188   189    1
   155    19    25   am
   156    66    65   ar
   157    67    65   ar
   158    65    64    1
   159   189   190    2
   160    25    26    1
   161    63    62    2
   162    16    14    1
   163    28    27    2
   164    26    27    1
   165    26    29    1
   166    62    61    1
   167    12    11    2
   168    14    13    1
   169    14    15    1
   170    10     9    1
   171    10    11    1
   172    10    13    1
   173    64    61    1
   174    56    55    2
   175    30    29    1
   176    60    61    1
   177    55    54    1
   178    58    57    1
   179    57    54    1
   180    57    59    1
   181    53    54    1
