@<TRIPOS>MOLECULE
tmp/3oplA00.pdb
 125 111 0 0 0
SMALL
GASTEIGER

@<TRIPOS>ATOM
      1  N         61.2510   58.4480    8.3890 N.3     1  SER1       -0.1217
      2  CA        60.2430   59.0570    9.3060 C.3     1  SER1        0.1889
      3  C         60.7360   59.0460   10.7480 C.2     1  SER1        0.2288
      4  O         61.6130   58.2420   11.0980 O.2     1  SER1       -0.2866
      5  CB        58.9190   58.2960    9.2260 C.3     1  SER1        0.2089
      6  OG        58.4880   58.1480    7.8860 O.3     1  SER1       -0.2183
      7  N         56.2840   61.6250   15.3510 N.3     7  GLN7       -0.1245
      8  CA        55.5470   62.0840   14.1640 C.3     7  GLN7        0.1566
      9  C         54.1860   62.6900   14.5160 C.2     7  GLN7        0.2260
     10  O         53.8290   63.7570   14.0120 O.2     7  GLN7       -0.2867
     11  CB        55.3500   60.9510   13.1530 C.3     7  GLN7        0.0367
     12  CG        54.4730   61.3370   11.9760 C.3     7  GLN7        0.0905
     13  CD        55.0190   62.4920   11.1690 C.2     7  GLN7        0.2608
     14  OE1       54.3430   63.5140   10.9690 O.2     7  GLN7       -0.2717
     15  NE2       56.2520   62.3470   10.7000 N.am    7  GLN7       -0.0878
     16  N         45.6860   54.9590   -1.2230 N.3   196  ILE196     -0.1245
     17  CA        46.5450   54.4310   -0.1610 C.3   196  ILE196      0.1561
     18  C         47.3320   53.2330   -0.6790 C.2   196  ILE196      0.2260
     19  O         48.5450   53.1480   -0.4900 O.2   196  ILE196     -0.2867
     20  CB        45.7530   54.0240    1.0930 C.3   196  ILE196      0.0252
     21  CG1       45.1940   55.2740    1.7870 C.3   196  ILE196      0.0019
     22  CG2       46.6800   53.2440    2.0650 C.3   196  ILE196      0.0019
     23  CD1       44.0730   55.0170    2.8090 C.3   196  ILE196      0.0001
     24  N         50.5090   53.8260   -2.6880 N.3   199  VAL199     -0.1231
     25  CA        51.7090   54.3660   -2.0470 C.3   199  VAL199      0.1692
     26  C         52.2240   53.4870   -0.8960 C.2   199  VAL199      0.2591
     27  O         53.2660   53.7980   -0.3050 O.2   199  VAL199     -0.2718
     28  CB        51.5400   55.8350   -1.5650 C.3   199  VAL199      0.0266
     29  CG1       51.2110   56.7720   -2.7320 C.3   199  VAL199      0.0020
     30  CG2       50.5050   55.9540   -0.4470 C.3   199  VAL199      0.0020
     31  N         51.4920   52.4160   -0.5670 N.am  200  LEU200     -0.1980
     32  CA        51.9550   51.4630    0.4500 C.3   200  LEU200      0.1596
     33  C         53.0350   50.5690   -0.1430 C.2   200  LEU200      0.2287
     34  O         52.9630   50.2220   -1.3220 O.2   200  LEU200     -0.2864
     35  CB        50.8150   50.5630    0.9570 C.3   200  LEU200      0.0297
     36  CG        49.8770   51.0500    2.0690 C.3   200  LEU200      0.0022
     37  CD1       48.7960   49.9940    2.3090 C.3   200  LEU200      0.0001
     38  CD2       50.6210   51.3710    3.3470 C.3   200  LEU200      0.0001
     39  N         45.5590   46.6090    3.1370 N.3   206  ILE206     -0.1245
     40  CA        44.7800   47.7630    3.6180 C.3   206  ILE206      0.1561
     41  C         43.2770   47.5980    3.4240 C.2   206  ILE206      0.2260
     42  O         42.8220   47.0930    2.3950 O.2   206  ILE206     -0.2867
     43  CB        45.2430   49.1160    3.0090 C.3   206  ILE206      0.0252
     44  CG1       44.4130   50.2720    3.6050 C.3   206  ILE206      0.0019
     45  CG2       45.1360   49.0940    1.4820 C.3   206  ILE206      0.0019
     46  CD1       44.7520   50.6340    5.0470 C.3   206  ILE206      0.0001
     47  N         40.4580   58.4840    9.6770 N.3   220  ILE220     -0.1245
     48  CA        40.4750   57.2040    9.0140 C.3   220  ILE220      0.1561
     49  C         40.3950   56.1130   10.0830 C.2   220  ILE220      0.2260
     50  O         40.9770   56.2380   11.1530 O.2   220  ILE220     -0.2867
     51  CB        41.7480   57.0330    8.1380 C.3   220  ILE220      0.0252
     52  CG1       41.6150   55.8100    7.2230 C.3   220  ILE220      0.0019
     53  CG2       43.0420   56.9960    8.9970 C.3   220  ILE220      0.0019
     54  CD1       42.6340   55.7640    6.1270 C.3   220  ILE220      0.0001
     55  N         41.2170   51.9890    9.8730 N.3   222  ALA222     -0.1245
     56  CA        41.8730   51.1350    8.8900 C.3   222  ALA222      0.1562
     57  C         42.3260   49.8360    9.4970 C.2   222  ALA222      0.2260
     58  O         42.5470   49.7590   10.7030 O.2   222  ALA222     -0.2867
     59  CB        43.0500   51.8480    8.2240 C.3   222  ALA222      0.0290
     60  N         45.4100   47.1280    8.7000 N.3   224  LEU224     -0.1245
     61  CA        46.6990   47.3000    8.0350 C.3   224  LEU224      0.1561
     62  C         47.5770   46.1620    8.4900 C.2   224  LEU224      0.2260
     63  O         47.4940   45.7460    9.6420 O.2   224  LEU224     -0.2867
     64  CB        47.3610   48.6120    8.5080 C.3   224  LEU224      0.0270
     65  CG        48.7290   49.0410    7.9540 C.3   224  LEU224      0.0019
     66  CD1       48.6770   49.2680    6.4460 C.3   224  LEU224      0.0001
     67  CD2       49.2550   50.2810    8.6660 C.3   224  LEU224      0.0001
     68  N         44.1040   50.5760   12.8970 N.3   234  VAL234     -0.1245
     69  CA        44.6420   51.9290   13.0830 C.3   234  VAL234      0.1561
     70  C         43.5160   52.9490   12.9720 C.2   234  VAL234      0.2260
     71  O         42.7990   52.9780   11.9630 O.2   234  VAL234     -0.2867
     72  CB        45.7220   52.2600   12.0750 C.3   234  VAL234      0.0252
     73  CG1       46.2370   53.6960   12.2850 C.3   234  VAL234      0.0019
     74  CG2       46.9030   51.2500   12.1990 C.3   234  VAL234      0.0019
     75  N         42.9150   57.0970   13.2910 N.3   236  ILE236     -0.1245
     76  CA        43.5300   58.4160   13.3660 C.3   236  ILE236      0.1561
     77  C         42.4670   59.4860   13.1250 C.2   236  ILE236      0.2260
     78  O         41.7670   59.4510   12.0940 O.2   236  ILE236     -0.2867
     79  CB        44.6590   58.5720   12.3530 C.3   236  ILE236      0.0252
     80  CG1       45.7280   57.4800   12.5780 C.3   236  ILE236      0.0019
     81  CG2       45.3200   59.9980   12.4660 C.3   236  ILE236      0.0019
     82  CD1       46.8280   57.4390   11.4760 C.3   236  ILE236      0.0001
     83  N         48.1770   64.6890    4.0120 N.3   250  GLN250     -0.1245
     84  CA        49.6250   64.4580    4.1280 C.3   250  GLN250      0.1566
     85  C         50.0860   64.0990    5.5530 C.2   250  GLN250      0.2260
     86  O         50.9890   63.2630    5.7310 O.2   250  GLN250     -0.2867
     87  CB        50.4020   65.6820    3.6100 C.3   250  GLN250      0.0367
     88  CG        50.4920   65.7900    2.0780 C.3   250  GLN250      0.0905
     89  CD        50.5880   67.2350    1.5390 C.2   250  GLN250      0.2608
     90  OE1       50.9500   68.1680    2.2550 O.2   250  GLN250     -0.2717
     91  NE2       50.2640   67.4030    0.2570 N.am  250  GLN250     -0.0878
     92  N         48.1610   62.7450    8.0900 N.3   252  ILE252     -0.1231
     93  CA        47.6870   61.4070    8.4100 C.3   252  ILE252      0.1692
     94  C         48.5790   60.3490    7.6990 C.2   252  ILE252      0.2592
     95  O         48.9550   59.3270    8.3130 O.2   252  ILE252     -0.2718
     96  CB        46.1790   61.2580    8.0680 C.3   252  ILE252      0.0266
     97  CG1       45.3380   62.1750    8.9750 C.3   252  ILE252      0.0019
     98  CG2       45.7420   59.8040    8.2380 C.3   252  ILE252      0.0020
     99  CD1       43.8240   62.1560    8.6500 C.3   252  ILE252      0.0001
    100  N         48.9650   60.6290    6.4450 N.am  253  ALA253     -0.1966
    101  CA        49.8540   59.7370    5.6730 C.3   253  ALA253      0.1728
    102  C         51.2040   59.5720    6.3470 C.2   253  ALA253      0.2616
    103  O         51.7330   58.4560    6.3980 O.2   253  ALA253     -0.2715
    104  CB        50.0570   60.2510    4.2350 C.3   253  ALA253      0.0334
    105  N         51.7770   60.6900    6.8120 N.am  254  GLY254     -0.1955
    106  CA        53.0520   60.6740    7.5330 C.3   254  GLY254      0.1869
    107  C         53.0130   59.8520    8.8150 C.2   254  GLY254      0.2309
    108  O         53.9510   59.1160    9.1370 O.2   254  GLY254     -0.2863
    109  N         50.8910   57.3360    9.3330 N.3   256  GLY256     -0.1210
    110  CA        50.8800   55.9600    8.7790 C.3   256  GLY256      0.1956
    111  C         52.2700   55.4980    8.4080 C.2   256  GLY256      0.2611
    112  O         52.6840   54.3970    8.7900 O.2   256  GLY256     -0.2717
    113  N         53.0190   56.3490    7.6930 N.am  257  ALA257     -0.1979
    114  CA        54.3810   55.9930    7.2880 C.3   257  ALA257      0.1597
    115  C         55.3200   55.6670    8.4680 C.2   257  ALA257      0.2287
    116  O         56.1590   54.7510    8.3820 O.2   257  ALA257     -0.2864
    117  CB        54.9800   57.0920    6.3890 C.3   257  ALA257      0.0319
    118  N         54.3970   52.1660    9.7860 N.3   260  ILE260     -0.1245
    119  CA        54.8810   51.1620    8.8390 C.3   260  ILE260      0.1561
    120  C         56.3970   51.0110    8.8820 C.2   260  ILE260      0.2260
    121  O         56.9080   49.8970    8.8570 O.2   260  ILE260     -0.2867
    122  CB        54.4170   51.4760    7.3880 C.3   260  ILE260      0.0252
    123  CG1       52.8990   51.2830    7.2840 C.3   260  ILE260      0.0019
    124  CG2       55.1560   50.5900    6.3720 C.3   260  ILE260      0.0019
    125  CD1       52.2280   52.1510    6.2520 C.3   260  ILE260      0.0001
@<TRIPOS>BOND
     1    29    28    1
     2    24    25    1
     3    25    28    1
     4    25    26    1
     5    28    30    1
     6    34    33    2
     7    16    17    1
     8    26    31   am
     9    26    27    2
    10    18    19    2
    11    18    17    1
    12    31    32    1
    13    17    20    1
    14    33    32    1
    15    91    89   am
    16    32    35    1
    17    35    36    1
    18    20    21    1
    19    20    22    1
    20    45    43    1
    21    89    88    1
    22    89    90    2
    23    21    23    1
    24    36    37    1
    25    36    38    1
    26    88    87    1
    27    42    41    2
    28    43    44    1
    29    43    40    1
    30    39    40    1
    31    41    40    1
    32    44    46    1
    33    87    84    1
    34    83    84    1
    35    84    85    1
    36   104   101    1
    37    85    86    2
    38   101   102    1
    39   101   100    1
    40    54    52    1
    41   125   123    1
    42   102   103    2
    43   102   105   am
    44   124   122    1
    45   117   114    1
    46   100    94   am
    47    66    65    1
    48   105   106    1
    49    52    51    1
    50   123   122    1
    51   114   113    1
    52   114   115    1
    53   122   119    1
    54   106   107    1
    55   113   111   am
    56    94    95    2
    57    94    93    1
    58     6     5    1
    59    65    64    1
    60    65    67    1
    61    61    62    1
    62    61    64    1
    63    61    60    1
    64    96    98    1
    65    96    93    1
    66    96    97    1
    67    92    93    1
    68    51    53    1
    69    51    48    1
    70    59    56    1
    71   116   115    2
    72     1     2    1
    73   111   110    1
    74   111   112    2
    75    62    63    2
    76    99    97    1
    77   110   109    1
    78   107   108    2
    79   119   120    1
    80   119   118    1
    81   121   120    2
    82    56    57    1
    83    56    55    1
    84    48    47    1
    85    48    49    1
    86     5     2    1
    87     2     3    1
    88    57    58    2
    89    49    50    2
    90    15    13   am
    91     3     4    2
    92    14    13    2
    93    13    12    1
    94    82    80    1
    95    71    70    2
    96    12    11    1
    97    72    74    1
    98    72    73    1
    99    72    69    1
   100    78    77    2
   101    79    81    1
   102    79    80    1
   103    79    76    1
   104    68    69    1
   105    70    69    1
   106    77    76    1
   107    11     8    1
   108    75    76    1
   109    10     9    2
   110     8     9    1
   111     8     7    1
