@<TRIPOS>MOLECULE
tmp/3opmA00.pdb
 187 183 0 0 0
SMALL
GASTEIGER

@<TRIPOS>ATOM
      1  N         19.6220  -30.4020   25.5600 N.3    86  ARG86      -0.1245
      2  CA        18.6060  -29.7860   24.7170 C.3    86  ARG86       0.1563
      3  C         17.3390  -29.3780   25.4730 C.2    86  ARG86       0.2260
      4  O         16.7380  -28.3500   25.1570 O.2    86  ARG86      -0.2867
      5  CB        18.2350  -30.7000   23.5570 C.3    86  ARG86       0.0307
      6  CG        17.3360  -30.0030   22.5490 C.3    86  ARG86       0.0489
      7  CD        16.5010  -31.0040   21.8390 C.3    86  ARG86       0.2205
      8  NE        17.3060  -31.7800   20.9120 N.pl3  86  ARG86      -0.0865
      9  CZ        17.7150  -31.3350   19.7290 C.cat  86  ARG86       0.5346
     10  NH1       17.4150  -30.1040   19.3280 N.pl3  86  ARG86       0.1354
     11  NH2       18.4320  -32.1300   18.9460 N.pl3  86  ARG86       0.1354
     12  N         17.6270  -36.8650   24.8120 N.3   166  GLU166     -0.1231
     13  CA        17.7550  -36.3670   23.4490 C.3   166  GLU166      0.1699
     14  C         16.8890  -37.1730   22.4910 C.2   166  GLU166      0.2592
     15  O         16.1570  -36.6060   21.6860 O.2   166  GLU166     -0.2718
     16  CB        19.2220  -36.4280   23.0070 C.3   166  GLU166      0.0402
     17  CG        19.4700  -36.1760   21.5180 C.3   166  GLU166      0.1161
     18  CD        19.2410  -34.7340   21.0910 C.2   166  GLU166      0.3649
     19  OE1       19.4420  -34.4360   19.8860 O.co2 166  GLU166     -0.2457
     20  OE2       18.8640  -33.9010   21.9520 O.co2 166  GLU166     -0.2457
     21  N         16.9760  -38.4940   22.6070 N.am  167  GLU167     -0.1979
     22  CA        16.4570  -39.4000   21.6060 C.3   167  GLU167      0.1602
     23  C         15.1840  -40.1410   22.0110 C.2   167  GLU167      0.2287
     24  O         14.4590  -40.5660   21.1340 O.2   167  GLU167     -0.2864
     25  CB        17.5250  -40.4340   21.2470 C.3   167  GLU167      0.0415
     26  CG        18.9010  -39.8690   20.9780 C.3   167  GLU167      0.1163
     27  CD        19.0050  -39.1710   19.6410 C.2   167  GLU167      0.3649
     28  OE1       17.9750  -39.0670   18.9260 O.co2 167  GLU167     -0.2457
     29  OE2       20.1340  -38.7280   19.3040 O.co2 167  GLU167     -0.2457
     30  N         12.5870  -36.7470   24.5810 N.3   170  SER170     -0.1217
     31  CA        12.7180  -35.3290   24.2490 C.3   170  SER170      0.1889
     32  C         12.3330  -34.4410   25.4400 C.2   170  SER170      0.2288
     33  O         11.5920  -33.4550   25.3100 O.2   170  SER170     -0.2866
     34  CB        11.8760  -35.0160   23.0260 C.3   170  SER170      0.2089
     35  OG        12.2160  -35.9000   21.9760 O.3   170  SER170     -0.2183
     36  N          9.9700  -41.7670   15.2240 N.3   318  PHE318     -0.1241
     37  CA        11.2180  -41.8040   15.9830 C.3   318  PHE318      0.1605
     38  C         11.0990  -42.7120   17.2150 C.2   318  PHE318      0.2264
     39  O         12.0900  -43.0030   17.8940 O.2   318  PHE318     -0.2867
     40  CB        11.5980  -40.3910   16.4280 C.3   318  PHE318      0.0534
     41  CG        12.0440  -39.5100   15.3140 C.ar  318  PHE318     -0.0203
     42  CD1       13.3860  -39.4730   14.9350 C.ar  318  PHE318     -0.0042
     43  CD2       11.1290  -38.7210   14.6250 C.ar  318  PHE318     -0.0042
     44  CE1       13.8060  -38.6580   13.8850 C.ar  318  PHE318     -0.0003
     45  CE2       11.5410  -37.9080   13.5670 C.ar  318  PHE318     -0.0003
     46  CZ        12.8820  -37.8670   13.2030 C.ar  318  PHE318     -0.0000
     47  N         19.9280  -28.9070    2.9550 N.3   507  VAL507     -0.1231
     48  CA        19.6690  -30.3110    3.2220 C.3   507  VAL507      0.1692
     49  C         19.5930  -30.6530    4.7110 C.2   507  VAL507      0.2592
     50  O         20.2830  -30.0870    5.5500 O.2   507  VAL507     -0.2718
     51  CB        20.7100  -31.2140    2.5250 C.3   507  VAL507      0.0266
     52  CG1       22.0960  -30.9720    3.0910 C.3   507  VAL507      0.0020
     53  CG2       20.3540  -32.6820    2.6820 C.3   507  VAL507      0.0020
     54  N         18.6810  -31.5680    5.0060 N.am  508  TYR508     -0.1976
     55  CA        18.6380  -32.2960    6.2530 C.3   508  TYR508      0.1639
     56  C         18.7310  -33.7630    5.8260 C.2   508  TYR508      0.2290
     57  O         19.7760  -34.4110    6.0080 O.2   508  TYR508     -0.2864
     58  CB        17.3430  -31.9450    6.9680 C.3   508  TYR508      0.0560
     59  CG        16.9810  -32.7230    8.2140 C.ar  508  TYR508     -0.0198
     60  CD1       15.7720  -32.4580    8.8700 C.ar  508  TYR508     -0.0009
     61  CD2       17.8030  -33.7180    8.7410 C.ar  508  TYR508     -0.0009
     62  CE1       15.4070  -33.1420   10.0040 C.ar  508  TYR508      0.0417
     63  CE2       17.4250  -34.4200    9.8770 C.ar  508  TYR508      0.0417
     64  CZ        16.2350  -34.1180   10.4960 C.ar  508  TYR508      0.1957
     65  OH        15.8690  -34.7820   11.6280 O.3   508  TYR508     -0.2866
     66  N         11.7320  -31.2910    4.9360 N.3   515  LYS515     -0.1245
     67  CA        12.1470  -29.9280    4.6170 C.3   515  LYS515      0.1561
     68  C         11.3160  -29.2720    3.4990 C.2   515  LYS515      0.2260
     69  O         11.5820  -28.1310    3.1200 O.2   515  LYS515     -0.2867
     70  CB        13.6160  -29.9370    4.2370 C.3   515  LYS515      0.0271
     71  CG        14.5090  -30.2370    5.4130 C.3   515  LYS515      0.0035
     72  CD        14.8030  -28.9590    6.2180 C.3   515  LYS515      0.0206
     73  CE        16.1590  -28.3600    5.8010 C.3   515  LYS515      0.1093
     74  NZ        16.2260  -26.9180    6.0820 N.3   515  LYS515     -0.1314
     75  N         23.2120  -29.0900    8.4590 N.3   590  TRP590     -0.1227
     76  CA        23.5980  -29.1930    9.8630 C.3   590  TRP590      0.1737
     77  C         23.2900  -30.6370   10.2990 C.2   590  TRP590      0.2596
     78  O         22.3800  -31.2480    9.7490 O.2   590  TRP590     -0.2718
     79  CB        22.7230  -28.2130   10.6570 C.3   590  TRP590      0.0564
     80  CG        23.2910  -27.6120   11.9090 C.ar  590  TRP590      0.0003
     81  CD1       23.6000  -28.2580   13.0680 C.ar  590  TRP590      0.0946
     82  CD2       23.5490  -26.2230   12.1480 C.ar  590  TRP590      0.0152
     83  NE1       24.0780  -27.3570   14.0010 N.ar  590  TRP590     -0.2442
     84  CE2       24.0410  -26.1040   13.4580 C.ar  590  TRP590      0.0810
     85  CE3       23.4320  -25.0710   11.3690 C.ar  590  TRP590      0.0012
     86  CZ2       24.3990  -24.8850   14.0080 C.ar  590  TRP590      0.0191
     87  CZ3       23.7970  -23.8490   11.9240 C.ar  590  TRP590      0.0001
     88  CH2       24.2790  -23.7710   13.2210 C.ar  590  TRP590      0.0015
     89  N         24.0070  -31.1940   11.2730 N.am  591  SER591     -0.1938
     90  CA        23.6620  -32.5290   11.7880 C.3   591  SER591      0.2055
     91  C         23.7780  -33.5370   10.6460 C.2   591  SER591      0.2643
     92  O         24.7940  -33.5810    9.9610 O.2   591  SER591     -0.2714
     93  CB        22.2060  -32.5840   12.3490 C.3   591  SER591      0.2130
     94  OG        21.9090  -31.6120   13.3460 O.3   591  SER591     -0.2179
     95  N         22.7150  -34.3330   10.4630 N.am  592  TYR592     -0.1973
     96  CA        22.4900  -35.1850    9.2990 C.3   592  TYR592      0.1639
     97  C         22.6930  -34.4200    8.0100 C.2   592  TYR592      0.2290
     98  O         23.3150  -34.9080    7.0610 O.2   592  TYR592     -0.2864
     99  CB        21.0560  -35.7440    9.3330 C.3   592  TYR592      0.0560
    100  CG        20.9620  -37.1000    8.7060 C.ar  592  TYR592     -0.0198
    101  CD1       20.9840  -38.2670    9.4830 C.ar  592  TYR592     -0.0009
    102  CD2       20.9240  -37.2300    7.3390 C.ar  592  TYR592     -0.0009
    103  CE1       20.9420  -39.5170    8.9080 C.ar  592  TYR592      0.0417
    104  CE2       20.8750  -38.4800    6.7490 C.ar  592  TYR592      0.0417
    105  CZ        20.8780  -39.6150    7.5430 C.ar  592  TYR592      0.1957
    106  OH        20.8290  -40.8220    6.9070 O.3   592  TYR592     -0.2866
    107  N         27.6100  -35.2960   11.3120 N.3   617  VAL617     -0.1245
    108  CA        28.0470  -36.6640   11.6040 C.3   617  VAL617      0.1561
    109  C         29.0540  -36.9990   10.5050 C.2   617  VAL617      0.2260
    110  O         28.8680  -36.6240    9.3550 O.2   617  VAL617     -0.2867
    111  CB        26.8340  -37.6750   11.6210 C.3   617  VAL617      0.0252
    112  CG1       27.2730  -39.1200   11.4470 C.3   617  VAL617      0.0019
    113  CG2       26.0580  -37.5170   12.8930 C.3   617  VAL617      0.0019
    114  N         28.9210  -43.2250   11.6240 N.3   620  TRP620     -0.1241
    115  CA        27.8510  -43.5020   12.5800 C.3   620  TRP620      0.1605
    116  C         28.3030  -44.0990   13.9010 C.2   620  TRP620      0.2264
    117  O         27.5940  -43.9680   14.9000 O.2   620  TRP620     -0.2867
    118  CB        26.7680  -44.3400   11.9110 C.3   620  TRP620      0.0550
    119  CG        26.1310  -43.5380   10.8690 C.ar  620  TRP620      0.0003
    120  CD1       26.2870  -43.6620    9.5340 C.ar  620  TRP620      0.0946
    121  CD2       25.2960  -42.4080   11.0790 C.ar  620  TRP620      0.0152
    122  NE1       25.5750  -42.6910    8.8900 N.ar  620  TRP620     -0.2442
    123  CE2       24.9520  -41.9080    9.8230 C.ar  620  TRP620      0.0810
    124  CE3       24.7760  -41.7890   12.2160 C.ar  620  TRP620      0.0012
    125  CZ2       24.1120  -40.8100    9.6620 C.ar  620  TRP620      0.0191
    126  CZ3       23.9520  -40.6890   12.0610 C.ar  620  TRP620      0.0001
    127  CH2       23.6320  -40.2060   10.7960 C.ar  620  TRP620      0.0015
    128  N         28.1070  -41.4750   16.5850 N.3   623  TYR623     -0.1241
    129  CA        26.8390  -40.9610   17.0690 C.3   623  TYR623      0.1605
    130  C         26.1590  -41.9260   18.0310 C.2   623  TYR623      0.2264
    131  O         26.5570  -43.0840   18.1360 O.2   623  TYR623     -0.2867
    132  CB        25.9290  -40.5880   15.9040 C.3   623  TYR623      0.0534
    133  CG        24.9460  -39.5510   16.3140 C.ar  623  TYR623     -0.0201
    134  CD1       25.3770  -38.3450   16.8290 C.ar  623  TYR623     -0.0009
    135  CD2       23.5860  -39.7940   16.2400 C.ar  623  TYR623     -0.0009
    136  CE1       24.4840  -37.4030   17.2370 C.ar  623  TYR623      0.0417
    137  CE2       22.6830  -38.8550   16.6460 C.ar  623  TYR623      0.0417
    138  CZ        23.1340  -37.6600   17.1420 C.ar  623  TYR623      0.1957
    139  OH        22.2210  -36.7210   17.5400 O.3   623  TYR623     -0.2866
    140  N         19.6170  -43.3990   18.3840 N.3   627  TYR627     -0.1241
    141  CA        19.2290  -42.8790   17.0790 C.3   627  TYR627      0.1605
    142  C         19.8490  -43.7410   16.0090 C.2   627  TYR627      0.2264
    143  O         19.1690  -44.2210   15.1230 O.2   627  TYR627     -0.2867
    144  CB        19.7230  -41.4360   16.9170 C.3   627  TYR627      0.0534
    145  CG        19.4210  -40.7990   15.5810 C.ar  627  TYR627     -0.0201
    146  CD1       18.3040  -39.9880   15.4180 C.ar  627  TYR627     -0.0009
    147  CD2       20.2650  -40.9980   14.4830 C.ar  627  TYR627     -0.0009
    148  CE1       18.0250  -39.3910   14.2080 C.ar  627  TYR627      0.0417
    149  CE2       19.9910  -40.4160   13.2480 C.ar  627  TYR627      0.0417
    150  CZ        18.8740  -39.6060   13.1170 C.ar  627  TYR627      0.1957
    151  OH        18.5860  -39.0160   11.9080 O.3   627  TYR627     -0.2866
    152  N         18.7820  -47.4550   15.5450 N.3   630  ARG630     -0.1245
    153  CA        17.4120  -47.5490   15.0790 C.3   630  ARG630      0.1563
    154  C         17.3800  -47.7110   13.5750 C.2   630  ARG630      0.2260
    155  O         16.5690  -48.4540   13.0440 O.2   630  ARG630     -0.2867
    156  CB        16.6400  -46.3040   15.4560 C.3   630  ARG630      0.0307
    157  CG        15.1920  -46.3210   15.0270 C.3   630  ARG630      0.0489
    158  CD        14.5580  -44.9930   15.3370 C.3   630  ARG630      0.2205
    159  NE        14.7030  -44.6420   16.7490 N.pl3 630  ARG630     -0.0865
    160  CZ        14.9740  -43.4240   17.2020 C.cat 630  ARG630      0.5346
    161  NH1       15.1410  -42.3870   16.3760 N.pl3 630  ARG630      0.1354
    162  NH2       15.0960  -43.2460   18.5030 N.pl3 630  ARG630      0.1354
    163  N         26.3400  -33.2950   21.4220 N.3   671  ASN671     -0.1225
    164  CA        25.4470  -34.1170   20.6330 C.3   671  ASN671      0.1785
    165  C         26.2030  -34.7900   19.5040 C.2   671  ASN671      0.2597
    166  O         26.3870  -36.0050   19.5070 O.2   671  ASN671     -0.2718
    167  CB        24.3250  -33.2410   20.0870 C.3   671  ASN671      0.1169
    168  CG        23.1520  -34.0360   19.5910 C.2   671  ASN671      0.2627
    169  OD1       23.2910  -35.1740   19.1700 O.2   671  ASN671     -0.2716
    170  ND2       21.9790  -33.4370   19.6470 N.am  671  ASN671     -0.0877
    171  N         26.6280  -33.9920   18.5350 N.am  672  VAL672     -0.1980
    172  CA        27.4960  -34.4490   17.4700 C.3   672  VAL672      0.1595
    173  C         28.8610  -33.9000   17.8510 C.2   672  VAL672      0.2287
    174  O         29.1570  -32.7050   17.7220 O.2   672  VAL672     -0.2864
    175  CB        27.0760  -33.9120   16.0730 C.3   672  VAL672      0.0276
    176  CG1       28.0060  -34.4940   14.9670 C.3   672  VAL672      0.0022
    177  CG2       25.6040  -34.2010   15.8100 C.3   672  VAL672      0.0022
    178  N         25.7780  -27.7710   19.8910 N.3   701  HIS701     -0.1241
    179  CA        25.2220  -28.1660   18.6050 C.3   701  HIS701      0.1621
    180  C         24.3970  -27.0770   17.9380 C.2   701  HIS701      0.2264
    181  O         24.2790  -27.0310   16.7100 O.2   701  HIS701     -0.2867
    182  CB        24.3670  -29.4070   18.7750 C.3   701  HIS701      0.0745
    183  CG        24.0840  -30.0910   17.4930 C.ar  701  HIS701      0.0817
    184  ND1       25.0870  -30.5900   16.6910 N.ar  701  HIS701     -0.2268
    185  CD2       22.9210  -30.3260   16.8460 C.ar  701  HIS701      0.1154
    186  CE1       24.5470  -31.1310   15.6110 C.ar  701  HIS701      0.1986
    187  NE2       23.2350  -30.9780   15.6770 N.ar  701  HIS701     -0.2212
@<TRIPOS>BOND
     1    51    53    1
     2    51    52    1
     3    51    48    1
     4    47    48    1
     5    69    68    2
     6    48    49    1
     7    68    67    1
     8    70    67    1
     9    70    71    1
    10    67    66    1
    11    49    54   am
    12    49    50    2
    13    54    55    1
    14    71    72    1
    15    73    74    1
    16    73    72    1
    17    56    57    2
    18    56    55    1
    19    55    58    1
    20   104   102   ar
    21   104   105   ar
    22   106   105    1
    23    58    59    1
    24    98    97    2
    25   102   100   ar
    26   105   103   ar
    27    97    96    1
    28    59    61   ar
    29    59    60   ar
    30    75    76    1
    31   100    99    1
    32   100   101   ar
    33    61    63   ar
    34    60    62   ar
    35   122   120   ar
    36   122   123   ar
    37   103   101   ar
    38    96    99    1
    39    96    95    1
    40   110   109    2
    41   120   119   ar
    42   125   123   ar
    43   125   127   ar
    44    78    77    2
    45   123   121   ar
    46    76    77    1
    47    76    79    1
    48    63    64   ar
    49    92    91    2
    50    62    64   ar
    51    77    89   am
    52    95    91   am
    53    64    65    1
    54   109   108    1
    55    91    90    1
    56    79    80    1
    57   127   126   ar
    58   119   121   ar
    59   119   118    1
    60   121   124   ar
    61    89    90    1
    62   107   108    1
    63    85    87   ar
    64    85    82   ar
    65   112   111    1
    66   108   111    1
    67   111   113    1
    68   114   115    1
    69    90    93    1
    70   151   150    1
    71    80    82   ar
    72    80    81   ar
    73   118   115    1
    74    87    88   ar
    75   126   124   ar
    76    82    84   ar
    77    93    94    1
    78   115   116    1
    79   155   154    2
    80    81    83   ar
    81   150   149   ar
    82   150   148   ar
    83    46    45   ar
    84    46    44   ar
    85    88    86   ar
    86   149   147   ar
    87    84    83   ar
    88    84    86   ar
    89    45    43   ar
    90   154   153    1
    91    44    42   ar
    92   116   117    2
    93   148   146   ar
    94   147   145   ar
    95    43    41   ar
    96    42    41   ar
    97   176   175    1
    98   157   158    1
    99   157   156    1
   100   153   156    1
   101   153   152    1
   102   143   142    2
   103    36    37    1
   104    41    40    1
   105   158   159    1
   106   146   145   ar
   107   145   144    1
   108   186   187   ar
   109   186   184   ar
   110   187   185   ar
   111   177   175    1
   112   132   133    1
   113   132   129    1
   114    37    40    1
   115    37    38    1
   116   142   141    1
   117   175   172    1
   118   135   133   ar
   119   135   137   ar
   120   133   134   ar
   121   161   160    1
   122   128   129    1
   123   137   138   ar
   124   184   183   ar
   125   181   180    2
   126   159   160    2
   127   134   136   ar
   128   185   183   ar
   129   144   141    1
   130   129   130    1
   131   141   140    1
   132   138   136   ar
   133   138   139    1
   134   160   162    1
   135    38    39    2
   136   172   173    1
   137   172   171    1
   138   183   182    1
   139   174   173    2
   140   180   179    1
   141   130   131    2
   142   171   165   am
   143   179   182    1
   144   179   178    1
   145    28    27   ar
   146    11     9    1
   147   169   168    2
   148    29    27   ar
   149    10     9    1
   150   165   166    2
   151   165   164    1
   152   168   170   am
   153   168   167    1
   154    27    26    1
   155     9     8    2
   156    19    18   ar
   157   167   164    1
   158   164   163    1
   159     8     7    1
   160    26    25    1
   161    18    17    1
   162    18    20   ar
   163    24    23    2
   164    25    22    1
   165    17    16    1
   166    22    23    1
   167    22    21    1
   168    15    14    2
   169     7     6    1
   170    35    34    1
   171    14    21   am
   172    14    13    1
   173     6     5    1
   174    16    13    1
   175    34    31    1
   176    13    12    1
   177     5     2    1
   178    31    30    1
   179    31    32    1
   180     2     3    1
   181     2     1    1
   182     4     3    2
   183    33    32    2
