@<TRIPOS>MOLECULE
tmp/3opsA01.pdb
 139 129 0 0 0
SMALL
GASTEIGER

@<TRIPOS>ATOM
      1  N         24.0450  -19.6230   10.0850 N.3    32  ASN32      -0.1240
      2  CA        24.7260  -19.3780   11.3400 C.3    32  ASN32       0.1653
      3  C         26.1770  -18.9190   11.1240 C.2    32  ASN32       0.2266
      4  O         26.6100  -18.6590    9.9870 O.2    32  ASN32      -0.2867
      5  CB        24.6280  -20.6040   12.2700 C.3    32  ASN32       0.1155
      6  CG        25.5530  -21.7440   11.8710 C.2    32  ASN32       0.2627
      7  OD1       26.4190  -21.6070   10.9950 O.2    32  ASN32      -0.2716
      8  ND2       25.3810  -22.8840   12.5320 N.am   32  ASN32      -0.0877
      9  N         28.9320  -20.4070   10.9320 N.3    34  ARG34      -0.1231
     10  CA        29.8590  -21.2040   10.1200 C.3    34  ARG34       0.1694
     11  C         29.3180  -21.7220    8.7860 C.2    34  ARG34       0.2591
     12  O         30.0990  -21.9970    7.8630 O.2    34  ARG34      -0.2718
     13  CB        30.4570  -22.3560   10.9530 C.3    34  ARG34       0.0321
     14  CG        29.4210  -23.3060   11.5690 C.3    34  ARG34       0.0489
     15  CD        30.0590  -24.5000   12.2420 C.3    34  ARG34       0.2205
     16  NE        30.7640  -25.3300   11.2770 N.pl3  34  ARG34      -0.0865
     17  CZ        30.2690  -26.4280   10.7080 C.cat  34  ARG34       0.5346
     18  NH1       31.0220  -27.1040    9.8530 N.pl3  34  ARG34       0.1354
     19  NH2       29.0410  -26.8690   11.0060 N.pl3  34  ARG34       0.1354
     20  N         28.0010  -21.8850    8.6890 N.am   35  ILE35      -0.1980
     21  CA        27.3850  -22.4960    7.5020 C.3    35  ILE35       0.1595
     22  C         26.1360  -21.7440    7.0670 C.2    35  ILE35       0.2287
     23  O         25.7450  -20.7540    7.6900 O.2    35  ILE35      -0.2864
     24  CB        27.0870  -24.0290    7.6570 C.3    35  ILE35       0.0276
     25  CG1       26.2000  -24.3450    8.8740 C.3    35  ILE35       0.0022
     26  CG2       28.3710  -24.8340    7.7260 C.3    35  ILE35       0.0022
     27  CD1       25.7980  -25.8320    8.9460 C.3    35  ILE35       0.0001
     28  N         19.6140  -22.8920    6.8220 N.3    38  HIS38      -0.1241
     29  CA        19.1600  -24.1480    7.3950 C.3    38  HIS38       0.1621
     30  C         17.8340  -24.6000    6.7890 C.2    38  HIS38       0.2264
     31  O         17.7180  -25.7380    6.3610 O.2    38  HIS38      -0.2867
     32  CB        19.1180  -24.0490    8.9190 C.3    38  HIS38       0.0745
     33  CG        20.4700  -24.1610    9.5460 C.ar   38  HIS38       0.0817
     34  ND1       21.4200  -23.1700    9.4420 N.ar   38  HIS38      -0.2268
     35  CD2       21.0530  -25.1740   10.2250 C.ar   38  HIS38       0.1154
     36  CE1       22.5240  -23.5620   10.0490 C.ar   38  HIS38       0.1986
     37  NE2       22.3260  -24.7740   10.5360 N.ar   38  HIS38      -0.2212
     38  N         15.2980  -21.2780   20.3460 N.3   131  THR131     -0.1218
     39  CA        16.5740  -21.3610   19.6140 C.3   131  THR131      0.1862
     40  C         16.5250  -20.9600   18.1120 C.2   131  THR131      0.2287
     41  O         17.4920  -21.1700   17.3790 O.2   131  THR131     -0.2866
     42  CB        17.2350  -22.7450   19.7830 C.3   131  THR131      0.1770
     43  OG1       18.6290  -22.6590   19.4520 O.3   131  THR131     -0.2211
     44  CG2       16.5590  -23.7780   18.9140 C.3   131  THR131      0.0375
     45  N         18.1080  -17.2330   13.7890 N.3   134  TYR134     -0.1241
     46  CA        19.2560  -17.4270   12.9220 C.3   134  TYR134      0.1605
     47  C         19.5950  -16.1310   12.1980 C.2   134  TYR134      0.2264
     48  O         18.8800  -15.1470   12.3610 O.2   134  TYR134     -0.2867
     49  CB        18.9850  -18.6080   11.9810 C.3   134  TYR134      0.0534
     50  CG        19.2620  -19.9100   12.6810 C.ar  134  TYR134     -0.0201
     51  CD1       18.4120  -20.3870   13.6900 C.ar  134  TYR134     -0.0009
     52  CD2       20.3980  -20.6540   12.3740 C.ar  134  TYR134     -0.0009
     53  CE1       18.6880  -21.5750   14.3580 C.ar  134  TYR134      0.0417
     54  CE2       20.6740  -21.8370   13.0330 C.ar  134  TYR134      0.0417
     55  CZ        19.8250  -22.2910   14.0280 C.ar  134  TYR134      0.1957
     56  OH        20.1340  -23.4650   14.6940 O.3   134  TYR134     -0.2866
     57  N         17.9570  -17.6190   22.6110 N.3   164  LYS164     -0.1245
     58  CA        19.3210  -17.8200   22.1440 C.3   164  LYS164      0.1561
     59  C         19.4390  -17.1370   20.7810 C.2   164  LYS164      0.2260
     60  O         18.7430  -17.4980   19.8180 O.2   164  LYS164     -0.2867
     61  CB        19.6890  -19.3060   22.0550 C.3   164  LYS164      0.0271
     62  CG        21.1820  -19.5670   21.7670 C.3   164  LYS164      0.0035
     63  CD        21.6860  -20.8910   22.3410 C.3   164  LYS164      0.0206
     64  CE        21.5370  -22.0410   21.3600 C.3   164  LYS164      0.1093
     65  NZ        22.1380  -23.2690   21.9220 N.3   164  LYS164     -0.1314
     66  N         21.6790  -16.0690   17.5090 N.3   166  LYS166     -0.1245
     67  CA        22.8280  -16.4880   16.7350 C.3   166  LYS166      0.1561
     68  C         23.6810  -15.2840   16.4720 C.2   166  LYS166      0.2260
     69  O         23.1980  -14.2730   15.9730 O.2   166  LYS166     -0.2867
     70  CB        22.4310  -17.0680   15.3830 C.3   166  LYS166      0.0271
     71  CG        22.0180  -18.4770   15.3850 C.3   166  LYS166      0.0035
     72  CD        22.9700  -19.3990   16.0820 C.3   166  LYS166      0.0206
     73  CE        22.4080  -20.7810   15.8740 C.3   166  LYS166      0.1093
     74  NZ        22.8700  -21.8100   16.8340 N.3   166  LYS166     -0.1314
     75  N         25.1000  -17.4840   20.7210 N.3   201  ASP201     -0.1239
     76  CA        25.7770  -18.6350   20.1830 C.3   201  ASP201      0.1674
     77  C         26.4940  -18.2050   18.9070 C.2   201  ASP201      0.2266
     78  O         25.8620  -17.8200   17.9240 O.2   201  ASP201     -0.2867
     79  CB        24.7500  -19.7380   19.9440 C.3   201  ASP201      0.1410
     80  CG        25.3070  -20.9300   19.1960 C.2   201  ASP201      0.3668
     81  OD1       26.5190  -20.9770   18.8700 O.co2 201  ASP201     -0.2456
     82  OD2       24.5010  -21.8370   18.9150 O.co2 201  ASP201     -0.2456
     83  N         28.5610  -20.0960   17.0830 N.3   203  ASN203     -0.1240
     84  CA        28.9260  -21.2570   16.2850 C.3   203  ASN203      0.1653
     85  C         30.3710  -21.1430   15.8270 C.2   203  ASN203      0.2266
     86  O         30.6690  -21.2030   14.6290 O.2   203  ASN203     -0.2867
     87  CB        27.9500  -21.4780   15.1150 C.3   203  ASN203      0.1155
     88  CG        26.6030  -22.0230   15.5780 C.2   203  ASN203      0.2627
     89  OD1       25.7090  -21.2650   15.9460 O.2   203  ASN203     -0.2716
     90  ND2       26.4600  -23.3490   15.5700 N.am  203  ASN203     -0.0877
     91  N         27.5840  -19.2420   24.1110 N.3   227  GLU227     -0.1245
     92  CA        27.7730  -20.5850   23.5900 C.3   227  GLU227      0.1567
     93  C         28.7350  -20.6270   22.4120 C.2   227  GLU227      0.2260
     94  O         28.5480  -19.9210   21.4160 O.2   227  GLU227     -0.2867
     95  CB        26.4310  -21.1820   23.1940 C.3   227  GLU227      0.0388
     96  CG        26.5310  -22.4440   22.3420 C.3   227  GLU227      0.1160
     97  CD        25.2000  -23.1160   22.1800 C.2   227  GLU227      0.3649
     98  OE1       24.2570  -22.6630   22.8460 O.co2 227  GLU227     -0.2457
     99  OE2       25.0880  -24.0970   21.4000 O.co2 227  GLU227     -0.2457
    100  N         28.3650  -29.3870   22.0100 N.3   257  GLU257     -0.1245
    101  CA        27.7630  -29.9110   20.7730 C.3   257  GLU257      0.1567
    102  C         28.8270  -30.1930   19.7080 C.2   257  GLU257      0.2260
    103  O         29.9780  -29.8060   19.8700 O.2   257  GLU257     -0.2867
    104  CB        26.7160  -28.9340   20.2250 C.3   257  GLU257      0.0388
    105  CG        27.2960  -27.7490   19.4830 C.3   257  GLU257      0.1160
    106  CD        26.2430  -26.8580   18.8390 C.2   257  GLU257      0.3649
    107  OE1       26.0420  -26.9620   17.6110 O.co2 257  GLU257     -0.2457
    108  OE2       25.6220  -26.0420   19.5520 O.co2 257  GLU257     -0.2457
    109  N         22.0220  -30.1460   23.8890 N.3   304  HIS304     -0.1241
    110  CA        21.8530  -29.6350   22.5370 C.3   304  HIS304      0.1621
    111  C         20.7190  -30.3650   21.8750 C.2   304  HIS304      0.2264
    112  O         20.5200  -31.5820   22.0790 O.2   304  HIS304     -0.2867
    113  CB        23.1280  -29.8600   21.7020 C.3   304  HIS304      0.0745
    114  CG        22.9880  -29.4860   20.2560 C.ar  304  HIS304      0.0817
    115  ND1       22.3550  -30.2910   19.3340 N.ar  304  HIS304     -0.2268
    116  CD2       23.4180  -28.4020   19.5680 C.ar  304  HIS304      0.1154
    117  CE1       22.3930  -29.7170   18.1450 C.ar  304  HIS304      0.1986
    118  NE2       23.0370  -28.5710   18.2590 N.ar  304  HIS304     -0.2212
    119  N         18.7910  -29.7520   17.9040 N.3   306  TYR306     -0.1241
    120  CA        18.4510  -29.0250   16.6930 C.3   306  TYR306      0.1605
    121  C         18.6120  -29.9740   15.5280 C.2   306  TYR306      0.2264
    122  O         19.6230  -30.6780   15.4230 O.2   306  TYR306     -0.2867
    123  CB        19.3550  -27.8110   16.5000 C.3   306  TYR306      0.0534
    124  CG        18.7920  -26.8330   15.5050 C.ar  306  TYR306     -0.0201
    125  CD1       17.8290  -25.9050   15.8910 C.ar  306  TYR306     -0.0009
    126  CD2       19.2040  -26.8500   14.1740 C.ar  306  TYR306     -0.0009
    127  CE1       17.2950  -25.0140   14.9810 C.ar  306  TYR306      0.0417
    128  CE2       18.6730  -25.9610   13.2560 C.ar  306  TYR306      0.0417
    129  CZ        17.7160  -25.0470   13.6630 C.ar  306  TYR306      0.1957
    130  OH        17.1820  -24.1560   12.7590 O.3   306  TYR306     -0.2866
    131  N         16.1010  -26.7120   24.7170 N.3   329  GLU329     -0.1245
    132  CA        16.3380  -25.9990   23.4650 C.3   329  GLU329      0.1567
    133  C         15.1650  -26.1880   22.5050 C.2   329  GLU329      0.2260
    134  O         15.1290  -27.1480   21.7290 O.2   329  GLU329     -0.2867
    135  CB        17.6440  -26.4820   22.8260 C.3   329  GLU329      0.0388
    136  CG        17.9250  -25.8310   21.4830 C.3   329  GLU329      0.1160
    137  CD        19.3910  -25.8710   21.0600 C.2   329  GLU329      0.3649
    138  OE1       20.1850  -26.6840   21.5850 O.co2 329  GLU329     -0.2457
    139  OE2       19.7430  -25.0690   20.1860 O.co2 329  GLU329     -0.2457
@<TRIPOS>BOND
     1    31    30    2
     2    30    29    1
     3    28    29    1
     4    22    21    1
     5    22    23    2
     6    29    32    1
     7    21    24    1
     8    21    20    1
     9    24    26    1
    10    24    25    1
    11    12    11    2
    12    20    11   am
    13    11    10    1
    14    25    27    1
    15    32    33    1
    16    34    33   ar
    17    34    36   ar
    18    33    35   ar
    19    18    17    1
    20     4     3    2
    21    36    37   ar
    22     1     2    1
    23    10     9    1
    24    10    13    1
    25    35    37   ar
    26    17    19    1
    27    17    16    2
    28    13    14    1
    29     7     6    2
    30     3     2    1
    31    16    15    1
    32     2     5    1
    33    14    15    1
    34     6     5    1
    35     6     8   am
    36    49    50    1
    37    49    46    1
    38    47    48    2
    39    47    46    1
    40    52    50   ar
    41    52    54   ar
    42    50    51   ar
    43   130   129    1
    44    46    45    1
    45    54    55   ar
    46   128   129   ar
    47   128   126   ar
    48   129   127   ar
    49    51    53   ar
    50    55    53   ar
    51    55    56    1
    52   126   124   ar
    53    86    85    2
    54   127   125   ar
    55    87    88    1
    56    87    84    1
    57    70    71    1
    58    70    67    1
    59    71    72    1
    60   122   121    2
    61   124   125   ar
    62   124   123    1
    63   121   120    1
    64    90    88   am
    65    88    89    2
    66    85    84    1
    67    73    72    1
    68    73    74    1
    69    69    68    2
    70    84    83    1
    71    68    67    1
    72   123   120    1
    73   120   119    1
    74    67    66    1
    75    41    40    2
    76   107   106   ar
    77    78    77    2
    78    40    39    1
    79   117   118   ar
    80   117   115   ar
    81   118   116   ar
    82   106   105    1
    83   106   108   ar
    84    81    80   ar
    85    77    76    1
    86    44    42    1
    87    82    80   ar
    88    80    79    1
    89   115   114   ar
    90    43    42    1
    91   105   104    1
    92   116   114   ar
    93    39    42    1
    94    39    38    1
    95   102   103    2
    96   102   101    1
    97    60    59    2
    98    79    76    1
    99    76    75    1
   100   139   137   ar
   101   104   101    1
   102   114   113    1
   103   101   100    1
   104    59    58    1
   105   137   136    1
   106   137   138   ar
   107    64    65    1
   108    64    63    1
   109    99    97   ar
   110    94    93    2
   111   136   135    1
   112   113   110    1
   113   134   133    2
   114    62    61    1
   115    62    63    1
   116   111   112    2
   117   111   110    1
   118    61    58    1
   119    58    57    1
   120    97    96    1
   121    97    98   ar
   122    96    95    1
   123    93    92    1
   124   133   132    1
   125   110   109    1
   126   135   132    1
   127    95    92    1
   128   132   131    1
   129    92    91    1
