@<TRIPOS>MOLECULE
tmp/3optA00.pdb
 122 118 0 0 0
SMALL
GASTEIGER

@<TRIPOS>ATOM
      1  N        -45.1520   47.5840   -5.5940 N.3   154  TYR154     -0.1241
      2  CA       -46.0420   46.4580   -5.3430 C.3   154  TYR154      0.1605
      3  C        -47.3670   46.6220   -6.0790 C.2   154  TYR154      0.2264
      4  O        -48.0770   47.6020   -5.8810 O.2   154  TYR154     -0.2867
      5  CB       -46.3100   46.3290   -3.8440 C.3   154  TYR154      0.0534
      6  CG       -46.6070   44.9200   -3.3830 C.ar  154  TYR154     -0.0201
      7  CD1      -46.4520   43.8410   -4.2400 C.ar  154  TYR154     -0.0009
      8  CD2      -47.0190   44.6680   -2.0800 C.ar  154  TYR154     -0.0009
      9  CE1      -46.7100   42.5490   -3.8140 C.ar  154  TYR154      0.0417
     10  CE2      -47.2820   43.3820   -1.6460 C.ar  154  TYR154      0.0417
     11  CZ       -47.1240   42.3250   -2.5160 C.ar  154  TYR154      0.1957
     12  OH       -47.3850   41.0440   -2.0820 O.3   154  TYR154     -0.2866
     13  N        -51.9170   39.6260   -6.4570 N.3   181  TYR181     -0.1241
     14  CA       -50.7830   40.3430   -5.8940 C.3   181  TYR181      0.1605
     15  C        -49.5640   40.2160   -6.7960 C.2   181  TYR181      0.2264
     16  O        -48.8530   39.2110   -6.7470 O.2   181  TYR181     -0.2867
     17  CB       -50.4560   39.8010   -4.5030 C.3   181  TYR181      0.0534
     18  CG       -51.3840   40.3020   -3.4190 C.ar  181  TYR181     -0.0201
     19  CD1      -51.9160   39.4330   -2.4740 C.ar  181  TYR181     -0.0009
     20  CD2      -51.7180   41.6460   -3.3340 C.ar  181  TYR181     -0.0009
     21  CE1      -52.7580   39.8920   -1.4770 C.ar  181  TYR181      0.0417
     22  CE2      -52.5580   42.1110   -2.3430 C.ar  181  TYR181      0.0417
     23  CZ       -53.0740   41.2320   -1.4190 C.ar  181  TYR181      0.1957
     24  OH       -53.9090   41.7000   -0.4320 O.3   181  TYR181     -0.2866
     25  N        -45.2170   43.6650    2.7580 N.3   189  PHE189     -0.1241
     26  CA       -46.4950   43.8570    3.4360 C.3   189  PHE189      0.1605
     27  C        -46.2630   43.9910    4.9360 C.2   189  PHE189      0.2264
     28  O        -45.6770   43.1140    5.5600 O.2   189  PHE189     -0.2867
     29  CB       -47.4960   42.7410    3.1160 C.3   189  PHE189      0.0534
     30  CG       -46.9070   41.3550    3.1260 C.ar  189  PHE189     -0.0203
     31  CD1      -47.0970   40.5100    4.2070 C.ar  189  PHE189     -0.0042
     32  CD2      -46.1920   40.8830    2.0360 C.ar  189  PHE189     -0.0042
     33  CE1      -46.5660   39.2260    4.2040 C.ar  189  PHE189     -0.0003
     34  CE2      -45.6600   39.6040    2.0330 C.ar  189  PHE189     -0.0003
     35  CZ       -45.8510   38.7750    3.1140 C.ar  189  PHE189     -0.0000
     36  N        -49.9680   43.4970   10.4510 N.3   192  HIS192     -0.1241
     37  CA       -51.4030   43.7320   10.4530 C.3   192  HIS192      0.1621
     38  C        -52.2130   42.4730   10.7220 C.2   192  HIS192      0.2264
     39  O        -51.7390   41.3570   10.5210 O.2   192  HIS192     -0.2867
     40  CB       -51.8360   44.3170    9.1100 C.3   192  HIS192      0.0745
     41  CG       -51.8830   43.3130    7.9980 C.ar  192  HIS192      0.0817
     42  ND1      -50.7400   42.8130    7.3960 N.ar  192  HIS192     -0.2268
     43  CD2      -52.9210   42.7280    7.3730 C.ar  192  HIS192      0.1154
     44  CE1      -51.0860   41.9600    6.4560 C.ar  192  HIS192      0.1986
     45  NE2      -52.4050   41.8810    6.4160 N.ar  192  HIS192     -0.2212
     46  N        -56.2440   40.9270    9.7470 N.3   194  GLU194     -0.1245
     47  CA       -57.2390   41.1250    8.6960 C.3   194  GLU194      0.1567
     48  C        -58.4060   41.9920    9.1650 C.2   194  GLU194      0.2260
     49  O        -58.6620   42.1110   10.3620 O.2   194  GLU194     -0.2867
     50  CB       -57.7530   39.7810    8.1720 C.3   194  GLU194      0.0388
     51  CG       -56.6910   38.9450    7.4830 C.3   194  GLU194      0.1160
     52  CD       -55.8530   39.7600    6.5140 C.2   194  GLU194      0.3649
     53  OE1      -54.7800   40.2490    6.9200 O.co2 194  GLU194     -0.2457
     54  OE2      -56.2610   39.9130    5.3460 O.co2 194  GLU194     -0.2457
     55  N        -57.7330   34.3330    5.9390 N.3   200  SER200     -0.1202
     56  CA       -57.3280   34.6650    4.5820 C.3   200  SER200      0.2020
     57  C        -56.4230   33.5750    4.0300 C.2   200  SER200      0.2619
     58  O        -55.5360   33.0750    4.7270 O.2   200  SER200     -0.2717
     59  CB       -56.6190   36.0220    4.5310 C.3   200  SER200      0.2103
     60  OG       -55.3970   36.0010    5.2430 O.3   200  SER200     -0.2182
     61  N        -56.6670   33.1950    2.7810 N.am  201  ILE201     -0.1965
     62  CA       -55.7990   32.2620    2.0820 C.3   201  ILE201      0.1727
     63  C        -54.9270   33.0690    1.1340 C.2   201  ILE201      0.2616
     64  O        -55.3610   34.0880    0.5960 O.2   201  ILE201     -0.2715
     65  CB       -56.6030   31.2430    1.2520 C.3   201  ILE201      0.0290
     66  CG1      -58.0610   31.2240    1.7030 C.3   201  ILE201      0.0022
     67  CG2      -55.9840   29.8490    1.3440 C.3   201  ILE201      0.0023
     68  CD1      -58.9030   30.2140    0.9760 C.3   201  ILE201      0.0001
     69  N        -53.6940   32.6210    0.9380 N.am  202  ASN202     -0.1972
     70  CA       -52.8090   33.2560   -0.0200 C.3   202  ASN202      0.1688
     71  C        -52.0790   32.1980   -0.8330 C.2   202  ASN202      0.2292
     72  O        -51.2560   31.4550   -0.3040 O.2   202  ASN202     -0.2864
     73  CB       -51.8150   34.1730    0.6880 C.3   202  ASN202      0.1181
     74  CG       -51.0460   35.0510   -0.2760 C.2   202  ASN202      0.2629
     75  OD1      -51.4310   36.1910   -0.5330 O.2   202  ASN202     -0.2716
     76  ND2      -49.9550   34.5220   -0.8210 N.am  202  ASN202     -0.0877
     77  N        -42.3710   34.1090   -1.1010 N.3   210  LYS210     -0.1245
     78  CA       -42.5420   35.2240   -0.1790 C.3   210  LYS210      0.1561
     79  C        -41.9250   34.8870    1.1660 C.2   210  LYS210      0.2260
     80  O        -41.8410   33.7170    1.5480 O.2   210  LYS210     -0.2867
     81  CB       -44.0250   35.5440    0.0200 C.3   210  LYS210      0.0271
     82  CG       -44.7680   35.8990   -1.2540 C.3   210  LYS210      0.0035
     83  CD       -46.1350   36.4630   -0.9210 C.3   210  LYS210      0.0206
     84  CE       -46.8620   36.8920   -2.1790 C.3   210  LYS210      0.1093
     85  NZ       -48.1540   37.5490   -1.8520 N.3   210  LYS210     -0.1314
     86  N        -42.4710   35.2240    5.1250 N.3   212  TRP212     -0.1241
     87  CA       -43.5780   35.4180    6.0460 C.3   212  TRP212      0.1605
     88  C        -43.1180   35.5090    7.4900 C.2   212  TRP212      0.2264
     89  O        -42.2250   34.7800    7.9190 O.2   212  TRP212     -0.2867
     90  CB       -44.5990   34.2900    5.8960 C.3   212  TRP212      0.0550
     91  CG       -45.4410   34.4010    4.6620 C.ar  212  TRP212      0.0003
     92  CD1      -45.0660   34.1120    3.3830 C.ar  212  TRP212      0.0946
     93  CD2      -46.8090   34.8260    4.5920 C.ar  212  TRP212      0.0152
     94  NE1      -46.1130   34.3340    2.5190 N.ar  212  TRP212     -0.2442
     95  CE2      -47.1940   34.7740    3.2370 C.ar  212  TRP212      0.0810
     96  CE3      -47.7420   35.2460    5.5450 C.ar  212  TRP212      0.0012
     97  CZ2      -48.4740   35.1240    2.8100 C.ar  212  TRP212      0.0191
     98  CZ3      -49.0100   35.5970    5.1190 C.ar  212  TRP212      0.0001
     99  CH2      -49.3660   35.5310    3.7640 C.ar  212  TRP212      0.0015
    100  N        -53.9310   32.6120    7.1200 N.3   274  THR274     -0.1218
    101  CA       -53.7700   33.4270    8.3130 C.3   274  THR274      0.1862
    102  C        -55.0310   33.3500    9.1610 C.2   274  THR274      0.2287
    103  O        -56.1350   33.1940    8.6360 O.2   274  THR274     -0.2866
    104  CB       -53.4680   34.8930    7.9670 C.3   274  THR274      0.1770
    105  OG1      -54.6920   35.6010    7.7300 O.3   274  THR274     -0.2211
    106  CG2      -52.5790   34.9710    6.7320 C.3   274  THR274      0.0375
    107  N        -49.2420   39.3060   10.9950 N.3   280  HIS280     -0.1241
    108  CA       -48.3030   38.8150    9.9970 C.3   280  HIS280      0.1621
    109  C        -47.7520   39.9430    9.1330 C.2   280  HIS280      0.2264
    110  O        -48.3660   41.0010    9.0010 O.2   280  HIS280     -0.2867
    111  CB       -48.9460   37.7340    9.1230 C.3   280  HIS280      0.0745
    112  CG       -50.2790   38.1250    8.5500 C.ar  280  HIS280      0.0817
    113  ND1      -51.4330   38.1420    9.3130 N.ar  280  HIS280     -0.2268
    114  CD2      -50.6370   38.4960    7.3100 C.ar  280  HIS280      0.1154
    115  CE1      -52.4430   38.5130    8.5510 C.ar  280  HIS280      0.1986
    116  NE2      -51.9990   38.7360    7.3320 N.ar  280  HIS280     -0.2212
    117  N        -55.6590   35.9490   -3.1650 N.3   292  SER292     -0.1217
    118  CA       -56.1240   35.8300   -1.7830 C.3   292  SER292      0.1889
    119  C        -57.5280   36.3810   -1.5220 C.2   292  SER292      0.2288
    120  O        -58.0160   37.2490   -2.2430 O.2   292  SER292     -0.2866
    121  CB       -55.1330   36.5130   -0.8390 C.3   292  SER292      0.2089
    122  OG       -55.0450   37.8990   -1.1140 O.3   292  SER292     -0.2183
@<TRIPOS>BOND
     1    15    16    2
     2    15    14    1
     3    13    14    1
     4     3     4    2
     5     3     2    1
     6    14    17    1
     7     1     2    1
     8     2     5    1
     9    17    18    1
    10     7     9   ar
    11     7     6   ar
    12     5     6    1
    13     9    11   ar
    14    18    20   ar
    15    18    19   ar
    16     6     8   ar
    17    20    22   ar
    18   117   118    1
    19    11    12    1
    20    11    10   ar
    21    19    21   ar
    22    22    23   ar
    23   120   119    2
    24    84    85    1
    25    84    83    1
    26     8    10   ar
    27   118   119    1
    28   118   121    1
    29    21    23   ar
    30    23    24    1
    31    82    83    1
    32    82    81    1
    33   122   121    1
    34    77    78    1
    35    71    72    2
    36    71    70    1
    37    76    74   am
    38    75    74    2
    39    74    73    1
    40    78    81    1
    41    78    79    1
    42    70    73    1
    43    70    69    1
    44    64    63    2
    45    69    63   am
    46    68    66    1
    47    63    62    1
    48    79    80    2
    49    65    67    1
    50    65    66    1
    51    65    62    1
    52    34    32   ar
    53    34    35   ar
    54    32    30   ar
    55    62    61    1
    56    94    95   ar
    57    94    92   ar
    58    25    26    1
    59    61    57   am
    60    97    95   ar
    61    97    99   ar
    62    35    33   ar
    63    29    30    1
    64    29    26    1
    65    30    31   ar
    66    95    93   ar
    67    92    91   ar
    68    26    27    1
    69    99    98   ar
    70    57    56    1
    71    57    58    2
    72    33    31   ar
    73    59    56    1
    74    59    60    1
    75    56    55    1
    76    93    91   ar
    77    93    96   ar
    78    91    90    1
    79    27    28    2
    80    98    96   ar
    81    86    87    1
    82    54    52   ar
    83    90    87    1
    84    87    88    1
    85    45    44   ar
    86    45    43   ar
    87    44    42   ar
    88    52    53   ar
    89    52    51    1
    90   106   104    1
    91   100   101    1
    92   114   116   ar
    93   114   112   ar
    94   116   115   ar
    95    43    41   ar
    96    42    41   ar
    97    51    50    1
    98    88    89    2
    99   105   104    1
   100   104   101    1
   101    41    40    1
   102    50    47    1
   103   101   102    1
   104   112   111    1
   105   112   113   ar
   106   115   113   ar
   107   103   102    2
   108    47    48    1
   109    47    46    1
   110   110   109    2
   111    40    37    1
   112   111   108    1
   113   109   108    1
   114    48    49    2
   115   108   107    1
   116    36    37    1
   117    37    38    1
   118    39    38    2
