@<TRIPOS>MOLECULE
tmp/3opxA00.pdb
 160 151 0 0 0
SMALL
GASTEIGER

@<TRIPOS>ATOM
      1  N          2.1050   -0.5870  -17.5650 N.3    30  ALA30      -0.1231
      2  CA         2.9570   -0.9910  -18.6830 C.3    30  ALA30       0.1694
      3  C          3.8370    0.1990  -19.0780 C.2    30  ALA30       0.2592
      4  O          3.5710    1.3560  -18.6830 O.2    30  ALA30      -0.2718
      5  CB         2.0990   -1.4640  -19.8660 C.3    30  ALA30       0.0304
      6  N          4.9040   -0.0620  -19.8340 N.am   31  ILE31      -0.1966
      7  CA         5.7970    1.0180  -20.2650 C.3    31  ILE31       0.1727
      8  C          5.6680    1.3780  -21.7460 C.2    31  ILE31       0.2616
      9  O          5.3060    2.5010  -22.1050 O.2    31  ILE31      -0.2715
     10  CB         7.2780    0.6770  -19.9410 C.3    31  ILE31       0.0290
     11  CG1        7.4250    0.4490  -18.4340 C.3    31  ILE31       0.0022
     12  CG2        8.2170    1.7690  -20.4830 C.3    31  ILE31       0.0023
     13  CD1        8.8360    0.1140  -17.9820 C.3    31  ILE31       0.0001
     14  N          5.9630    0.4300  -22.6170 N.am   32  ASP32      -0.1971
     15  CA         5.9770    0.7490  -24.0400 C.3    32  ASP32       0.1709
     16  C          4.5950    1.0880  -24.5770 C.2    32  ASP32       0.2293
     17  O          3.6590    0.3400  -24.3740 O.2    32  ASP32      -0.2864
     18  CB         6.6250   -0.4000  -24.8060 C.3    32  ASP32       0.1436
     19  CG         8.0980   -0.5140  -24.4800 C.2    32  ASP32       0.3671
     20  OD1        8.8220    0.4720  -24.7210 O.co2  32  ASP32      -0.2456
     21  OD2        8.5250   -1.5560  -23.9470 O.co2  32  ASP32      -0.2456
     22  N          7.6370    1.7200  -31.5070 N.3    43  HIS43      -0.1241
     23  CA         7.1780    0.3590  -31.7540 C.3    43  HIS43       0.1621
     24  C          7.5180   -0.0770  -33.1700 C.2    43  HIS43       0.2264
     25  O          7.8420   -1.2390  -33.4020 O.2    43  HIS43      -0.2867
     26  CB         5.6790    0.2290  -31.5160 C.3    43  HIS43       0.0745
     27  CG         5.1400   -1.1240  -31.8500 C.ar   43  HIS43       0.0817
     28  ND1        4.5420   -1.4070  -33.0590 N.ar   43  HIS43      -0.2268
     29  CD2        5.1220   -2.2760  -31.1410 C.ar   43  HIS43       0.1154
     30  CE1        4.1670   -2.6730  -33.0770 C.ar   43  HIS43       0.1986
     31  NE2        4.5130   -3.2250  -31.9260 N.ar   43  HIS43      -0.2212
     32  N         11.1050   -0.9880  -33.2160 N.3    46  MET46      -0.1230
     33  CA        11.2910   -2.2800  -32.5830 C.3    46  MET46       0.1702
     34  C         10.9410   -3.3890  -33.5690 C.2    46  MET46       0.2592
     35  O         11.7030   -4.3350  -33.7450 O.2    46  MET46      -0.2718
     36  CB        10.3930   -2.4250  -31.3560 C.3    46  MET46       0.0401
     37  CG        10.8210   -1.6210  -30.1480 C.3    46  MET46       0.0596
     38  SD         9.4990   -1.5850  -28.9040 S.3    46  MET46      -0.1393
     39  CE        10.4790   -1.2450  -27.4510 C.3    46  MET46       0.0692
     40  N          9.7900   -3.2560  -34.2150 N.am   47  GLN47      -0.1979
     41  CA         9.3440   -4.2680  -35.1720 C.3    47  GLN47       0.1601
     42  C         10.3300   -4.4150  -36.3260 C.2    47  GLN47       0.2287
     43  O         10.5970   -5.5250  -36.7810 O.2    47  GLN47      -0.2864
     44  CB         7.9440   -3.9520  -35.6820 C.3    47  GLN47       0.0394
     45  CG         6.8620   -4.1880  -34.6290 C.3    47  GLN47       0.0908
     46  CD         6.8870   -5.6070  -34.0650 C.2    47  GLN47       0.2608
     47  OE1        7.0830   -5.8150  -32.8580 O.2    47  GLN47      -0.2717
     48  NE2        6.6850   -6.5890  -34.9380 N.am   47  GLN47      -0.0878
     49  N         13.1860   -6.4600  -34.9570 N.3    50  ILE50      -0.1245
     50  CA        12.7560   -7.8280  -34.7290 C.3    50  ILE50       0.1561
     51  C         12.6530   -8.5960  -36.0440 C.2    50  ILE50       0.2260
     52  O         13.1560   -9.7140  -36.1590 O.2    50  ILE50      -0.2867
     53  CB        11.4230   -7.8710  -33.9920 C.3    50  ILE50       0.0252
     54  CG1       11.6100   -7.3630  -32.5590 C.3    50  ILE50       0.0019
     55  CG2       10.8640   -9.3040  -34.0040 C.3    50  ILE50       0.0019
     56  CD1       10.2740   -7.0680  -31.8410 C.3    50  ILE50       0.0001
     57  N          3.9360  -13.4180  -31.5860 N.3    73  TYR73      -0.1241
     58  CA         3.5000  -12.2280  -30.8510 C.3    73  TYR73       0.1605
     59  C          2.0510  -12.4200  -30.4060 C.2    73  TYR73       0.2264
     60  O          1.6670  -12.0380  -29.3010 O.2    73  TYR73      -0.2867
     61  CB         3.6120  -10.9940  -31.7540 C.3    73  TYR73       0.0534
     62  CG         3.6160   -9.6160  -31.0910 C.ar   73  TYR73      -0.0201
     63  CD1        3.5940   -9.4660  -29.7120 C.ar   73  TYR73      -0.0009
     64  CD2        3.6680   -8.4560  -31.8740 C.ar   73  TYR73      -0.0009
     65  CE1        3.6060   -8.1930  -29.1260 C.ar   73  TYR73       0.0417
     66  CE2        3.6790   -7.1830  -31.3010 C.ar   73  TYR73       0.0417
     67  CZ         3.6490   -7.0580  -29.9260 C.ar   73  TYR73       0.1957
     68  OH         3.6660   -5.7930  -29.3630 O.3    73  TYR73      -0.2866
     69  N          2.4960  -12.8060  -26.6290 N.3    77  GLY77      -0.1210
     70  CA         2.7080  -11.4430  -26.1720 C.3    77  GLY77       0.1956
     71  C          4.1310  -10.9550  -26.4180 C.2    77  GLY77       0.2611
     72  O          4.4290   -9.7700  -26.2700 O.2    77  GLY77      -0.2717
     73  N          5.0200  -11.8890  -26.7630 N.am   78  LEU78      -0.1979
     74  CA         6.3930  -11.5590  -27.1660 C.3    78  LEU78       0.1596
     75  C          6.8920  -12.5430  -28.2140 C.2    78  LEU78       0.2287
     76  O          6.8810  -13.7550  -27.9890 O.2    78  LEU78      -0.2864
     77  CB         7.3570  -11.6600  -25.9790 C.3    78  LEU78       0.0297
     78  CG         7.4690  -10.5650  -24.9330 C.3    78  LEU78       0.0022
     79  CD1        8.5140  -10.9710  -23.9100 C.3    78  LEU78       0.0001
     80  CD2        7.8740   -9.2630  -25.6030 C.3    78  LEU78       0.0001
     81  N         17.7780   -5.7490  -30.4730 N.3    98  VAL98      -0.1231
     82  CA        16.4550   -5.1350  -30.5910 C.3    98  VAL98       0.1692
     83  C         16.2850   -3.9400  -29.6450 C.2    98  VAL98       0.2592
     84  O         16.7810   -2.8520  -29.9440 O.2    98  VAL98      -0.2718
     85  CB        15.3180   -6.1730  -30.4300 C.3    98  VAL98       0.0266
     86  CG1       13.9560   -5.5050  -30.5550 C.3    98  VAL98       0.0020
     87  CG2       15.4740   -7.2540  -31.4970 C.3    98  VAL98       0.0020
     88  N         15.5990   -4.1310  -28.5160 N.am   99  ASP99      -0.1974
     89  CA        15.2950   -3.0170  -27.6130 C.3    99  ASP99       0.1709
     90  C         16.5320   -2.1900  -27.2670 C.2    99  ASP99       0.2293
     91  O         16.4740   -0.9520  -27.2150 O.2    99  ASP99      -0.2864
     92  CB        14.6310   -3.5120  -26.3170 C.3    99  ASP99       0.1436
     93  CG        13.1480   -3.8310  -26.4930 C.2    99  ASP99       0.3671
     94  OD1       12.4920   -4.1900  -25.4890 O.co2  99  ASP99      -0.2456
     95  OD2       12.6330   -3.7060  -27.6260 O.co2  99  ASP99      -0.2456
     96  N          6.1850   -4.6900  -17.0710 N.3   134  THR134     -0.1203
     97  CA         6.5490   -4.5930  -18.4770 C.3   134  THR134      0.1994
     98  C          7.0270   -5.9300  -19.0250 C.2   134  THR134      0.2618
     99  O          7.6350   -6.7190  -18.2960 O.2   134  THR134     -0.2717
    100  CB         7.6740   -3.5470  -18.6820 C.3   134  THR134      0.1784
    101  OG1        7.9420   -3.3450  -20.0850 O.3   134  THR134     -0.2211
    102  CG2        8.9640   -3.9740  -17.9700 C.3   134  THR134      0.0376
    103  N          6.7530   -6.1700  -20.3100 N.am  135  ASN135     -0.1960
    104  CA         7.3630   -7.2720  -21.0480 C.3   135  ASN135      0.1819
    105  C          8.7610   -6.9790  -21.5880 C.2   135  ASN135      0.2621
    106  O          9.3940   -7.8420  -22.1610 O.2   135  ASN135     -0.2715
    107  CB         6.4470   -7.7250  -22.1940 C.3   135  ASN135      0.1195
    108  CG         5.4080   -8.7040  -21.7320 C.2   135  ASN135      0.2630
    109  OD1        5.3230   -9.0220  -20.5410 O.2   135  ASN135     -0.2716
    110  ND2        4.6200   -9.2150  -22.6750 N.am  135  ASN135     -0.0877
    111  N          9.2390   -5.7590  -21.4120 N.am  136  ALA136     -0.1977
    112  CA        10.6170   -5.4340  -21.7560 C.3   136  ALA136      0.1597
    113  C         11.5650   -6.0180  -20.7290 C.2   136  ALA136      0.2287
    114  O         11.1650   -6.3750  -19.6180 O.2   136  ALA136     -0.2864
    115  CB        10.8120   -3.9140  -21.8200 C.3   136  ALA136      0.0319
    116  N         14.7250  -12.0350  -19.4010 N.3   162  TYR162     -0.1241
    117  CA        15.2410  -12.5830  -20.6520 C.3   162  TYR162      0.1605
    118  C         16.4450  -13.5010  -20.4030 C.2   162  TYR162      0.2264
    119  O         17.0320  -14.0050  -21.3510 O.2   162  TYR162     -0.2867
    120  CB        15.6670  -11.4760  -21.6210 C.3   162  TYR162      0.0534
    121  CG        14.5550  -10.6820  -22.2940 C.ar  162  TYR162     -0.0201
    122  CD1       14.8340   -9.8820  -23.3950 C.ar  162  TYR162     -0.0009
    123  CD2       13.2510  -10.7160  -21.8280 C.ar  162  TYR162     -0.0009
    124  CE1       13.8490   -9.1340  -24.0170 C.ar  162  TYR162      0.0417
    125  CE2       12.2540   -9.9660  -22.4490 C.ar  162  TYR162      0.0417
    126  CZ        12.5590   -9.1880  -23.5430 C.ar  162  TYR162      0.1957
    127  OH        11.5730   -8.4300  -24.1470 O.3   162  TYR162     -0.2866
    128  N          3.5160  -11.1510  -19.8760 N.3   171  LYS171     -0.1245
    129  CA         2.1180  -10.8380  -20.1450 C.3   171  LYS171      0.1561
    130  C          1.7980  -11.3310  -21.5560 C.2   171  LYS171      0.2260
    131  O          2.6260  -11.2220  -22.4470 O.2   171  LYS171     -0.2867
    132  CB         1.8800   -9.3360  -20.0360 C.3   171  LYS171      0.0271
    133  CG         2.2930   -8.7330  -18.7030 C.3   171  LYS171      0.0035
    134  CD         2.0700   -7.2160  -18.7060 C.3   171  LYS171      0.0206
    135  CE         3.0710   -6.5120  -19.6290 C.3   171  LYS171      0.1093
    136  NZ         2.8480   -5.0050  -19.6440 N.3   171  LYS171     -0.1314
    137  N         -2.5800   -0.5120  -19.5450 N.3   196  ASP196     -0.1225
    138  CA        -1.7580   -1.2090  -20.5360 C.3   196  ASP196      0.1805
    139  C         -2.3930   -0.9190  -21.8890 C.2   196  ASP196      0.2597
    140  O         -3.5940   -0.7020  -21.9650 O.2   196  ASP196     -0.2718
    141  CB        -1.7480   -2.7120  -20.2180 C.3   196  ASP196      0.1424
    142  CG        -0.6180   -3.4860  -20.9190 C.2   196  ASP196      0.3668
    143  OD1       -0.3980   -3.2910  -22.1270 O.co2 196  ASP196     -0.2456
    144  OD2        0.0290   -4.3170  -20.2420 O.co2 196  ASP196     -0.2456
    145  N         -1.5940   -0.8870  -22.9470 N.am  197  ASP197     -0.1974
    146  CA        -2.1400   -0.6800  -24.2860 C.3   197  ASP197      0.1709
    147  C         -2.5550   -1.9930  -24.9330 C.2   197  ASP197      0.2293
    148  O         -3.2010   -1.9820  -25.9890 O.2   197  ASP197     -0.2864
    149  CB        -1.1310    0.0360  -25.1890 C.3   197  ASP197      0.1436
    150  CG         0.1740   -0.7040  -25.2910 C.2   197  ASP197      0.3671
    151  OD1        0.7420   -1.0000  -24.2290 O.co2 197  ASP197     -0.2456
    152  OD2        0.6260   -0.9830  -26.4200 O.co2 197  ASP197     -0.2456
    153  N         -3.5680   -8.2200  -22.4050 N.3   201  ASN201     -0.1240
    154  CA        -3.0360   -8.0190  -21.0690 C.3   201  ASN201      0.1653
    155  C         -4.1200   -7.5030  -20.1330 C.2   201  ASN201      0.2266
    156  O         -4.2590   -7.9630  -19.0020 O.2   201  ASN201     -0.2867
    157  CB        -1.8510   -7.0420  -21.0850 C.3   201  ASN201      0.1155
    158  CG        -0.6090   -7.6160  -21.7650 C.2   201  ASN201      0.2627
    159  OD1       -0.5780   -8.7780  -22.1790 O.2   201  ASN201     -0.2716
    160  ND2        0.4290   -6.7910  -21.8790 N.am  201  ASN201     -0.0877
@<TRIPOS>BOND
     1    43    42    2
     2    42    41    1
     3    52    51    2
     4    51    50    1
     5    44    41    1
     6    44    45    1
     7    41    40    1
     8    49    50    1
     9    48    46   am
    10    50    53    1
    11    45    46    1
    12    40    34   am
    13    46    47    2
    14    55    53    1
    15    53    54    1
    16    35    34    2
    17    34    33    1
    18    25    24    2
    19    32    33    1
    20    24    23    1
    21    30    28   ar
    22    30    31   ar
    23    28    27   ar
    24    33    36    1
    25    54    56    1
    26    31    29   ar
    27    64    66   ar
    28    64    62   ar
    29    27    26    1
    30    27    29   ar
    31    61    62    1
    32    61    58    1
    33    23    26    1
    34    23    22    1
    35    57    58    1
    36    87    85    1
    37    36    37    1
    38    66    67   ar
    39    62    63   ar
    40    58    59    1
    41    82    81    1
    42    82    85    1
    43    82    83    1
    44    86    85    1
    45    59    60    2
    46    37    38    1
    47    84    83    2
    48    67    68    1
    49    67    65   ar
    50    63    65   ar
    51    83    88   am
    52    38    39    1
    53    88    89    1
    54    75    76    2
    55    75    74    1
    56    95    93   ar
    57    89    90    1
    58    89    92    1
    59    90    91    2
    60    74    73    1
    61    74    77    1
    62    73    71   am
    63    69    70    1
    64    93    92    1
    65    93    94   ar
    66   152   150   ar
    67    71    72    2
    68    71    70    1
    69   148   147    2
    70    77    78    1
    71    80    78    1
    72   150   149    1
    73   150   151   ar
    74   149   146    1
    75   147   146    1
    76    78    79    1
    77    18    19    1
    78    18    15    1
    79    20    19   ar
    80    16    17    2
    81    16    15    1
    82    19    21   ar
    83   146   145    1
    84   127   126    1
    85    15    14    1
    86   124   126   ar
    87   124   122   ar
    88   126   125   ar
    89   122   121   ar
    90   145   139   am
    91   110   108   am
    92    14     8   am
    93   125   123   ar
    94   131   130    2
    95   153   154    1
    96   121   123   ar
    97   121   120    1
    98   107   108    1
    99   107   104    1
   100   159   158    2
   101   106   105    2
   102   143   142   ar
   103     9     8    2
   104   140   139    2
   105   139   138    1
   106   160   158   am
   107   115   112    1
   108   158   157    1
   109   112   111    1
   110   112   113    1
   111     8     7    1
   112   108   109    2
   113   120   117    1
   114   105   111   am
   115   105   104    1
   116   130   129    1
   117   119   118    2
   118   157   154    1
   119   154   155    1
   120   104   103    1
   121   142   144   ar
   122   142   141    1
   123   113   114    2
   124   117   118    1
   125   117   116    1
   126   138   141    1
   127   138   137    1
   128    12    10    1
   129   103    98   am
   130     7    10    1
   131     7     6    1
   132   129   132    1
   133   129   128    1
   134   155   156    2
   135   101   100    1
   136   132   133    1
   137    10    11    1
   138     5     2    1
   139     6     3   am
   140   136   135    1
   141   135   134    1
   142     3     4    2
   143     3     2    1
   144    98    97    1
   145    98    99    2
   146   134   133    1
   147     2     1    1
   148   100    97    1
   149   100   102    1
   150    97    96    1
   151    11    13    1
