@<TRIPOS>MOLECULE
tmp/3opyB00.pdb
 159 153 0 0 0
SMALL
GASTEIGER

@<TRIPOS>ATOM
      1  N          2.9380  -25.7360   -4.2700 N.3   340  ASP340     -0.1225
      2  CA         3.9730  -25.8390   -5.3100 C.3   340  ASP340      0.1805
      3  C          4.1380  -27.2610   -5.8410 C.2   340  ASP340      0.2598
      4  O          4.1360  -27.4850   -7.0530 O.2   340  ASP340     -0.2718
      5  CB         5.3270  -25.3200   -4.7890 C.3   340  ASP340      0.1424
      6  CG         5.3120  -23.8820   -4.3240 C.2   340  ASP340      0.3668
      7  OD1        5.9730  -23.0400   -4.9740 O.co2 340  ASP340     -0.2456
      8  OD2        4.6480  -23.5970   -3.3040 O.co2 340  ASP340     -0.2456
      9  N          4.2890  -28.2180   -4.9160 N.am  341  TYR341     -0.1962
     10  CA         4.5160  -29.6210   -5.2160 C.3   341  TYR341      0.1771
     11  C          3.7880  -30.5110   -4.2160 C.2   341  TYR341      0.2619
     12  O          3.8300  -30.2590   -3.0080 O.2   341  TYR341     -0.2715
     13  CB         6.0300  -29.9000   -5.1860 C.3   341  TYR341      0.0574
     14  CG         6.4210  -31.2570   -5.7310 C.ar  341  TYR341     -0.0198
     15  CD1        6.7860  -32.2940   -4.8800 C.ar  341  TYR341     -0.0009
     16  CD2        6.4480  -31.4990   -7.1010 C.ar  341  TYR341     -0.0009
     17  CE1        7.1590  -33.5390   -5.3790 C.ar  341  TYR341      0.0417
     18  CE2        6.8130  -32.7410   -7.6090 C.ar  341  TYR341      0.0417
     19  CZ         7.1600  -33.7600   -6.7460 C.ar  341  TYR341      0.1957
     20  OH         7.5080  -34.9790   -7.2700 O.3   341  TYR341     -0.2866
     21  N          3.1120  -31.5420   -4.7340 N.am  342  ILE342     -0.1977
     22  CA         2.3800  -32.5330   -3.9480 C.3   342  ILE342      0.1596
     23  C          2.9900  -33.9270   -4.1860 C.2   342  ILE342      0.2287
     24  O          3.3160  -34.2770   -5.3340 O.2   342  ILE342     -0.2864
     25  CB         0.8230  -32.5120   -4.1640 C.3   342  ILE342      0.0276
     26  CG1        0.4050  -33.0020   -5.5720 C.3   342  ILE342      0.0022
     27  CG2        0.2300  -31.1490   -3.8470 C.3   342  ILE342      0.0022
     28  CD1       -0.9620  -33.6210   -5.6770 C.3   342  ILE342      0.0001
     29  N          0.2820  -40.1350   -8.4640 N.3   347  LYS347     -0.1231
     30  CA         1.1670  -39.4270   -9.3830 C.3   347  LYS347      0.1678
     31  C          2.6330  -39.3210   -8.9200 C.2   347  LYS347      0.2434
     32  O          3.1320  -38.1950   -8.7250 O.2   347  LYS347     -0.2733
     33  CB         0.5760  -38.0810   -9.8470 C.3   347  LYS347      0.0284
     34  CG         1.0550  -37.6740  -11.2410 C.3   347  LYS347      0.0035
     35  CD         1.4340  -36.2060  -11.3300 C.3   347  LYS347      0.0206
     36  CE         2.5170  -35.9560  -12.3600 C.3   347  LYS347      0.1093
     37  NZ         3.8980  -36.1870  -11.8330 N.3   347  LYS347     -0.1314
     38  N          3.3600  -40.4650   -8.7750 N.am  348  PRO348     -0.2729
     39  CA         4.7820  -40.3670   -8.4500 C.3   348  PRO348      0.1401
     40  C          5.5640  -39.9230   -9.6990 C.2   348  PRO348      0.2269
     41  O          5.0650  -40.0730  -10.8260 O.2   348  PRO348     -0.2865
     42  CB         5.1470  -41.7870   -8.0140 C.3   348  PRO348      0.0296
     43  CG         4.2170  -42.6580   -8.7290 C.3   348  PRO348      0.0237
     44  CD         2.9640  -41.8690   -8.9970 C.3   348  PRO348      0.0939
     45  N          8.0370  -39.9390  -12.7320 N.3   350  SER350     -0.1202
     46  CA         8.2870  -41.0660  -13.6170 C.3   350  SER350      0.2020
     47  C          9.5100  -40.9130  -14.5420 C.2   350  SER350      0.2619
     48  O         10.4070  -41.7630  -14.5180 O.2   350  SER350     -0.2717
     49  CB         7.0260  -41.3850  -14.4030 C.3   350  SER350      0.2103
     50  OG         7.0630  -42.7080  -14.9080 O.3   350  SER350     -0.2182
     51  N          9.5430  -39.8440  -15.3610 N.am  351  SER351     -0.1937
     52  CA        10.6120  -39.5780  -16.3280 C.3   351  SER351      0.2055
     53  C         11.9030  -39.0970  -15.6880 C.2   351  SER351      0.2642
     54  O         12.9300  -39.0620  -16.3720 O.2   351  SER351     -0.2714
     55  CB        10.1450  -38.5850  -17.3920 C.3   351  SER351      0.2130
     56  OG         9.9280  -37.2740  -16.8810 O.3   351  SER351     -0.2179
     57  N         11.8650  -38.7440  -14.3800 N.am  352  ARG352     -0.1977
     58  CA        13.0120  -38.2400  -13.5930 C.3   352  ARG352      0.1597
     59  C         12.7760  -38.4750  -12.1150 C.2   352  ARG352      0.2287
     60  O         11.6130  -38.6550  -11.7260 O.2   352  ARG352     -0.2864
     61  CB        13.2630  -36.7410  -13.8600 C.3   352  ARG352      0.0334
     62  CG        12.0260  -35.8750  -13.7290 C.3   352  ARG352      0.0492
     63  CD        12.2400  -34.4890  -14.2750 C.3   352  ARG352      0.2205
     64  NE        11.0450  -33.6680  -14.0730 N.pl3 352  ARG352     -0.0865
     65  CZ        11.0300  -32.3400  -14.1230 C.cat 352  ARG352      0.5346
     66  NH1       12.1480  -31.6650  -14.3690 N.pl3 352  ARG352      0.1354
     67  NH2        9.8950  -31.6740  -13.9190 N.pl3 352  ARG352      0.1354
     68  N         12.3400  -33.7220   -9.9120 N.3   357  GLN357     -0.1245
     69  CA        11.0130  -33.2070  -10.2470 C.3   357  GLN357      0.1566
     70  C         10.6140  -32.0680   -9.2900 C.2   357  GLN357      0.2260
     71  O         10.2570  -30.9750   -9.7560 O.2   357  GLN357     -0.2867
     72  CB         9.9480  -34.3290  -10.2290 C.3   357  GLN357      0.0367
     73  CG         8.5480  -33.8290  -10.5960 C.3   357  GLN357      0.0905
     74  CD         7.5940  -34.8960  -11.0210 C.2   357  GLN357      0.2608
     75  OE1        6.5480  -35.1200  -10.3860 O.2   357  GLN357     -0.2717
     76  NE2        7.9020  -35.5290  -12.1570 N.am  357  GLN357     -0.0878
     77  N         12.8120  -28.8610   -9.4850 N.3   360  ASP360     -0.1225
     78  CA        12.5490  -28.1520  -10.7380 C.3   360  ASP360      0.1805
     79  C         11.3000  -27.2780  -10.6120 C.2   360  ASP360      0.2597
     80  O         11.3730  -26.0700  -10.8630 O.2   360  ASP360     -0.2718
     81  CB        12.4240  -29.1490  -11.8950 C.3   360  ASP360      0.1424
     82  CG        12.1560  -28.5010  -13.2280 C.2   360  ASP360      0.3668
     83  OD1       13.1310  -28.0790  -13.8900 O.co2 360  ASP360     -0.2456
     84  OD2       10.9670  -28.4220  -13.6180 O.co2 360  ASP360     -0.2456
     85  N         10.1700  -27.8930  -10.1830 N.am  361  ILE361     -0.1980
     86  CA         8.8760  -27.2360   -9.9770 C.3   361  ILE361      0.1595
     87  C          9.0200  -26.1240   -8.9220 C.2   361  ILE361      0.2287
     88  O          8.7100  -24.9700   -9.2290 O.2   361  ILE361     -0.2864
     89  CB         7.7440  -28.2610   -9.6580 C.3   361  ILE361      0.0276
     90  CG1        7.5420  -29.2330  -10.8500 C.3   361  ILE361      0.0022
     91  CG2        6.4460  -27.5390   -9.3110 C.3   361  ILE361      0.0022
     92  CD1        6.8900  -30.5510  -10.5530 C.3   361  ILE361      0.0001
     93  N         11.3500  -23.2630  -10.2690 N.3   364  LYS364     -0.1231
     94  CA        10.6250  -22.4340  -11.2410 C.3   364  LYS364      0.1693
     95  C          9.6870  -21.4210  -10.5600 C.2   364  LYS364      0.2592
     96  O          9.6730  -20.2440  -10.9250 O.2   364  LYS364     -0.2718
     97  CB         9.8610  -23.3070  -12.2530 C.3   364  LYS364      0.0285
     98  CG        10.7590  -23.9220  -13.3220 C.3   364  LYS364      0.0035
     99  CD         9.9660  -24.7890  -14.2870 C.3   364  LYS364      0.0206
    100  CE        10.8340  -25.3910  -15.3620 C.3   364  LYS364      0.1093
    101  NZ        10.0110  -26.0540  -16.4080 N.3   364  LYS364     -0.1314
    102  N          8.9600  -21.8740   -9.5370 N.am  365  HIS365     -0.1976
    103  CA         8.0280  -21.0520   -8.7530 C.3   365  HIS365      0.1656
    104  C          8.7620  -19.9030   -8.0150 C.2   365  HIS365      0.2291
    105  O          8.3120  -18.7510   -8.0800 O.2   365  HIS365     -0.2864
    106  CB         7.2610  -21.9370   -7.7450 C.3   365  HIS365      0.0771
    107  CG         6.1250  -22.7120   -8.3330 C.ar  365  HIS365      0.0820
    108  ND1        6.3020  -23.5390   -9.4240 N.ar  365  HIS365     -0.2267
    109  CD2        4.8360  -22.7950   -7.9360 C.ar  365  HIS365      0.1154
    110  CE1        5.1110  -24.0580   -9.6860 C.ar  365  HIS365      0.1986
    111  NE2        4.1980  -23.6390   -8.8150 N.ar  365  HIS365     -0.2212
    112  N         -6.8700  -33.7630  -11.0380 N.3   497  MET497     -0.1245
    113  CA        -5.4620  -34.0340  -11.3150 C.3   497  MET497      0.1570
    114  C         -4.9790  -33.2250  -12.5270 C.2   497  MET497      0.2261
    115  O         -3.9180  -32.6130  -12.4660 O.2   497  MET497     -0.2867
    116  CB        -5.2450  -35.5370  -11.5370 C.3   497  MET497      0.0387
    117  CG        -4.3730  -36.1460  -10.4890 C.3   497  MET497      0.0595
    118  SD        -2.7310  -35.4570  -10.6620 S.3   497  MET497     -0.1393
    119  CE        -2.1460  -35.5870   -9.0460 C.3   497  MET497      0.0692
    120  N         -5.1000  -29.3610  -11.5970 N.3   500  PHE500     -0.1227
    121  CA        -3.9800  -28.9900  -10.7420 C.3   500  PHE500      0.1736
    122  C         -2.6900  -28.8210  -11.4910 C.2   500  PHE500      0.2595
    123  O         -2.0520  -27.7850  -11.3500 O.2   500  PHE500     -0.2718
    124  CB        -3.8160  -29.9550   -9.5510 C.3   500  PHE500      0.0547
    125  CG        -2.6700  -29.6070   -8.6290 C.ar  500  PHE500     -0.0202
    126  CD1       -1.5680  -30.4420   -8.5220 C.ar  500  PHE500     -0.0042
    127  CD2       -2.6820  -28.4280   -7.8910 C.ar  500  PHE500     -0.0042
    128  CE1       -0.5120  -30.1260   -7.6680 C.ar  500  PHE500     -0.0003
    129  CE2       -1.6160  -28.1030   -7.0500 C.ar  500  PHE500     -0.0003
    130  CZ        -0.5400  -28.9590   -6.9360 C.ar  500  PHE500     -0.0000
    131  N         -2.2960  -29.8140  -12.2850 N.am  501  ILE501     -0.1980
    132  CA        -1.0170  -29.7170  -12.9880 C.3   501  ILE501      0.1595
    133  C         -1.0070  -28.5740  -14.0040 C.2   501  ILE501      0.2287
    134  O          0.0070  -27.8690  -14.0870 O.2   501  ILE501     -0.2864
    135  CB        -0.2870  -31.0510  -13.4030 C.3   501  ILE501      0.0276
    136  CG1       -0.4900  -31.4310  -14.8610 C.3   501  ILE501      0.0022
    137  CG2       -0.5670  -32.2190  -12.4500 C.3   501  ILE501      0.0022
    138  CD1        0.8610  -31.8910  -15.5770 C.3   501  ILE501      0.0001
    139  N         -0.8140  -25.2930  -12.0350 N.3   504  ASN504     -0.1225
    140  CA         0.5320  -25.2650  -11.4400 C.3   504  ASN504      0.1785
    141  C          1.6170  -24.9090  -12.4970 C.2   504  ASN504      0.2597
    142  O          2.6430  -24.3130  -12.1620 O.2   504  ASN504     -0.2718
    143  CB         0.8600  -26.6080  -10.8110 C.3   504  ASN504      0.1169
    144  CG         1.9490  -26.5550   -9.7740 C.2   504  ASN504      0.2627
    145  OD1        1.7080  -26.1470   -8.6340 O.2   504  ASN504     -0.2716
    146  ND2        3.1620  -26.9790  -10.1350 N.am  504  ASN504     -0.0877
    147  N          1.3780  -25.3030  -13.7630 N.am  505  SER505     -0.1952
    148  CA         2.2530  -25.0640  -14.8930 C.3   505  SER505      0.1924
    149  C          1.8750  -23.7860  -15.6590 C.2   505  SER505      0.2314
    150  O          1.5680  -22.7400  -15.0710 O.2   505  SER505     -0.2863
    151  CB         2.1960  -26.2650  -15.8210 C.3   505  SER505      0.2116
    152  OG         3.1780  -26.1730  -16.8390 O.3   505  SER505     -0.2180
    153  N          6.0490  -22.6860  -18.3500 N.3   508  VAL508     -0.1245
    154  CA         6.3230  -23.7600  -19.3180 C.3   508  VAL508      0.1561
    155  C          5.6650  -23.3470  -20.6520 C.2   508  VAL508      0.2260
    156  O          4.6300  -22.6670  -20.6080 O.2   508  VAL508     -0.2867
    157  CB         5.8640  -25.1470  -18.7720 C.3   508  VAL508      0.0252
    158  CG1        4.8770  -25.8630  -19.6980 C.3   508  VAL508      0.0019
    159  CG2        7.0690  -26.0270  -18.4540 C.3   508  VAL508      0.0019
@<TRIPOS>BOND
     1   155   156    2
     2   155   154    1
     3   158   157    1
     4   154   157    1
     5   154   153    1
     6   157   159    1
     7    55    56    1
     8    55    52    1
     9   152   151    1
    10   101   100    1
    11    54    53    2
    12    52    53    1
    13    52    51    1
    14   151   148    1
    15    53    57   am
    16   149   150    2
    17   149   148    1
    18   138   136    1
    19   100    99    1
    20    51    47   am
    21    50    49    1
    22   148   147    1
    23   136   135    1
    24    47    48    2
    25    47    46    1
    26    49    46    1
    27    57    58    1
    28    66    65    1
    29    99    98    1
    30    63    64    1
    31    63    62    1
    32    65    64    2
    33    65    67    1
    34   134   133    2
    35   133   132    1
    36    83    82   ar
    37    61    62    1
    38    61    58    1
    39   147   141   am
    40    84    82   ar
    41    46    45    1
    42    58    59    1
    43   135   132    1
    44   135   137    1
    45    98    97    1
    46    82    81    1
    47   132   131    1
    48   114   115    2
    49   114   113    1
    50   141   142    2
    51   141   140    1
    52    36    37    1
    53    36    35    1
    54   131   122   am
    55    97    94    1
    56    76    74   am
    57    59    60    2
    58   139   140    1
    59    81    78    1
    60   120   121    1
    61   116   113    1
    62   116   117    1
    63   122   123    2
    64   122   121    1
    65   140   143    1
    66    35    34    1
    67   113   112    1
    68    34    33    1
    69    94    95    1
    70    94    93    1
    71    74    73    1
    72    74    75    2
    73    96    95    2
    74    80    79    2
    75    90    92    1
    76    90    89    1
    77    41    40    2
    78   143   144    1
    79   121   124    1
    80    78    79    1
    81    78    77    1
    82   118   117    1
    83   118   119    1
    84    79    85   am
    85    73    72    1
    86    95   102   am
    87    69    72    1
    88    69    68    1
    89    69    70    1
    90    85    86    1
    91   146   144   am
    92    86    89    1
    93    86    87    1
    94    33    30    1
    95   144   145    2
    96    71    70    2
    97    40    39    1
    98   110   108   ar
    99   110   111   ar
   100    89    91    1
   101   124   125    1
   102   102   103    1
   103   108   107   ar
   104    30    31    1
   105    30    29    1
   106    88    87    2
   107    44    38    1
   108    44    43    1
   109    31    38   am
   110    31    32    2
   111   111   109   ar
   112    38    39    1
   113   103   104    1
   114   103   106    1
   115    43    42    1
   116   125   126   ar
   117   125   127   ar
   118   126   128   ar
   119    39    42    1
   120   107   109   ar
   121   107   106    1
   122   105   104    2
   123   127   129   ar
   124   128   130   ar
   125    18    16   ar
   126    18    19   ar
   127    20    19    1
   128    16    14   ar
   129     4     3    2
   130   129   130   ar
   131    19    17   ar
   132     3     2    1
   133     3     9   am
   134    14    13    1
   135    14    15   ar
   136    28    26    1
   137    26    25    1
   138    17    15   ar
   139    24    23    2
   140     2     5    1
   141     2     1    1
   142    10    13    1
   143    10     9    1
   144    10    11    1
   145     7     6   ar
   146     5     6    1
   147    21    11   am
   148    21    22    1
   149     6     8   ar
   150    11    12    2
   151    23    22    1
   152    25    22    1
   153    25    27    1
