@<TRIPOS>MOLECULE
tmp/3oq1C00.pdb
 157 150 0 0 0
SMALL
GASTEIGER

@<TRIPOS>ATOM
      1  N         31.4700  -26.0450   22.9830 N.3   101  ILE101     -0.1245
      2  CA        30.9660  -26.4860   21.6830 C.3   101  ILE101      0.1561
      3  C         31.5360  -27.8440   21.3290 C.2   101  ILE101      0.2260
      4  O         32.5650  -28.2150   21.8480 O.2   101  ILE101     -0.2867
      5  CB        31.2630  -25.5070   20.4930 C.3   101  ILE101      0.0252
      6  CG1       32.7470  -25.2450   20.3530 C.3   101  ILE101      0.0019
      7  CG2       30.4660  -24.2050   20.6120 C.3   101  ILE101      0.0019
      8  CD1       33.1400  -24.5510   19.0620 C.3   101  ILE101      0.0001
      9  N         34.9430  -29.0960   15.8380 N.3   104  THR104     -0.1218
     10  CA        34.5210  -28.5730   14.5730 C.3   104  THR104      0.1862
     11  C         35.7450  -28.2250   13.7540 C.2   104  THR104      0.2287
     12  O         36.6590  -27.5280   14.2330 O.2   104  THR104     -0.2866
     13  CB        33.6610  -27.2570   14.7660 C.3   104  THR104      0.1770
     14  OG1       32.7480  -27.4140   15.8750 O.3   104  THR104     -0.2211
     15  CG2       32.9190  -26.8950   13.4980 C.3   104  THR104      0.0375
     16  N         36.6690  -26.3990    9.8660 N.3   106  LEU106     -0.1245
     17  CA        36.2260  -25.6720    8.6710 C.3   106  LEU106      0.1561
     18  C         36.1020  -26.6450    7.4820 C.2   106  LEU106      0.2260
     19  O         37.0850  -27.2240    7.0660 O.2   106  LEU106     -0.2867
     20  CB        37.2180  -24.5420    8.3350 C.3   106  LEU106      0.0270
     21  CG        37.2610  -23.1710    9.0700 C.3   106  LEU106      0.0019
     22  CD1       37.0940  -21.9640    8.1240 C.3   106  LEU106      0.0001
     23  CD2       36.3070  -23.0230   10.2840 C.3   106  LEU106      0.0001
     24  N         28.9770  -15.9990   18.2920 N.3   150  SER150     -0.1202
     25  CA        29.9890  -15.7190   17.2730 C.3   150  SER150      0.2020
     26  C         29.3980  -14.9030   16.1270 C.2   150  SER150      0.2619
     27  O         28.1550  -14.8260   15.9490 O.2   150  SER150     -0.2717
     28  CB        30.5090  -17.0190   16.6630 C.3   150  SER150      0.2103
     29  OG        30.3700  -18.1050   17.5650 O.3   150  SER150     -0.2182
     30  N         30.2930  -14.3160   15.3370 N.am  151  LEU151     -0.1965
     31  CA        29.9140  -13.6050   14.1630 C.3   151  LEU151      0.1728
     32  C         29.1080  -14.5200   13.3010 C.2   151  LEU151      0.2616
     33  O         28.0600  -14.1040   12.7790 O.2   151  LEU151     -0.2715
     34  CB        31.1280  -13.1740   13.3740 C.3   151  LEU151      0.0311
     35  CG        32.2240  -12.2900   13.9520 C.3   151  LEU151      0.0022
     36  CD1       33.2680  -12.1090   12.8250 C.3   151  LEU151      0.0001
     37  CD2       31.7180  -10.9620   14.4500 C.3   151  LEU151      0.0001
     38  N         29.5800  -15.7610   13.1490 N.am  152  ALA152     -0.1977
     39  CA        28.8160  -16.7860   12.4340 C.3   152  ALA152      0.1597
     40  C         27.4450  -17.1310   13.0900 C.2   152  ALA152      0.2287
     41  O         26.7050  -17.9920   12.6040 O.2   152  ALA152     -0.2864
     42  CB        29.6640  -18.0480   12.2020 C.3   152  ALA152      0.0319
     43  N         28.7350  -17.5610    6.8870 N.3   157  TYR157     -0.1228
     44  CA        30.0680  -17.8670    6.3290 C.3   157  TYR157      0.1721
     45  C         30.1050  -19.2310    5.7660 C.2   157  TYR157      0.2437
     46  O         29.7050  -20.1470    6.4520 O.2   157  TYR157     -0.2733
     47  CB        31.1300  -17.9640    7.4250 C.3   157  TYR157      0.0547
     48  CG        31.5050  -16.6770    7.9960 C.ar  157  TYR157     -0.0200
     49  CD1       30.8310  -16.1970    9.1060 C.ar  157  TYR157     -0.0009
     50  CD2       32.5000  -15.8940    7.3990 C.ar  157  TYR157     -0.0009
     51  CE1       31.1490  -14.9610    9.6530 C.ar  157  TYR157      0.0417
     52  CE2       32.8290  -14.6490    7.9230 C.ar  157  TYR157      0.0417
     53  CZ        32.1470  -14.1940    9.0610 C.ar  157  TYR157      0.1957
     54  OH        32.4330  -12.9820    9.6310 O.3   157  TYR157     -0.2866
     55  N         30.6980  -19.4050    4.5760 N.am  158  PRO158     -0.2729
     56  CA        30.9450  -20.7590    4.0940 C.3   158  PRO158      0.1401
     57  C         31.7550  -21.5410    5.1180 C.2   158  PRO158      0.2269
     58  O         32.4270  -20.9380    5.9660 O.2   158  PRO158     -0.2865
     59  CB        31.8110  -20.5350    2.8500 C.3   158  PRO158      0.0296
     60  CG        32.4390  -19.1960    3.0530 C.3   158  PRO158      0.0237
     61  CD        31.3550  -18.4000    3.7190 C.3   158  PRO158      0.0939
     62  N         30.9530  -23.8410    7.6100 N.3   160  VAL160     -0.1245
     63  CA        30.6040  -23.5620    8.9720 C.3   160  VAL160      0.1561
     64  C         29.1070  -23.6670    9.1930 C.2   160  VAL160      0.2260
     65  O         28.6040  -23.3480   10.2640 O.2   160  VAL160     -0.2867
     66  CB        31.2080  -22.1720    9.3870 C.3   160  VAL160      0.0252
     67  CG1       30.2960  -21.3700   10.3110 C.3   160  VAL160      0.0019
     68  CG2       32.5500  -22.3670   10.0310 C.3   160  VAL160      0.0019
     69  N         27.7810  -25.3480   12.2920 N.3   163  TYR163     -0.1241
     70  CA        28.1590  -24.5490   13.4630 C.3   163  TYR163      0.1605
     71  C         27.4040  -23.2440   13.4810 C.2   163  TYR163      0.2264
     72  O         26.8710  -22.8310   14.5230 O.2   163  TYR163     -0.2867
     73  CB        29.6550  -24.3080   13.4860 C.3   163  TYR163      0.0534
     74  CG        30.1310  -23.2140   14.4250 C.ar  163  TYR163     -0.0201
     75  CD1       30.3760  -23.4610   15.7720 C.ar  163  TYR163     -0.0009
     76  CD2       30.3580  -21.9310   13.9520 C.ar  163  TYR163     -0.0009
     77  CE1       30.8290  -22.4870   16.5930 C.ar  163  TYR163      0.0417
     78  CE2       30.8110  -20.9510   14.7650 C.ar  163  TYR163      0.0417
     79  CZ        31.0630  -21.2270   16.0860 C.ar  163  TYR163      0.1957
     80  OH        31.5270  -20.1980   16.8870 O.3   163  TYR163     -0.2866
     81  N         31.5300  -12.8900   19.0740 N.3   195  LEU195     -0.1231
     82  CA        32.9650  -12.8810   19.1220 C.3   195  LEU195      0.1693
     83  C         33.4910  -13.2330   17.7550 C.2   195  LEU195      0.2593
     84  O         33.0790  -14.2380   17.1610 O.2   195  LEU195     -0.2718
     85  CB        33.4590  -13.9080   20.1300 C.3   195  LEU195      0.0284
     86  CG        32.9460  -13.8410   21.5820 C.3   195  LEU195      0.0019
     87  CD1       33.6370  -14.9080   22.4110 C.3   195  LEU195      0.0001
     88  CD2       33.1060  -12.4850   22.2400 C.3   195  LEU195      0.0001
     89  N         34.3980  -12.3830   17.2620 N.am  196  GLY196     -0.1942
     90  CA        35.1560  -12.6630   16.0460 C.3   196  GLY196      0.2014
     91  C         36.2380  -13.6600   16.3690 C.2   196  GLY196      0.2639
     92  O         36.1740  -14.3010   17.4000 O.2   196  GLY196     -0.2714
     93  N         37.2310  -13.7930   15.4990 N.am  197  LEU197     -0.1963
     94  CA        38.4070  -14.6240   15.8170 C.3   197  LEU197      0.1728
     95  C         39.0000  -14.2650   17.1980 C.2   197  LEU197      0.2616
     96  O         39.2240  -13.0910   17.5240 O.2   197  LEU197     -0.2715
     97  CB        39.4690  -14.5290   14.7230 C.3   197  LEU197      0.0311
     98  CG        40.2990  -15.7960   14.4720 C.3   197  LEU197      0.0022
     99  CD1       39.5070  -16.8500   13.6810 C.3   197  LEU197      0.0001
    100  CD2       41.6340  -15.5150   13.7420 C.3   197  LEU197      0.0001
    101  N         39.1760  -15.2880   18.0230 N.am  198  ILE198     -0.1977
    102  CA        39.9160  -15.1800   19.2760 C.3   198  ILE198      0.1596
    103  C         41.1090  -16.1520   19.1730 C.2   198  ILE198      0.2287
    104  O         41.0220  -17.1600   18.4800 O.2   198  ILE198     -0.2864
    105  CB        39.0280  -15.5110   20.4980 C.3   198  ILE198      0.0276
    106  CG1       37.6700  -14.7970   20.4150 C.3   198  ILE198      0.0022
    107  CG2       39.7700  -15.2340   21.7970 C.3   198  ILE198      0.0022
    108  CD1       37.7370  -13.2890   20.2840 C.3   198  ILE198      0.0001
    109  N         42.6440  -24.0800   19.6740 N.3   202  THR202     -0.1203
    110  CA        41.5720  -24.5660   18.7600 C.3   202  THR202      0.1994
    111  C         41.2730  -23.6390   17.5560 C.2   202  THR202      0.2617
    112  O         41.4150  -24.0780   16.4140 O.2   202  THR202     -0.2717
    113  CB        40.2460  -24.9610   19.5280 C.3   202  THR202      0.1784
    114  OG1       40.4580  -26.1810   20.2370 O.3   202  THR202     -0.2211
    115  CG2       39.0460  -25.1700   18.5830 C.3   202  THR202      0.0376
    116  N         40.8800  -22.3830   17.8030 N.am  203  ALA203     -0.1979
    117  CA        40.6330  -21.4360   16.7030 C.3   203  ALA203      0.1597
    118  C         41.7150  -21.5480   15.6180 C.2   203  ALA203      0.2287
    119  O         41.4220  -21.8780   14.4590 O.2   203  ALA203     -0.2864
    120  CB        40.5380  -20.0150   17.2080 C.3   203  ALA203      0.0319
    121  N         42.2810  -24.6810   13.3200 N.3   206  ALA206     -0.1231
    122  CA        41.1330  -24.9800   12.4580 C.3   206  ALA206      0.1694
    123  C         41.0060  -23.9680   11.3110 C.2   206  ALA206      0.2591
    124  O         40.7440  -24.3330   10.1570 O.2   206  ALA206     -0.2718
    125  CB        39.8520  -25.0370   13.2760 C.3   206  ALA206      0.0304
    126  N         41.2000  -22.6990   11.6520 N.am  207  VAL207     -0.1980
    127  CA        41.1210  -21.6140   10.6970 C.3   207  VAL207      0.1595
    128  C         42.4210  -21.5270    9.9010 C.2   207  VAL207      0.2287
    129  O         42.4540  -21.9460    8.7360 O.2   207  VAL207     -0.2864
    130  CB        40.7930  -20.2870   11.4130 C.3   207  VAL207      0.0276
    131  CG1       41.2380  -19.1060   10.6120 C.3   207  VAL207      0.0022
    132  CG2       39.3160  -20.2000   11.6740 C.3   207  VAL207      0.0022
    133  N         41.6880  -19.0220    6.4510 N.3   211  VAL211     -0.1231
    134  CA        41.4380  -17.5750    6.5740 C.3   211  VAL211      0.1692
    135  C         42.6040  -16.8300    7.2560 C.2   211  VAL211      0.2592
    136  O         43.4220  -17.4440    7.9390 O.2   211  VAL211     -0.2718
    137  CB        40.0440  -17.2360    7.2560 C.3   211  VAL211      0.0266
    138  CG1       39.0830  -18.4510    7.2660 C.3   211  VAL211      0.0020
    139  CG2       40.2090  -16.6560    8.6690 C.3   211  VAL211      0.0020
    140  N         42.6630  -15.5090    7.0880 N.am  212  HIS212     -0.1962
    141  CA        43.8390  -14.7550    7.5070 C.3   212  HIS212      0.1787
    142  C         43.6710  -13.6350    8.5480 C.2   212  HIS212      0.2620
    143  O         44.6760  -13.0140    8.9160 O.2   212  HIS212     -0.2715
    144  CB        44.6110  -14.2320    6.2750 C.3   212  HIS212      0.0785
    145  CG        43.9000  -13.1600    5.4920 C.ar  212  HIS212      0.0821
    146  ND1       44.0580  -13.0140    4.1270 N.ar  212  HIS212     -0.2267
    147  CD2       43.0420  -12.1780    5.8780 C.ar  212  HIS212      0.1154
    148  CE1       43.3310  -11.9900    3.7070 C.ar  212  HIS212      0.1986
    149  NE2       42.7000  -11.4690    4.7490 N.ar  212  HIS212     -0.2212
    150  N         42.4530  -13.3760    9.0380 N.am  213  MET213     -0.1977
    151  CA        42.2340  -12.1730    9.8730 C.3   213  MET213      0.1605
    152  C         42.9430  -12.1600   11.2660 C.2   213  MET213      0.2287
    153  O         43.5200  -13.1710   11.6990 O.2   213  MET213     -0.2864
    154  CB        40.7430  -11.7220    9.8720 C.3   213  MET213      0.0413
    155  CG        39.8470  -12.0690   11.0870 C.3   213  MET213      0.0598
    156  SD        39.6830  -10.8050   12.3920 S.3   213  MET213     -0.1393
    157  CE        38.7970   -9.4660   11.5860 C.3   213  MET213      0.0692
@<TRIPOS>BOND
     1    59    60    1
     2    59    56    1
     3    60    61    1
     4   148   146   ar
     5   148   149   ar
     6    61    55    1
     7    56    55    1
     8    56    57    1
     9   146   145   ar
    10    55    45   am
    11   149   147   ar
    12    57    58    2
    13   145   147   ar
    14   145   144    1
    15    45    44    1
    16    45    46    2
    17   144   141    1
    18    44    43    1
    19    44    47    1
    20   133   134    1
    21   134   137    1
    22   134   135    1
    23    19    18    2
    24   140   135   am
    25   140   141    1
    26   137   138    1
    27   137   139    1
    28   135   136    2
    29    50    52   ar
    30    50    48   ar
    31    47    48    1
    32    18    17    1
    33   141   142    1
    34    62    63    1
    35    52    53   ar
    36    48    49   ar
    37    22    21    1
    38    20    17    1
    39    20    21    1
    40   142   143    2
    41   142   150   am
    42    17    16    1
    43   129   128    2
    44    63    64    1
    45    63    66    1
    46   150   151    1
    47    53    54    1
    48    53    51   ar
    49    21    23    1
    50    49    51   ar
    51    64    65    2
    52    66    68    1
    53    66    67    1
    54   154   151    1
    55   154   155    1
    56   151   152    1
    57   128   127    1
    58   124   123    2
    59   131   130    1
    60   127   130    1
    61   127   126    1
    62   155   156    1
    63   152   153    2
    64   123   126   am
    65   123   122    1
    66   130   132    1
    67   157   156    1
    68    42    39    1
    69    69    70    1
    70    39    40    1
    71    39    38    1
    72   122   125    1
    73   122   121    1
    74    41    40    2
    75    33    32    2
    76    36    35    1
    77    38    32   am
    78    32    31    1
    79    34    35    1
    80    34    31    1
    81    70    71    1
    82    70    73    1
    83    71    72    2
    84    73    74    1
    85    15    13    1
    86    99    98    1
    87   100    98    1
    88    11    12    2
    89    11    10    1
    90    35    37    1
    91    76    74   ar
    92    76    78   ar
    93    31    30    1
    94    74    75   ar
    95   119   118    2
    96    98    97    1
    97    10    13    1
    98    10     9    1
    99    97    94    1
   100    78    79   ar
   101    13    14    1
   102    30    26   am
   103    93    94    1
   104    93    91   am
   105   118   117    1
   106    75    77   ar
   107    94    95    1
   108    27    26    2
   109    90    91    1
   110    90    89    1
   111    79    77   ar
   112    79    80    1
   113    26    25    1
   114    91    92    2
   115   112   111    2
   116    28    25    1
   117    28    29    1
   118   117   120    1
   119   117   116    1
   120    84    83    2
   121    95    96    2
   122    95   101   am
   123    89    83   am
   124    25    24    1
   125   111   116   am
   126   111   110    1
   127    83    82    1
   128   101   102    1
   129   104   103    2
   130   115   113    1
   131   110   113    1
   132   110   109    1
   133     8     6    1
   134    81    82    1
   135    82    85    1
   136   103   102    1
   137   102   105    1
   138   113   114    1
   139    85    86    1
   140   108   106    1
   141     6     5    1
   142   106   105    1
   143     5     7    1
   144     5     2    1
   145   105   107    1
   146     3     2    1
   147     3     4    2
   148    86    88    1
   149    86    87    1
   150     2     1    1
