@<TRIPOS>MOLECULE
tmp/3oq2A00.pdb
 76 72 0 0 0
SMALL
GASTEIGER

@<TRIPOS>ATOM
      1  N         46.7230   37.4300   23.9950 N.3    13  SER13      -0.1217
      2  CA        48.0690   36.9930   23.6400 C.3    13  SER13       0.1889
      3  C         48.6710   36.3180   24.8670 C.2    13  SER13       0.2288
      4  O         49.2440   36.9740   25.7370 O.2    13  SER13      -0.2866
      5  CB        48.9380   38.1660   23.1790 C.3    13  SER13       0.2089
      6  OG        49.1700   39.0950   24.2250 O.3    13  SER13      -0.2183
      7  N         52.4450   36.2890   25.8750 N.3    16  ASP16      -0.1225
      8  CA        52.9500   37.5200   26.4730 C.3    16  ASP16       0.1790
      9  C         52.7400   37.4550   27.9830 C.2    16  ASP16       0.2440
     10  O         51.8050   36.8080   28.4480 O.2    16  ASP16      -0.2733
     11  CB        52.2350   38.7370   25.8870 C.3    16  ASP16       0.1423
     12  CG        52.8660   39.1930   24.5830 C.2    16  ASP16       0.3668
     13  OD1       53.7830   38.5070   24.0780 O.co2  16  ASP16      -0.2456
     14  OD2       52.4400   40.2540   24.0700 O.co2  16  ASP16      -0.2456
     15  N         53.6040   38.1340   28.7530 N.am   17  PRO17      -0.2718
     16  CA        53.6180   38.0360   30.2210 C.3    17  PRO17       0.1535
     17  C         52.2650   38.3310   30.8770 C.2    17  PRO17       0.2599
     18  O         51.7290   37.4790   31.5880 O.2    17  PRO17      -0.2715
     19  CB        54.6480   39.0940   30.6340 C.3    17  PRO17       0.0310
     20  CG        55.5010   39.2920   29.4330 C.3    17  PRO17       0.0237
     21  CD        54.6000   39.0980   28.2580 C.3    17  PRO17       0.0939
     22  N         51.7450   39.5360   30.6640 N.am   18  GLY18      -0.1941
     23  CA        50.4370   39.9150   31.1670 C.3    18  GLY18       0.2014
     24  C         49.3110   39.0270   30.6670 C.2    18  GLY18       0.2639
     25  O         48.4500   38.6160   31.4460 O.2    18  GLY18      -0.2714
     26  N         49.3090   38.7380   29.3690 N.am   19  GLY19      -0.1954
     27  CA        48.2890   37.8870   28.7750 C.3    19  GLY19       0.1869
     28  C         48.2070   36.5190   29.4290 C.2    19  GLY19       0.2309
     29  O         47.1180   35.9850   29.6560 O.2    19  GLY19      -0.2863
     30  N         49.0450   35.7890   32.5250 N.3    21  ARG21      -0.1231
     31  CA        48.4800   35.9540   33.8540 C.3    21  ARG21       0.1694
     32  C         46.9730   36.1140   33.7620 C.2    21  ARG21       0.2591
     33  O         46.2340   35.5020   34.5200 O.2    21  ARG21      -0.2718
     34  CB        49.0740   37.1830   34.5390 C.3    21  ARG21       0.0321
     35  CG        50.4150   36.9060   35.2130 C.3    21  ARG21       0.0489
     36  CD        50.8300   38.0250   36.1610 C.3    21  ARG21       0.2205
     37  NE        50.8860   39.3080   35.4730 N.pl3  21  ARG21      -0.0865
     38  CZ        51.9700   39.8090   34.8920 C.cat  21  ARG21       0.5346
     39  NH1       53.1480   39.2170   35.0430 N.pl3  21  ARG21       0.1354
     40  NH2       51.8880   40.9390   34.2080 N.pl3  21  ARG21       0.1354
     41  N         46.5110   36.9530   32.8420 N.am   22  ARG22      -0.1980
     42  CA        45.0760   37.1910   32.7180 C.3    22  ARG22       0.1597
     43  C         44.3600   35.9190   32.2940 C.2    22  ARG22       0.2287
     44  O         43.2780   35.6200   32.7890 O.2    22  ARG22      -0.2864
     45  CB        44.7850   38.3410   31.7520 C.3    22  ARG22       0.0334
     46  CG        45.3390   39.6660   32.2600 C.3    22  ARG22       0.0492
     47  CD        44.8230   40.8580   31.4950 C.3    22  ARG22       0.2205
     48  NE        45.1830   40.8540   30.0810 N.pl3  22  ARG22      -0.0865
     49  CZ        46.3450   41.2670   29.5960 C.cat  22  ARG22       0.5346
     50  NH1       47.2940   41.6820   30.4180 N.pl3  22  ARG22       0.1354
     51  NH2       46.5610   41.2440   28.2870 N.pl3  22  ARG22       0.1354
     52  N         41.9330   42.7170   30.0400 N.3    63  ASP63      -0.1239
     53  CA        42.3830   44.0490   29.7020 C.3    63  ASP63       0.1674
     54  C         41.5550   44.4450   28.4870 C.2    63  ASP63       0.2266
     55  O         41.7030   43.8610   27.4230 O.2    63  ASP63      -0.2867
     56  CB        43.8750   44.0340   29.3840 C.3    63  ASP63       0.1410
     57  CG        44.4220   45.4150   29.0870 C.2    63  ASP63       0.3668
     58  OD1       43.7980   46.1530   28.2970 O.co2  63  ASP63      -0.2456
     59  OD2       45.4690   45.7720   29.6580 O.co2  63  ASP63      -0.2456
     60  N         43.6060   45.5290   25.3210 N.3    66  LYS66      -0.1231
     61  CA        44.4750   44.5350   24.6880 C.3    66  LYS66       0.1693
     62  C         43.7600   43.2400   24.3110 C.2    66  LYS66       0.2592
     63  O         44.1600   42.5610   23.3690 O.2    66  LYS66      -0.2718
     64  CB        45.6370   44.1860   25.6190 C.3    66  LYS66       0.0285
     65  CG        46.5930   45.3460   25.8600 C.3    66  LYS66       0.0035
     66  CD        47.6290   45.0230   26.9220 C.3    66  LYS66       0.0206
     67  CE        48.5490   46.2080   27.1700 C.3    66  LYS66       0.1093
     68  NZ        49.5470   45.9420   28.2420 N.3    66  LYS66      -0.1314
     69  N         42.7160   42.8900   25.0550 N.am   67  ASP67      -0.1974
     70  CA        42.0750   41.5870   24.9110 C.3    67  ASP67       0.1709
     71  C         40.6690   41.7440   24.4290 C.2    67  ASP67       0.2293
     72  O         40.1140   42.8330   24.4150 O.2    67  ASP67      -0.2864
     73  CB        41.9260   40.8640   26.2560 C.3    67  ASP67       0.1436
     74  CG        43.2010   40.7850   27.0600 C.2    67  ASP67       0.3671
     75  OD1       44.3130   40.8600   26.5000 O.co2  67  ASP67      -0.2456
     76  OD2       43.0600   40.6140   28.2880 O.co2  67  ASP67      -0.2456
@<TRIPOS>BOND
     1     5     2    1
     2     5     6    1
     3    63    62    2
     4     2     1    1
     5     2     3    1
     6    14    12   ar
     7    13    12   ar
     8    62    61    1
     9    62    69   am
    10    72    71    2
    11    71    70    1
    12    12    11    1
    13    61    60    1
    14    61    64    1
    15     3     4    2
    16    70    69    1
    17    70    73    1
    18    64    65    1
    19    65    66    1
    20     7     8    1
    21    11     8    1
    22    73    74    1
    23     8     9    1
    24    75    74   ar
    25    66    67    1
    26    74    76   ar
    27    67    68    1
    28    55    54    2
    29     9    10    2
    30     9    15   am
    31    21    15    1
    32    21    20    1
    33    51    49    1
    34    58    57   ar
    35    54    53    1
    36    15    16    1
    37    27    26    1
    38    27    28    1
    39    57    56    1
    40    57    59   ar
    41    26    24   am
    42    56    53    1
    43    28    29    2
    44    20    19    1
    45    49    48    2
    46    49    50    1
    47    53    52    1
    48    48    47    1
    49    16    19    1
    50    16    17    1
    51    22    17   am
    52    22    23    1
    53    24    23    1
    54    24    25    2
    55    17    18    2
    56    47    46    1
    57    45    46    1
    58    45    42    1
    59    43    42    1
    60    43    44    2
    61    30    31    1
    62    42    41    1
    63    41    32   am
    64    32    31    1
    65    32    33    2
    66    31    34    1
    67    40    38    1
    68    34    35    1
    69    38    39    1
    70    38    37    2
    71    35    36    1
    72    37    36    1
