@<TRIPOS>MOLECULE
tmp/3oq8A00.pdb
 137 130 0 0 0
SMALL
GASTEIGER

@<TRIPOS>ATOM
      1  N         59.0280  168.2780   33.2530 N.3    80  TYR80      -0.1241
      2  CA        59.1890  167.8330   31.8960 C.3    80  TYR80       0.1605
      3  C         59.8400  166.4550   31.9220 C.2    80  TYR80       0.2264
      4  O         60.7390  166.1970   32.7540 O.2    80  TYR80      -0.2867
      5  CB        60.0360  168.8150   31.0830 C.3    80  TYR80       0.0534
      6  CG        60.2450  168.3500   29.6540 C.ar   80  TYR80      -0.0201
      7  CD1       59.1970  168.3020   28.7560 C.ar   80  TYR80      -0.0009
      8  CD2       61.4960  167.9430   29.2140 C.ar   80  TYR80      -0.0009
      9  CE1       59.3740  167.8150   27.4640 C.ar   80  TYR80       0.0417
     10  CE2       61.6890  167.4970   27.9260 C.ar   80  TYR80       0.0417
     11  CZ        60.6170  167.4460   27.0470 C.ar   80  TYR80       0.1957
     12  OH        60.8170  166.9960   25.7730 O.3    80  TYR80      -0.2866
     13  N         61.7430  164.0380   29.4180 N.3    82  SER82      -0.1217
     14  CA        62.5010  164.0820   28.1950 C.3    82  SER82       0.1889
     15  C         62.7330  162.6790   27.7140 C.2    82  SER82       0.2288
     16  O         63.2500  161.8110   28.4870 O.2    82  SER82      -0.2866
     17  CB        63.8800  164.6890   28.4910 C.3    82  SER82       0.2089
     18  OG        64.7770  164.5030   27.4240 O.3    82  SER82      -0.2183
     19  N         64.9640  162.1440   25.4000 N.3    84  TRP84      -0.1241
     20  CA        66.4010  162.1650   25.2620 C.3    84  TRP84       0.1605
     21  C         67.0450  161.5850   26.5360 C.2    84  TRP84       0.2264
     22  O         67.9410  160.7230   26.4550 O.2    84  TRP84      -0.2867
     23  CB        66.8830  163.6040   24.9570 C.3    84  TRP84       0.0550
     24  CG        68.3060  163.7580   24.5150 C.ar   84  TRP84       0.0003
     25  CD1       68.7320  164.1540   23.2970 C.ar   84  TRP84       0.0946
     26  CD2       69.4940  163.5560   25.2980 C.ar   84  TRP84       0.0152
     27  NE1       70.1050  164.1510   23.2440 N.ar   84  TRP84      -0.2442
     28  CE2       70.5910  163.8040   24.4690 C.ar   84  TRP84       0.0810
     29  CE3       69.7300  163.1980   26.6200 C.ar   84  TRP84       0.0012
     30  CZ2       71.9070  163.7180   24.9200 C.ar   84  TRP84       0.0191
     31  CZ3       71.0310  163.0740   27.0440 C.ar   84  TRP84       0.0001
     32  CH2       72.1000  163.3400   26.2060 C.ar   84  TRP84       0.0015
     33  N         69.6510  159.8990   21.0430 N.3    99  ASP99      -0.1239
     34  CA        68.2300  160.2620   20.9620 C.3    99  ASP99       0.1674
     35  C         67.7040  159.9510   19.5640 C.2    99  ASP99       0.2266
     36  O         67.5920  160.8280   18.7120 O.2    99  ASP99      -0.2867
     37  CB        68.0560  161.7470   21.3370 C.3    99  ASP99       0.1410
     38  CG        66.5640  162.1810   21.4770 C.2    99  ASP99       0.3668
     39  OD1       65.7160  161.3030   21.7740 O.co2  99  ASP99      -0.2456
     40  OD2       66.2510  163.3970   21.2910 O.co2  99  ASP99      -0.2456
     41  N         57.2910  163.2490   26.7490 N.3   145  ASP145     -0.1239
     42  CA        57.7650  163.1270   25.3770 C.3   145  ASP145      0.1674
     43  C         57.3190  161.8080   24.7910 C.2   145  ASP145      0.2266
     44  O         57.6570  160.7530   25.2830 O.2   145  ASP145     -0.2867
     45  CB        59.3020  163.2280   25.4040 C.3   145  ASP145      0.1410
     46  CG        59.9530  163.3300   24.0280 C.2   145  ASP145      0.3668
     47  OD1       59.3420  163.0710   22.9500 O.co2 145  ASP145     -0.2456
     48  OD2       61.1460  163.6690   24.0410 O.co2 145  ASP145     -0.2456
     49  N         66.9070  163.6810   17.8930 N.3   183  CYS183     -0.1221
     50  CA        66.9640  164.9550   18.5850 C.3   183  CYS183      0.1808
     51  C         66.7380  166.1060   17.6050 C.2   183  CYS183      0.2602
     52  O         67.2630  166.1110   16.4950 O.2   183  CYS183     -0.2717
     53  CB        68.3390  165.1360   19.2460 C.3   183  CYS183      0.0970
     54  SG        68.5360  166.7300   20.1740 S.3   183  CYS183     -0.0800
     55  N         65.9780  167.1020   18.0330 N.am  184  GLY184     -0.1942
     56  CA        65.7160  168.2890   17.2260 C.3   184  GLY184      0.2014
     57  C         66.9550  169.0110   16.7690 C.2   184  GLY184      0.2638
     58  O         66.9740  169.6400   15.7180 O.2   184  GLY184     -0.2714
     59  N         67.9980  168.9290   17.5640 N.am  185  HIS185     -0.1973
     60  CA        69.2360  169.6280   17.2610 C.3   185  HIS185      0.1656
     61  C         70.3610  168.7280   16.7610 C.2   185  HIS185      0.2291
     62  O         71.5310  169.1170   16.7970 O.2   185  HIS185     -0.2864
     63  CB        69.6370  170.3810   18.5020 C.3   185  HIS185      0.0771
     64  CG        68.5460  171.2760   18.9840 C.ar  185  HIS185      0.0820
     65  ND1       67.9050  171.0970   20.1930 N.ar  185  HIS185     -0.2267
     66  CD2       67.9520  172.3350   18.3890 C.ar  185  HIS185      0.1154
     67  CE1       66.9730  172.0300   20.3260 C.ar  185  HIS185      0.1986
     68  NE2       66.9950  172.8030   19.2540 N.ar  185  HIS185     -0.2212
     69  N         54.5860  169.2040   17.7470 N.3   220  ARG220     -0.1245
     70  CA        55.9040  169.7090   17.4710 C.3   220  ARG220      0.1563
     71  C         56.2360  169.5800   15.9890 C.2   220  ARG220      0.2260
     72  O         55.9790  168.5030   15.3590 O.2   220  ARG220     -0.2867
     73  CB        56.9220  168.8920   18.2460 C.3   220  ARG220      0.0307
     74  CG        58.3620  169.1970   17.8780 C.3   220  ARG220      0.0489
     75  CD        59.3300  168.3960   18.7600 C.3   220  ARG220      0.2205
     76  NE        60.5340  167.9710   18.0500 N.pl3 220  ARG220     -0.0865
     77  CZ        61.6040  167.4450   18.6300 C.cat 220  ARG220      0.5346
     78  NH1       61.6320  167.2890   19.9330 N.pl3 220  ARG220      0.1354
     79  NH2       62.6610  167.1090   17.9120 N.pl3 220  ARG220      0.1354
     80  N         54.6400  173.7570   19.0870 N.3   277  TRP277     -0.1241
     81  CA        56.0650  173.8950   19.3550 C.3   277  TRP277      0.1605
     82  C         56.8210  173.7390   18.0480 C.2   277  TRP277      0.2264
     83  O         56.5540  172.8120   17.2680 O.2   277  TRP277     -0.2867
     84  CB        56.4890  172.8380   20.3880 C.3   277  TRP277      0.0550
     85  CG        57.9410  172.5150   20.5800 C.ar  277  TRP277      0.0003
     86  CD1       59.0280  173.2790   20.2620 C.ar  277  TRP277      0.0946
     87  CD2       58.4600  171.3340   21.2140 C.ar  277  TRP277      0.0152
     88  NE1       60.1820  172.6170   20.5920 N.ar  277  TRP277     -0.2442
     89  CE2       59.8590  171.4230   21.1870 C.ar  277  TRP277      0.0810
     90  CE3       57.8660  170.1970   21.7720 C.ar  277  TRP277      0.0012
     91  CZ2       60.6860  170.4280   21.7170 C.ar  277  TRP277      0.0191
     92  CZ3       58.6870  169.2050   22.3030 C.ar  277  TRP277      0.0001
     93  CH2       60.0850  169.3390   22.2720 C.ar  277  TRP277      0.0015
     94  N         60.8110  173.4790   16.8680 N.3   279  GLU279     -0.1245
     95  CA        62.2360  173.3940   17.1610 C.3   279  GLU279      0.1567
     96  C         63.0410  174.4510   16.4060 C.2   279  GLU279      0.2260
     97  O         62.7190  174.7750   15.2600 O.2   279  GLU279     -0.2867
     98  CB        62.7230  171.9930   16.8670 C.3   279  GLU279      0.0388
     99  CG        62.2910  170.9970   17.9750 C.3   279  GLU279      0.1160
    100  CD        63.1840  171.1030   19.2250 C.2   279  GLU279      0.3649
    101  OE1       62.9810  172.0280   20.0620 O.co2 279  GLU279     -0.2457
    102  OE2       64.1330  170.2810   19.3260 O.co2 279  GLU279     -0.2457
    103  N         61.2770  175.0480   23.6130 N.3   307  ASN307     -0.1240
    104  CA        62.3870  174.2860   24.1750 C.3   307  ASN307      0.1653
    105  C         63.6120  175.2130   24.3810 C.2   307  ASN307      0.2266
    106  O         64.2630  175.6480   23.4180 O.2   307  ASN307     -0.2867
    107  CB        62.7230  173.1400   23.2170 C.3   307  ASN307      0.1155
    108  CG        64.0050  172.4030   23.6000 C.2   307  ASN307      0.2627
    109  OD1       64.5350  172.5630   24.7190 O.2   307  ASN307     -0.2716
    110  ND2       64.4970  171.5630   22.6780 N.am  307  ASN307     -0.0877
    111  N         66.8070  174.8530   24.9820 N.3   309  SER309     -0.1217
    112  CA        67.6330  173.6700   24.8250 C.3   309  SER309      0.1889
    113  C         69.0870  173.8070   25.3010 C.2   309  SER309      0.2288
    114  O         69.8120  174.7470   24.9020 O.2   309  SER309     -0.2866
    115  CB        67.6600  173.2900   23.3480 C.3   309  SER309      0.2089
    116  OG        68.3580  172.0780   23.1550 O.3   309  SER309     -0.2183
    117  N         71.1620  172.0160   24.0450 N.3   311  SER311     -0.1217
    118  CA        71.9060  171.8430   22.8060 C.3   311  SER311      0.1889
    119  C         72.3880  173.1380   22.1530 C.2   311  SER311      0.2288
    120  O         73.1020  173.0710   21.1470 O.2   311  SER311     -0.2866
    121  CB        71.0870  171.0530   21.7910 C.3   311  SER311      0.2089
    122  OG        70.8490  169.7260   22.2160 O.3   311  SER311     -0.2183
    123  N         65.0250  170.7490   28.3110 N.3   341  THR341     -0.1203
    124  CA        64.8850  169.3150   28.1280 C.3   341  THR341      0.1994
    125  C         65.8980  168.4670   28.9000 C.2   341  THR341      0.2617
    126  O         65.4990  167.4940   29.5250 O.2   341  THR341     -0.2717
    127  CB        65.0660  168.9770   26.6610 C.3   341  THR341      0.1784
    128  OG1       66.1890  169.7160   26.1650 O.3   341  THR341     -0.2211
    129  CG2       63.8290  169.3440   25.8840 C.3   341  THR341      0.0376
    130  N         67.1930  168.8130   28.8210 N.am  342  LEU342     -0.1979
    131  CA        68.2700  167.9860   29.3790 C.3   342  LEU342      0.1596
    132  C         68.8520  168.5150   30.6860 C.2   342  LEU342      0.2287
    133  O         70.0000  168.2220   31.0680 O.2   342  LEU342     -0.2864
    134  CB        69.3880  167.8140   28.3670 C.3   342  LEU342      0.0297
    135  CG        68.9670  167.4380   26.9650 C.3   342  LEU342      0.0022
    136  CD1       70.2210  167.1950   26.1620 C.3   342  LEU342      0.0001
    137  CD2       68.0240  166.1720   26.9830 C.3   342  LEU342      0.0001
@<TRIPOS>BOND
     1    97    96    2
     2    72    71    2
     3    58    57    2
     4    71    70    1
     5    96    95    1
     6    52    51    2
     7    61    62    2
     8    61    60    1
     9    57    56    1
    10    57    59   am
    11    98    95    1
    12    98    99    1
    13    94    95    1
    14    56    55    1
    15    60    59    1
    16    60    63    1
    17    83    82    2
    18    70    69    1
    19    70    73    1
    20    51    55   am
    21    51    50    1
    22    74    73    1
    23    74    75    1
    24    49    50    1
    25    79    77    1
    26    99   100    1
    27    82    81    1
    28    76    77    2
    29    76    75    1
    30    66    64   ar
    31    66    68   ar
    32    63    64    1
    33    50    53    1
    34    77    78    1
    35    36    35    2
    36    64    65   ar
    37    80    81    1
    38   100   102   ar
    39   100   101   ar
    40    53    54    1
    41    68    67   ar
    42    81    84    1
    43    35    34    1
    44    65    67   ar
    45    86    85   ar
    46    86    88   ar
    47    84    85    1
    48    85    87   ar
    49    88    89   ar
    50    34    33    1
    51    34    37    1
    52   120   119    2
    53    89    87   ar
    54    89    91   ar
    55    87    90   ar
    56    40    38   ar
    57    37    38    1
    58    38    39   ar
    59    91    93   ar
    60    90    92   ar
    61   121   122    1
    62   121   118    1
    63   119   118    1
    64    93    92   ar
    65   110   108   am
    66   118   117    1
    67    47    46   ar
    68   116   115    1
    69   107   108    1
    70   107   104    1
    71    27    25   ar
    72    27    28   ar
    73    25    24   ar
    74   115   112    1
    75   106   105    2
    76   108   109    2
    77   103   104    1
    78    46    48   ar
    79    46    45    1
    80   104   105    1
    81    28    30   ar
    82    28    26   ar
    83    24    23    1
    84    24    26   ar
    85    43    44    2
    86    43    42    1
    87   112   111    1
    88   112   113    1
    89   114   113    2
    90    30    32   ar
    91    23    20    1
    92    20    19    1
    93    20    21    1
    94    26    29   ar
    95    42    45    1
    96    42    41    1
    97    12    11    1
    98   129   127    1
    99   136   135    1
   100   128   127    1
   101    32    31   ar
   102    22    21    2
   103    29    31   ar
   104   127   124    1
   105   135   137    1
   106   135   134    1
   107    11     9   ar
   108    11    10   ar
   109    18    17    1
   110     9     7   ar
   111    15    14    1
   112    15    16    2
   113    10     8   ar
   114   124   123    1
   115   124   125    1
   116    14    17    1
   117    14    13    1
   118   134   131    1
   119     7     6   ar
   120   130   125   am
   121   130   131    1
   122   125   126    2
   123     8     6   ar
   124   131   132    1
   125     6     5    1
   126   132   133    2
   127     5     2    1
   128     2     3    1
   129     2     1    1
   130     3     4    2
