@<TRIPOS>MOLECULE
tmp/3oqfB01.pdb
 158 150 0 0 0
SMALL
GASTEIGER

@<TRIPOS>ATOM
      1  N        -32.8910  -44.3350  -18.2190 N.3    15  THR15      -0.1203
      2  CA       -33.0850  -45.6540  -18.8260 C.3    15  THR15       0.1994
      3  C        -32.3460  -46.7710  -18.1060 C.2    15  THR15       0.2617
      4  O        -32.7700  -47.9160  -18.1810 O.2    15  THR15      -0.2717
      5  CB       -32.7580  -45.6250  -20.3220 C.3    15  THR15       0.1784
      6  OG1      -31.3750  -45.3000  -20.4920 O.3    15  THR15      -0.2211
      7  CG2      -33.6800  -44.6630  -21.1010 C.3    15  THR15       0.0376
      8  N        -31.2220  -46.4580  -17.4550 N.am   16  GLN16      -0.1979
      9  CA       -30.4240  -47.4610  -16.7480 C.3    16  GLN16       0.1601
     10  C        -30.0820  -46.9790  -15.3480 C.2    16  GLN16       0.2287
     11  O        -29.5360  -45.8860  -15.1760 O.2    16  GLN16      -0.2864
     12  CB       -29.1320  -47.8020  -17.5140 C.3    16  GLN16       0.0394
     13  CG       -29.3620  -48.2490  -18.9430 C.3    16  GLN16       0.0908
     14  CD       -28.0810  -48.5590  -19.6670 C.2    16  GLN16       0.2608
     15  OE1      -27.0990  -49.0450  -19.0960 O.2    16  GLN16      -0.2717
     16  NE2      -28.0830  -48.3190  -20.9600 N.am   16  GLN16      -0.0878
     17  N        -27.1170  -53.8730  -12.3730 N.3    33  VAL33      -0.1245
     18  CA       -28.5340  -53.5590  -12.2950 C.3    33  VAL33       0.1561
     19  C        -29.1130  -54.5230  -11.2680 C.2    33  VAL33       0.2260
     20  O        -28.7980  -55.7180  -11.2920 O.2    33  VAL33      -0.2867
     21  CB       -29.2720  -53.7150  -13.6450 C.3    33  VAL33       0.0252
     22  CG1      -30.7770  -53.5450  -13.4910 C.3    33  VAL33       0.0019
     23  CG2      -28.7690  -52.7030  -14.6310 C.3    33  VAL33       0.0019
     24  N        -32.2950  -56.2460  -10.4750 N.3    35  ASP35      -0.1239
     25  CA       -33.3850  -56.6670  -11.3320 C.3    35  ASP35       0.1674
     26  C        -34.3780  -57.6410  -10.7070 C.2    35  ASP35       0.2266
     27  O        -34.0670  -58.8250  -10.5420 O.2    35  ASP35      -0.2867
     28  CB       -32.7480  -57.2710  -12.6010 C.3    35  ASP35       0.1410
     29  CG       -33.7130  -57.7290  -13.6710 C.2    35  ASP35       0.3668
     30  OD1      -34.8700  -57.2780  -13.6600 O.co2  35  ASP35      -0.2456
     31  OD2      -33.3090  -58.5410  -14.5180 O.co2  35  ASP35      -0.2456
     32  N        -36.9500  -58.6270  -12.2090 N.3    37  GLY37      -0.1225
     33  CA       -37.3980  -59.4240  -13.3470 C.3    37  GLY37       0.1811
     34  C        -36.5610  -60.6670  -13.6160 C.2    37  GLY37       0.2280
     35  O        -36.8790  -61.4260  -14.5290 O.2    37  GLY37      -0.2866
     36  N        -32.9310  -63.6740  -21.7340 N.3    80  TYR80      -0.1227
     37  CA       -33.8270  -62.5700  -21.3970 C.3    80  TYR80       0.1736
     38  C        -34.6040  -62.1530  -22.6220 C.2    80  TYR80       0.2596
     39  O        -34.3210  -62.6500  -23.7090 O.2    80  TYR80      -0.2718
     40  CB       -33.0180  -61.3840  -20.8570 C.3    80  TYR80       0.0548
     41  CG       -32.1480  -61.7580  -19.6750 C.ar   80  TYR80      -0.0200
     42  CD1      -32.6500  -61.7290  -18.3790 C.ar   80  TYR80      -0.0009
     43  CD2      -30.8280  -62.1640  -19.8530 C.ar   80  TYR80      -0.0009
     44  CE1      -31.8570  -62.0790  -17.2870 C.ar   80  TYR80       0.0417
     45  CE2      -30.0270  -62.5290  -18.7670 C.ar   80  TYR80       0.0417
     46  CZ       -30.5400  -62.4640  -17.4830 C.ar   80  TYR80       0.1957
     47  OH       -29.7650  -62.8150  -16.3990 O.3    80  TYR80      -0.2866
     48  N        -35.5850  -61.2550  -22.4540 N.am   81  SER81      -0.1938
     49  CA       -36.4050  -60.7560  -23.5600 C.3    81  SER81       0.2055
     50  C        -35.5410  -60.0180  -24.5850 C.2    81  SER81       0.2643
     51  O        -35.7880  -60.1100  -25.7930 O.2    81  SER81      -0.2714
     52  CB       -37.4990  -59.8250  -23.0380 C.3    81  SER81       0.2130
     53  OG       -38.6570  -60.5540  -22.6830 O.3    81  SER81      -0.2179
     54  N        -34.5160  -59.3170  -24.0900 N.am   82  THR82      -0.1950
     55  CA       -33.6240  -58.5060  -24.9090 C.3    82  THR82       0.1897
     56  C        -32.4460  -59.2530  -25.4750 C.2    82  THR82       0.2313
     57  O        -31.8620  -58.8060  -26.4670 O.2    82  THR82      -0.2863
     58  CB       -33.1520  -57.3120  -24.1220 C.3    82  THR82       0.1794
     59  OG1      -32.5150  -57.7930  -22.9340 O.3    82  THR82      -0.2208
     60  CG2      -34.2820  -56.3180  -23.8480 C.3    82  THR82       0.0378
     61  N        -27.7510  -56.7960  -26.7680 N.3   115  PRO115     -0.2102
     62  CA       -27.8640  -55.4160  -26.2770 C.3   115  PRO115      0.1504
     63  C        -26.7320  -54.9260  -25.3640 C.2   115  PRO115      0.2575
     64  O        -26.8040  -53.8030  -24.8640 O.2   115  PRO115     -0.2718
     65  CB       -29.1440  -55.4960  -25.4480 C.3   115  PRO115      0.0282
     66  CG       -29.0610  -56.8590  -24.8120 C.3   115  PRO115      0.0208
     67  CD       -28.3120  -57.7410  -25.7900 C.3   115  PRO115      0.0893
     68  N        -25.7270  -55.7640  -25.0960 N.am  116  PHE116     -0.1977
     69  CA       -24.7080  -55.4670  -24.0900 C.3   116  PHE116      0.1639
     70  C        -23.7210  -54.3630  -24.3540 C.2   116  PHE116      0.2290
     71  O        -23.1780  -53.8140  -23.3970 O.2   116  PHE116     -0.2864
     72  CB       -24.0800  -56.7370  -23.5230 C.3   116  PHE116      0.0560
     73  CG       -25.1110  -57.6120  -22.8580 C.ar  116  PHE116     -0.0200
     74  CD1      -25.6540  -57.2610  -21.6230 C.ar  116  PHE116     -0.0042
     75  CD2      -25.5800  -58.7600  -23.4880 C.ar  116  PHE116     -0.0042
     76  CE1      -26.6500  -58.0410  -21.0360 C.ar  116  PHE116     -0.0003
     77  CE2      -26.5700  -59.5460  -22.8980 C.ar  116  PHE116     -0.0003
     78  CZ       -27.0990  -59.1810  -21.6790 C.ar  116  PHE116     -0.0000
     79  N        -24.7300  -51.6650  -25.1920 N.3   118  LEU118     -0.1231
     80  CA       -25.6080  -50.5680  -24.7980 C.3   118  LEU118      0.1693
     81  C        -25.7100  -50.4060  -23.2850 C.2   118  LEU118      0.2591
     82  O        -26.2090  -49.3890  -22.8160 O.2   118  LEU118     -0.2718
     83  CB       -27.0220  -50.7380  -25.3930 C.3   118  LEU118      0.0284
     84  CG       -27.2210  -50.6880  -26.8990 C.3   118  LEU118      0.0019
     85  CD1      -28.6730  -50.5720  -27.2300 C.3   118  LEU118      0.0001
     86  CD2      -26.5290  -49.5350  -27.5050 C.3   118  LEU118      0.0001
     87  N        -25.2600  -51.4140  -22.5360 N.am  119  ALA119     -0.1980
     88  CA       -25.2650  -51.4110  -21.0870 C.3   119  ALA119      0.1597
     89  C        -24.1130  -50.5750  -20.5430 C.2   119  ALA119      0.2287
     90  O        -22.9590  -50.8060  -20.9020 O.2   119  ALA119     -0.2864
     91  CB       -25.1520  -52.8440  -20.5750 C.3   119  ALA119      0.0319
     92  N        -23.7730  -50.5750  -17.3760 N.3   121  PHE121     -0.1241
     93  CA       -23.5020  -51.4820  -16.2830 C.3   121  PHE121      0.1605
     94  C        -22.7450  -52.6800  -16.8280 C.2   121  PHE121      0.2264
     95  O        -22.7810  -52.9520  -18.0330 O.2   121  PHE121     -0.2867
     96  CB       -24.8140  -51.9270  -15.6170 C.3   121  PHE121      0.0534
     97  CG       -25.8180  -52.5710  -16.5470 C.ar  121  PHE121     -0.0203
     98  CD1      -26.7840  -51.8020  -17.1980 C.ar  121  PHE121     -0.0042
     99  CD2      -25.8040  -53.9450  -16.7680 C.ar  121  PHE121     -0.0042
    100  CE1      -27.7280  -52.4000  -18.0390 C.ar  121  PHE121     -0.0003
    101  CE2      -26.7340  -54.5410  -17.6260 C.ar  121  PHE121     -0.0003
    102  CZ       -27.7000  -53.7670  -18.2440 C.ar  121  PHE121     -0.0000
    103  N        -25.5610  -57.9840  -13.5740 N.3   124  VAL124     -0.1245
    104  CA       -26.8890  -57.9720  -12.9900 C.3   124  VAL124      0.1561
    105  C        -26.9150  -58.7150  -11.6710 C.2   124  VAL124      0.2260
    106  O        -26.2880  -59.7730  -11.5320 O.2   124  VAL124     -0.2867
    107  CB       -27.9090  -58.6470  -13.9690 C.3   124  VAL124      0.0252
    108  CG1      -29.3460  -58.5020  -13.4870 C.3   124  VAL124      0.0019
    109  CG2      -27.7760  -58.1300  -15.3950 C.3   124  VAL124      0.0019
    110  N        -40.9530  -54.6760  -12.6060 N.3   223  ASP223     -0.1239
    111  CA       -39.6130  -54.9680  -13.0760 C.3   223  ASP223      0.1674
    112  C        -38.6100  -53.8290  -12.9640 C.2   223  ASP223      0.2266
    113  O        -38.5920  -52.9240  -13.8020 O.2   223  ASP223     -0.2867
    114  CB       -39.7150  -55.4710  -14.5250 C.3   223  ASP223      0.1410
    115  CG       -38.4380  -56.0890  -15.0810 C.2   223  ASP223      0.3668
    116  OD1      -37.4290  -56.1460  -14.3470 O.co2 223  ASP223     -0.2456
    117  OD2      -38.4540  -56.5290  -16.2410 O.co2 223  ASP223     -0.2456
    118  N        -35.4430  -53.9530  -13.4670 N.3   225  GLY225     -0.1210
    119  CA       -34.4490  -54.0450  -14.5250 C.3   225  GLY225      0.1956
    120  C        -34.9410  -53.5480  -15.8730 C.2   225  GLY225      0.2612
    121  O        -34.1760  -53.5570  -16.8330 O.2   225  GLY225     -0.2717
    122  N        -36.2190  -53.1320  -15.9740 N.am  226  ALA226     -0.1965
    123  CA       -36.8330  -52.6230  -17.2080 C.3   226  ALA226      0.1728
    124  C        -36.8760  -51.0980  -17.1860 C.2   226  ALA226      0.2617
    125  O        -37.2140  -50.4890  -16.1660 O.2   226  ALA226     -0.2715
    126  CB       -38.2390  -53.1830  -17.3750 C.3   226  ALA226      0.0334
    127  N        -36.5370  -50.4850  -18.3170 N.am  227  SER227     -0.1936
    128  CA       -36.4690  -49.0340  -18.4520 C.3   227  SER227      0.2055
    129  C        -37.8320  -48.3600  -18.4970 C.2   227  SER227      0.2643
    130  O        -38.0160  -47.2620  -17.9730 O.2   227  SER227     -0.2714
    131  CB       -35.6980  -48.6660  -19.7190 C.3   227  SER227      0.2130
    132  OG       -34.3880  -49.2060  -19.7650 O.3   227  SER227     -0.2179
    133  N        -38.7700  -48.9940  -19.1680 N.am  228  TYR228     -0.1973
    134  CA       -40.0570  -48.3870  -19.4300 C.3   228  TYR228      0.1639
    135  C        -41.2270  -49.1520  -18.8580 C.2   228  TYR228      0.2290
    136  O        -41.0740  -50.1840  -18.2060 O.2   228  TYR228     -0.2864
    137  CB       -40.2430  -48.2980  -20.9690 C.3   228  TYR228      0.0560
    138  CG       -39.0350  -47.7860  -21.7260 C.ar  228  TYR228     -0.0198
    139  CD1      -38.5960  -46.4720  -21.5760 C.ar  228  TYR228     -0.0009
    140  CD2      -38.3230  -48.6180  -22.5870 C.ar  228  TYR228     -0.0009
    141  CE1      -37.4690  -46.0030  -22.2490 C.ar  228  TYR228      0.0417
    142  CE2      -37.2000  -48.1570  -23.2750 C.ar  228  TYR228      0.0417
    143  CZ       -36.7760  -46.8500  -23.1040 C.ar  228  TYR228      0.1957
    144  OH       -35.6660  -46.4080  -23.7870 O.3   228  TYR228     -0.2866
    145  N        -44.1050  -51.3210  -20.2850 N.3   230  SER230     -0.1217
    146  CA       -44.3750  -52.0390  -21.5210 C.3   230  SER230      0.1889
    147  C        -45.6670  -52.8190  -21.4250 C.2   230  SER230      0.2288
    148  O        -46.0820  -53.2050  -20.3380 O.2   230  SER230     -0.2866
    149  CB       -43.2140  -52.9600  -21.9080 C.3   230  SER230      0.2089
    150  OG       -43.1140  -54.0970  -21.0710 O.3   230  SER230     -0.2183
    151  N        -43.5930  -54.5990  -25.7580 N.3   300  MET300     -0.1245
    152  CA       -42.7520  -55.7520  -25.4690 C.3   300  MET300      0.1570
    153  C        -43.6060  -56.9880  -25.2920 C.2   300  MET300      0.2261
    154  O        -44.4000  -57.0690  -24.3580 O.2   300  MET300     -0.2867
    155  CB       -41.7930  -55.5550  -24.2910 C.3   300  MET300      0.0387
    156  CG       -40.6520  -56.5360  -24.3850 C.3   300  MET300      0.0595
    157  SD       -39.2790  -56.4640  -23.2590 S.3   300  MET300     -0.1393
    158  CE       -38.0200  -56.2570  -24.3760 C.3   300  MET300      0.0692
@<TRIPOS>BOND
     1    86    84    1
     2    85    84    1
     3    84    83    1
     4    61    62    1
     5    61    67    1
     6    57    56    2
     7    62    65    1
     8    62    63    1
     9    51    50    2
    10    67    66    1
    11   151   152    1
    12    56    55    1
    13   152   153    1
    14   152   155    1
    15    65    66    1
    16    83    80    1
    17    63    68   am
    18    63    64    2
    19   153   154    2
    20    79    80    1
    21    68    69    1
    22    55    58    1
    23    55    54    1
    24    80    81    1
    25    50    54   am
    26    50    49    1
    27   156   155    1
    28   156   157    1
    29   158   157    1
    30    70    69    1
    31    70    71    2
    32    58    60    1
    33    58    59    1
    34    69    72    1
    35   144   143    1
    36    39    38    2
    37    49    52    1
    38    49    48    1
    39    72    73    1
    40    75    77   ar
    41    75    73   ar
    42    81    82    2
    43    81    87   am
    44   142   143   ar
    45   142   140   ar
    46   143   141   ar
    47    52    53    1
    48    77    78   ar
    49    73    74   ar
    50    38    48   am
    51    38    37    1
    52   140   138   ar
    53    87    88    1
    54   141   139   ar
    55   149   146    1
    56   149   150    1
    57    36    37    1
    58   138   139   ar
    59   138   137    1
    60    78    76   ar
    61    74    76   ar
    62   146   147    1
    63   146   145    1
    64   147   148    2
    65    37    40    1
    66     7     5    1
    67    88    91    1
    68    88    89    1
    69   137   134    1
    70    16    14   am
    71    90    89    2
    72    40    41    1
    73     6     5    1
    74     5     2    1
    75    43    41   ar
    76    43    45   ar
    77   132   131    1
    78   131   128    1
    79    41    42   ar
    80    14    15    2
    81    14    13    1
    82   134   133    1
    83   134   135    1
    84   133   129   am
    85    13    12    1
    86   135   136    2
    87     2     1    1
    88     2     3    1
    89    45    46   ar
    90   129   128    1
    91   129   130    2
    92   128   127    1
    93    42    44   ar
    94   127   124   am
    95   102   100   ar
    96   102   101   ar
    97     4     3    2
    98     3     8   am
    99   100    98   ar
   100    95    94    2
   101   101    99   ar
   102    12     9    1
   103    46    44   ar
   104    46    47    1
   105     8     9    1
   106    92    93    1
   107   126   123    1
   108   123   124    1
   109   123   122    1
   110    98    97   ar
   111   124   125    2
   112   121   120    2
   113    94    93    1
   114    99    97   ar
   115     9    10    1
   116    97    96    1
   117    93    96    1
   118   117   115   ar
   119   122   120   am
   120   120   119    1
   121   109   107    1
   122    10    11    2
   123   115   114    1
   124   115   116   ar
   125    23    21    1
   126    35    34    2
   127   119   118    1
   128   114   111    1
   129    31    29   ar
   130   107   108    1
   131   107   104    1
   132   113   112    2
   133    29    30   ar
   134    29    28    1
   135    21    22    1
   136    21    18    1
   137    34    33    1
   138   103   104    1
   139    33    32    1
   140   111   112    1
   141   111   110    1
   142   104   105    1
   143    28    25    1
   144    17    18    1
   145    18    19    1
   146   105   106    2
   147    25    26    1
   148    25    24    1
   149    20    19    2
   150    26    27    2
