@<TRIPOS>MOLECULE
tmp/3oqiA00.pdb
 158 150 0 0 0
SMALL
GASTEIGER

@<TRIPOS>ATOM
      1  N         18.3940   -1.0230   45.9690 N.3    23  GLY23      -0.1210
      2  CA        18.0960   -1.4060   44.6000 C.3    23  GLY23       0.1956
      3  C         18.6140   -0.4110   43.5710 C.2    23  GLY23       0.2612
      4  O         18.4520    0.8010   43.7230 O.2    23  GLY23      -0.2717
      5  N         19.2270   -0.9270   42.5060 N.am   24  ILE24      -0.1965
      6  CA        19.7390   -0.0800   41.4210 C.3    24  ILE24       0.1727
      7  C         19.4020   -0.6860   40.0670 C.2    24  ILE24       0.2616
      8  O         19.6430   -1.8740   39.8390 O.2    24  ILE24      -0.2715
      9  CB        21.2770    0.0510   41.5020 C.3    24  ILE24       0.0290
     10  CG1       21.6880    0.7100   42.8180 C.3    24  ILE24       0.0022
     11  CG2       21.8260    0.8360   40.2990 C.3    24  ILE24       0.0023
     12  CD1       23.2080    0.7290   43.0270 C.3    24  ILE24       0.0001
     13  N         18.8260    0.1170   39.1760 N.am   25  SER25      -0.1950
     14  CA        18.6010   -0.3350   37.8060 C.3    25  SER25       0.1924
     15  C         19.3410    0.5660   36.8370 C.2    25  SER25       0.2314
     16  O         19.2420    1.7760   36.9400 O.2    25  SER25      -0.2863
     17  CB        17.1290   -0.2890   37.4420 C.3    25  SER25       0.2116
     18  OG        16.9960   -0.5660   36.0490 O.3    25  SER25      -0.2180
     19  N         18.5130    1.0600   33.9430 N.3    27  PHE27      -0.1227
     20  CA        17.5600    1.5470   32.9570 C.3    27  PHE27       0.1736
     21  C         16.4860    2.4300   33.5640 C.2    27  PHE27       0.2595
     22  O         15.4770    2.7300   32.9240 O.2    27  PHE27      -0.2718
     23  CB        16.9760    0.3650   32.1850 C.3    27  PHE27       0.0547
     24  CG        18.0340   -0.5000   31.5880 C.ar   27  PHE27      -0.0202
     25  CD1       18.6680   -0.1120   30.4300 C.ar   27  PHE27      -0.0042
     26  CD2       18.4530   -1.6610   32.2230 C.ar   27  PHE27      -0.0042
     27  CE1       19.6730   -0.8810   29.8750 C.ar   27  PHE27      -0.0003
     28  CE2       19.4610   -2.4400   31.6720 C.ar   27  PHE27      -0.0003
     29  CZ        20.0710   -2.0420   30.4930 C.ar   27  PHE27      -0.0000
     30  N         16.7250    2.8460   34.8020 N.am   28  ASN28      -0.1974
     31  CA        15.9390    3.9020   35.4250 C.3    28  ASN28       0.1688
     32  C         16.8010    5.1620   35.5380 C.2    28  ASN28       0.2292
     33  O         17.9320    5.1040   36.0150 O.2    28  ASN28      -0.2864
     34  CB        15.4380    3.4560   36.7980 C.3    28  ASN28       0.1181
     35  CG        14.5310    4.4770   37.4350 C.2    28  ASN28       0.2629
     36  OD1       14.9660    5.5660   37.7820 O.2    28  ASN28      -0.2716
     37  ND2       13.2590    4.1260   37.6040 N.am   28  ASN28      -0.0877
     38  N         21.2540   -4.5860   45.2050 N.3    53  LEU53      -0.1231
     39  CA        20.5690   -5.4640   44.2700 C.3    53  LEU53       0.1693
     40  C         20.4660   -4.7600   42.9250 C.2    53  LEU53       0.2592
     41  O         19.8370   -3.7050   42.8150 O.2    53  LEU53      -0.2718
     42  CB        19.1680   -5.8200   44.7690 C.3    53  LEU53       0.0284
     43  CG        18.4230   -6.8260   43.8830 C.3    53  LEU53       0.0019
     44  CD1       19.1130   -8.1980   43.9050 C.3    53  LEU53       0.0001
     45  CD2       16.9800   -6.9470   44.3380 C.3    53  LEU53       0.0001
     46  N         21.1120   -5.3460   41.9240 N.am   54  LEU54      -0.1966
     47  CA        21.0910   -4.8520   40.5560 C.3    54  LEU54       0.1728
     48  C         20.0530   -5.6200   39.7510 C.2    54  LEU54       0.2616
     49  O         19.6860   -6.7330   40.1000 O.2    54  LEU54      -0.2715
     50  CB        22.4610   -5.0540   39.9050 C.3    54  LEU54       0.0311
     51  CG        23.6260   -4.3800   40.6370 C.3    54  LEU54       0.0022
     52  CD1       24.9440   -4.7550   39.9670 C.3    54  LEU54       0.0001
     53  CD2       23.4440   -2.8770   40.6630 C.3    54  LEU54       0.0001
     54  N         19.5830   -5.0020   38.6770 N.am   55  ALA55      -0.1977
     55  CA        18.7300   -5.6890   37.7190 C.3    55  ALA55       0.1597
     56  C         19.4110   -6.9440   37.1700 C.2    55  ALA55       0.2287
     57  O         20.6250   -6.9560   36.9010 O.2    55  ALA55      -0.2864
     58  CB        18.3800   -4.7510   36.5810 C.3    55  ALA55       0.0319
     59  N         12.7100   -5.7810   29.1230 N.3    62  LEU62      -0.1245
     60  CA        12.2830   -4.3850   29.0660 C.3    62  LEU62       0.1561
     61  C         12.7190   -3.7250   27.7570 C.2    62  LEU62       0.2260
     62  O         11.9340   -3.0200   27.1290 O.2    62  LEU62      -0.2867
     63  CB        12.8360   -3.5880   30.2610 C.3    62  LEU62       0.0270
     64  CG        12.5070   -4.1420   31.6520 C.3    62  LEU62       0.0019
     65  CD1       12.9890   -3.1680   32.7220 C.3    62  LEU62       0.0001
     66  CD2       11.0180   -4.4090   31.8330 C.3    62  LEU62       0.0001
     67  N         19.3620   -9.7160   40.4780 N.3   105  PHE105     -0.1241
     68  CA        18.2300  -10.5530   40.8570 C.3   105  PHE105      0.1605
     69  C         18.1340  -11.8740   40.1010 C.2   105  PHE105      0.2264
     70  O         17.2600  -12.6870   40.3840 O.2   105  PHE105     -0.2867
     71  CB        16.8850   -9.7840   40.9150 C.3   105  PHE105      0.0534
     72  CG        16.3820   -9.2390   39.5920 C.ar  105  PHE105     -0.0203
     73  CD1       16.0960  -10.0750   38.5210 C.ar  105  PHE105     -0.0042
     74  CD2       16.0870   -7.8820   39.4740 C.ar  105  PHE105     -0.0042
     75  CE1       15.5830   -9.5620   37.3280 C.ar  105  PHE105     -0.0003
     76  CE2       15.5660   -7.3600   38.2890 C.ar  105  PHE105     -0.0003
     77  CZ        15.3110   -8.1950   37.2170 C.ar  105  PHE105     -0.0000
     78  N          3.0370   -3.0630   37.2760 N.3   138  MET138     -0.1245
     79  CA         4.4680   -2.8920   37.5420 C.3   138  MET138      0.1570
     80  C          5.2810   -2.9580   36.2540 C.2   138  MET138      0.2261
     81  O          6.2630   -2.2330   36.0990 O.2   138  MET138     -0.2867
     82  CB         5.0000   -3.9450   38.5260 C.3   138  MET138      0.0387
     83  CG         4.5600   -3.7500   39.9530 C.3   138  MET138      0.0595
     84  SD         5.5030   -4.8140   41.0740 S.3   138  MET138     -0.1393
     85  CE         7.1150   -4.0800   41.0670 C.3   138  MET138      0.0692
     86  N          5.0160    0.2570   34.4020 N.3   141  ALA141     -0.1231
     87  CA         5.8180    1.2720   35.0760 C.3   141  ALA141      0.1694
     88  C          7.3050    1.0660   34.8240 C.2   141  ALA141      0.2591
     89  O          8.0700    2.0060   34.8670 O.2   141  ALA141     -0.2718
     90  CB         5.5120    1.2820   36.5870 C.3   141  ALA141      0.0304
     91  N          7.7110   -0.1610   34.5120 N.am  142  ALA142     -0.1980
     92  CA         9.1320   -0.4300   34.2870 C.3   142  ALA142      0.1597
     93  C          9.5990   -0.0240   32.8940 C.2   142  ALA142      0.2287
     94  O         10.7950    0.1770   32.6710 O.2   142  ALA142     -0.2864
     95  CB         9.4410   -1.9120   34.5490 C.3   142  ALA142      0.0319
     96  N         10.3390   -9.4870   33.8120 N.3   168  TYR168     -0.1241
     97  CA        11.2210   -8.7280   34.6860 C.3   168  TYR168      0.1605
     98  C         10.6150   -8.6220   36.0760 C.2   168  TYR168      0.2264
     99  O         11.3050   -8.7800   37.0840 O.2   168  TYR168     -0.2867
    100  CB        11.3810   -7.3340   34.0930 C.3   168  TYR168      0.0534
    101  CG        12.2290   -6.3520   34.8700 C.ar  168  TYR168     -0.0201
    102  CD1       13.5810   -6.2180   34.5990 C.ar  168  TYR168     -0.0009
    103  CD2       11.6680   -5.5280   35.8590 C.ar  168  TYR168     -0.0009
    104  CE1       14.3670   -5.3030   35.2790 C.ar  168  TYR168      0.0417
    105  CE2       12.4560   -4.6030   36.5420 C.ar  168  TYR168      0.0417
    106  CZ        13.8030   -4.4970   36.2340 C.ar  168  TYR168      0.1957
    107  OH        14.6140   -3.5970   36.8830 O.3   168  TYR168     -0.2866
    108  N         12.0960  -10.2190   39.6820 N.3   172  GLU172     -0.1245
    109  CA        12.5560   -9.3680   40.7780 C.3   172  GLU172      0.1567
    110  C         11.7270   -9.5610   42.0500 C.2   172  GLU172      0.2260
    111  O         12.2310   -9.3740   43.1410 O.2   172  GLU172     -0.2867
    112  CB        12.5620   -7.8780   40.3730 C.3   172  GLU172      0.0388
    113  CG        11.1680   -7.2810   40.2980 C.3   172  GLU172      0.1160
    114  CD        11.1270   -5.8250   39.8760 C.2   172  GLU172      0.3649
    115  OE1       12.1510   -5.1140   39.9780 O.co2 172  GLU172     -0.2457
    116  OE2       10.0380   -5.3990   39.4470 O.co2 172  GLU172     -0.2457
    117  N         11.4630   -8.5120   46.7490 N.3   176  PHE176     -0.1241
    118  CA        10.5450   -7.5500   47.3330 C.3   176  PHE176      0.1605
    119  C          9.7550   -8.1800   48.4800 C.2   176  PHE176      0.2264
    120  O          9.1720   -7.4680   49.2960 O.2   176  PHE176     -0.2867
    121  CB         9.5240   -7.0810   46.2800 C.3   176  PHE176      0.0534
    122  CG        10.0430   -6.0660   45.2960 C.ar  176  PHE176     -0.0203
    123  CD1        9.5010   -4.7810   45.2660 C.ar  176  PHE176     -0.0042
    124  CD2       11.0200   -6.4000   44.3630 C.ar  176  PHE176     -0.0042
    125  CE1        9.9340   -3.8260   44.3410 C.ar  176  PHE176     -0.0003
    126  CE2       11.4730   -5.4450   43.4380 C.ar  176  PHE176     -0.0003
    127  CZ        10.9240   -4.1620   43.4230 C.ar  176  PHE176     -0.0000
    128  N         14.2030   -3.3690   51.5370 N.3   190  LEU190     -0.1245
    129  CA        14.5800   -3.0330   50.1660 C.3   190  LEU190      0.1561
    130  C         14.3510   -1.5380   50.0130 C.2   190  LEU190      0.2260
    131  O         13.2420   -1.0550   50.2360 O.2   190  LEU190     -0.2867
    132  CB        13.7110   -3.7980   49.1700 C.3   190  LEU190      0.0270
    133  CG        13.8730   -3.4290   47.6890 C.3   190  LEU190      0.0019
    134  CD1       15.2710   -3.7500   47.1710 C.3   190  LEU190      0.0001
    135  CD2       12.8110   -4.1620   46.8580 C.3   190  LEU190      0.0001
    136  N         14.2990    1.9000   47.7250 N.3   192  TYR192     -0.1241
    137  CA        14.1020    2.3230   46.3440 C.3   192  TYR192      0.1605
    138  C         13.3180    3.6370   46.3630 C.2   192  TYR192      0.2264
    139  O         12.6750    3.9610   47.3620 O.2   192  TYR192     -0.2867
    140  CB        13.3730    1.2270   45.5390 C.3   192  TYR192      0.0534
    141  CG        13.5980    1.3500   44.0560 C.ar  192  TYR192     -0.0201
    142  CD1       12.5410    1.6710   43.1970 C.ar  192  TYR192     -0.0009
    143  CD2       14.8670    1.1620   43.5100 C.ar  192  TYR192     -0.0009
    144  CE1       12.7510    1.8000   41.8340 C.ar  192  TYR192      0.0417
    145  CE2       15.0760    1.2800   42.1300 C.ar  192  TYR192      0.0417
    146  CZ        14.0030    1.5990   41.3150 C.ar  192  TYR192      0.1957
    147  OH        14.1990    1.7370   39.9560 O.3   192  TYR192     -0.2866
    148  N         10.8570    4.8000   44.2470 N.3   194  ARG194     -0.1245
    149  CA         9.4470    4.8410   43.8470 C.3   194  ARG194      0.1563
    150  C          8.5640    4.2350   44.9200 C.2   194  ARG194      0.2260
    151  O          8.9830    3.3370   45.6450 O.2   194  ARG194     -0.2867
    152  CB         9.2170    4.0840   42.5370 C.3   194  ARG194      0.0307
    153  CG         9.8020    4.7510   41.3200 C.3   194  ARG194      0.0489
    154  CD         9.3740    3.9880   40.0920 C.3   194  ARG194      0.2205
    155  NE         9.8390    4.5810   38.8470 N.pl3 194  ARG194     -0.0865
    156  CZ         9.5010    4.1060   37.6550 C.cat 194  ARG194      0.5346
    157  NH1        8.6790    3.0610   37.5890 N.pl3 194  ARG194      0.1354
    158  NH2        9.9660    4.6640   36.5440 N.pl3 194  ARG194      0.1354
@<TRIPOS>BOND
     1    62    61    2
     2    61    60    1
     3    60    59    1
     4    60    63    1
     5    27    25   ar
     6    27    29   ar
     7    63    64    1
     8    25    24   ar
     9    29    28   ar
    10    24    23    1
    11    24    26   ar
    12    64    66    1
    13    64    65    1
    14    28    26   ar
    15    23    20    1
    16    94    93    2
    17    93    92    1
    18    22    21    2
    19    20    21    1
    20    20    19    1
    21    21    30   am
    22    96    97    1
    23   100    97    1
    24   100   101    1
    25    92    91    1
    26    92    95    1
    27    86    87    1
    28    91    88   am
    29   102   101   ar
    30   102   104   ar
    31    97    98    1
    32    30    31    1
    33    88    89    2
    34    88    87    1
    35   101   103   ar
    36    87    90    1
    37   104   106   ar
    38    31    32    1
    39    31    34    1
    40    32    33    2
    41   103   105   ar
    42    18    17    1
    43    98    99    2
    44    81    80    2
    45   106   105   ar
    46   106   107    1
    47    80    79    1
    48   158   156    1
    49    58    55    1
    50    34    35    1
    51    15    16    2
    52    15    14    1
    53    57    56    2
    54    56    55    1
    55    77    75   ar
    56    77    76   ar
    57    78    79    1
    58    75    73   ar
    59    35    37   am
    60    35    36    2
    61    17    14    1
    62    79    82    1
    63   157   156    1
    64   156   155    2
    65    55    54    1
    66    14    13    1
    67    76    74   ar
    68    73    72   ar
    69    82    83    1
    70    54    48   am
    71   155   154    1
    72    13     7   am
    73   116   114   ar
    74    74    72   ar
    75    72    71    1
    76   108   109    1
    77    48    49    2
    78    48    47    1
    79     8     7    2
    80   114   115   ar
    81   114   113    1
    82    50    47    1
    83    50    51    1
    84    83    84    1
    85   147   146    1
    86    52    51    1
    87     7     6    1
    88   154   153    1
    89    69    70    2
    90    69    68    1
    91   113   112    1
    92    11     9    1
    93   112   109    1
    94    67    68    1
    95    47    46    1
    96    51    53    1
    97   109   110    1
    98    68    71    1
    99    85    84    1
   100   146   144   ar
   101   146   145   ar
   102   153   152    1
   103     6     9    1
   104     6     5    1
   105     9    10    1
   106   144   142   ar
   107    46    40   am
   108   110   111    2
   109   145   143   ar
   110     5     3   am
   111   152   149    1
   112    41    40    2
   113    10    12    1
   114    40    39    1
   115   142   141   ar
   116   127   126   ar
   117   127   125   ar
   118   126   124   ar
   119   143   141   ar
   120     3     4    2
   121     3     2    1
   122   149   148    1
   123   149   150    1
   124    43    44    1
   125    43    45    1
   126    43    42    1
   127   141   140    1
   128    39    42    1
   129    39    38    1
   130   125   123   ar
   131   124   122   ar
   132     2     1    1
   133   150   151    2
   134   123   122   ar
   135   122   121    1
   136   140   137    1
   137   121   118    1
   138   137   138    1
   139   137   136    1
   140   138   139    2
   141   117   118    1
   142   135   133    1
   143   134   133    1
   144   118   119    1
   145   133   132    1
   146   119   120    2
   147   132   129    1
   148   130   129    1
   149   130   131    2
   150   129   128    1
