@<TRIPOS>MOLECULE
tmp/3oqjB00.pdb
 179 174 0 0 0
SMALL
GASTEIGER

@<TRIPOS>ATOM
      1  N        -23.7390  -19.5290    7.1450 N.3    23  GLY23      -0.1210
      2  CA       -24.0630  -19.9100    5.7810 C.3    23  GLY23       0.1956
      3  C        -23.4050  -18.9960    4.7710 C.2    23  GLY23       0.2612
      4  O        -23.4110  -17.7710    4.9280 O.2    23  GLY23      -0.2717
      5  N        -22.8050  -19.5840    3.7430 N.am   24  ILE24      -0.1965
      6  CA       -22.2120  -18.7910    2.6730 C.3    24  ILE24       0.1727
      7  C        -22.7090  -19.3360    1.3500 C.2    24  ILE24       0.2616
      8  O        -22.4790  -20.4960    1.0320 O.2    24  ILE24      -0.2715
      9  CB       -20.6670  -18.8130    2.7300 C.3    24  ILE24       0.0290
     10  CG1      -20.1770  -18.1390    4.0100 C.3    24  ILE24       0.0022
     11  CG2      -20.0530  -18.0960    1.5390 C.3    24  ILE24       0.0023
     12  CD1      -18.6590  -18.2110    4.2150 C.3    24  ILE24       0.0001
     13  N        -23.4270  -18.5190    0.5950 N.am   25  SER25      -0.1950
     14  CA       -23.9550  -18.9770   -0.6850 C.3    25  SER25       0.1924
     15  C        -23.0170  -18.6240   -1.8210 C.2    25  SER25       0.2314
     16  O        -22.4720  -17.5310   -1.8490 O.2    25  SER25      -0.2863
     17  CB       -25.3170  -18.3650   -0.9660 C.3    25  SER25       0.2116
     18  OG       -25.5750  -18.3990   -2.3660 O.3    25  SER25      -0.2180
     19  N        -25.2550  -15.8340   -4.0370 N.3    28  ASN28      -0.1240
     20  CA       -25.7980  -14.6090   -3.4800 C.3    28  ASN28       0.1653
     21  C        -24.8170  -13.4190   -3.5690 C.2    28  ASN28       0.2266
     22  O        -23.6620  -13.5040   -3.1490 O.2    28  ASN28      -0.2867
     23  CB       -26.2710  -14.8490   -2.0550 C.3    28  ASN28       0.1155
     24  CG       -27.1490  -13.7390   -1.5560 C.2    28  ASN28       0.2627
     25  OD1      -26.6700  -12.6440   -1.2680 O.2    28  ASN28      -0.2716
     26  ND2      -28.4450  -14.0010   -1.4710 N.am   28  ASN28      -0.0877
     27  N        -20.9790  -23.2480    6.4590 N.3    53  LEU53      -0.1231
     28  CA       -21.7340  -24.1060    5.5570 C.3    53  LEU53       0.1693
     29  C        -21.6940  -23.5230    4.1620 C.2    53  LEU53       0.2592
     30  O        -22.1570  -22.4160    3.9410 O.2    53  LEU53      -0.2718
     31  CB       -23.1850  -24.2710    6.0290 C.3    53  LEU53       0.0284
     32  CG       -24.0380  -25.1850    5.1400 C.3    53  LEU53       0.0019
     33  CD1      -23.5290  -26.6230    5.1510 C.3    53  LEU53       0.0001
     34  CD2      -25.4930  -25.1380    5.5360 C.3    53  LEU53       0.0001
     35  N        -21.1100  -24.2680    3.2300 N.am   54  LEU54      -0.1966
     36  CA       -21.0580  -23.8750    1.8310 C.3    54  LEU54       0.1728
     37  C        -22.0940  -24.6610    1.0340 C.2    54  LEU54       0.2616
     38  O        -22.6040  -25.6600    1.5120 O.2    54  LEU54      -0.2715
     39  CB       -19.6620  -24.1420    1.2660 C.3    54  LEU54       0.0311
     40  CG       -18.5480  -23.3800    1.9690 C.3    54  LEU54       0.0022
     41  CD1      -17.2120  -23.5750    1.2560 C.3    54  LEU54       0.0001
     42  CD2      -18.9100  -21.8980    2.0630 C.3    54  LEU54       0.0001
     43  N        -22.4090  -24.2090   -0.1760 N.am   55  ALA55      -0.1977
     44  CA       -23.3410  -24.9340   -1.0360 C.3    55  ALA55       0.1597
     45  C        -22.7550  -26.2610   -1.4840 C.2    55  ALA55       0.2287
     46  O        -21.5480  -26.3770   -1.6990 O.2    55  ALA55      -0.2864
     47  CB       -23.7100  -24.1050   -2.2500 C.3    55  ALA55       0.0319
     48  N        -22.8960  -28.7680    1.9920 N.3   105  PHE105     -0.1241
     49  CA       -24.0400  -29.5990    2.3690 C.3   105  PHE105      0.1605
     50  C        -24.1350  -30.8930    1.5770 C.2   105  PHE105      0.2264
     51  O        -25.1350  -31.5920    1.6640 O.2   105  PHE105     -0.2867
     52  CB       -25.3860  -28.8380    2.4100 C.3   105  PHE105      0.0534
     53  CG       -25.8230  -28.2470    1.0980 C.ar  105  PHE105     -0.0203
     54  CD1      -26.0340  -29.0450   -0.0110 C.ar  105  PHE105     -0.0042
     55  CD2      -26.0830  -26.8900    1.0010 C.ar  105  PHE105     -0.0042
     56  CE1      -26.4550  -28.4940   -1.2150 C.ar  105  PHE105     -0.0003
     57  CE2      -26.5170  -26.3240   -0.1960 C.ar  105  PHE105     -0.0003
     58  CZ       -26.7080  -27.1250   -1.3050 C.ar  105  PHE105     -0.0000
     59  N        -39.1860  -21.2510   -1.7160 N.3   138  MET138     -0.1245
     60  CA       -37.8370  -21.1030   -1.2010 C.3   138  MET138      0.1570
     61  C        -36.7710  -21.1860   -2.3140 C.2   138  MET138      0.2261
     62  O        -35.7520  -20.4870   -2.2690 O.2   138  MET138     -0.2867
     63  CB       -37.5740  -22.1270   -0.0910 C.3   138  MET138      0.0387
     64  CG       -36.3240  -21.8410    0.7260 C.3   138  MET138      0.0595
     65  SD       -36.1900  -22.9610    2.1310 S.3   138  MET138     -0.1393
     66  CE       -34.4910  -22.6930    2.6430 C.3   138  MET138      0.0692
     67  N        -36.7540  -17.7960   -4.0690 N.3   141  ALA141     -0.1231
     68  CA       -35.9270  -16.8530   -3.3370 C.3   141  ALA141      0.1694
     69  C        -34.4450  -17.0870   -3.6120 C.2   141  ALA141      0.2591
     70  O        -33.6640  -16.1320   -3.6760 O.2   141  ALA141     -0.2718
     71  CB       -36.2160  -16.9390   -1.8270 C.3   141  ALA141      0.0304
     72  N        -34.0530  -18.3530   -3.7640 N.am  142  ALA142     -0.1980
     73  CA       -32.6450  -18.6940   -4.0030 C.3   142  ALA142      0.1597
     74  C        -32.1850  -18.1750   -5.3740 C.2   142  ALA142      0.2287
     75  O        -31.0600  -17.6910   -5.5340 O.2   142  ALA142     -0.2864
     76  CB       -32.4300  -20.2140   -3.8890 C.3   142  ALA142      0.0319
     77  N        -31.9610  -28.0810   -4.8970 N.3   166  TYR166     -0.1227
     78  CA       -31.0210  -27.3500   -4.0360 C.3   166  TYR166      0.1736
     79  C        -31.6020  -27.1140   -2.6460 C.2   166  TYR166      0.2595
     80  O        -30.9220  -27.2840   -1.6430 O.2   166  TYR166     -0.2718
     81  CB       -30.7040  -26.0160   -4.7080 C.3   166  TYR166      0.0548
     82  CG       -29.8110  -25.0510   -3.9650 C.ar  166  TYR166     -0.0200
     83  CD1      -28.4340  -25.1490   -4.0510 C.ar  166  TYR166     -0.0009
     84  CD2      -30.3480  -23.9930   -3.2400 C.ar  166  TYR166     -0.0009
     85  CE1      -27.5970  -24.2420   -3.4000 C.ar  166  TYR166      0.0417
     86  CE2      -29.5280  -23.0730   -2.5900 C.ar  166  TYR166      0.0417
     87  CZ       -28.1500  -23.2010   -2.6760 C.ar  166  TYR166      0.1957
     88  OH       -27.3270  -22.3010   -2.0360 O.3   166  TYR166     -0.2866
     89  N        -32.8660  -26.7170   -2.5870 N.am  167  VAL167     -0.1980
     90  CA       -33.5210  -26.4950   -1.3050 C.3   167  VAL167      0.1595
     91  C        -33.6480  -27.7960   -0.4990 C.2   167  VAL167      0.2287
     92  O        -33.4370  -27.8220    0.7060 O.2   167  VAL167     -0.2864
     93  CB       -34.9090  -25.8410   -1.5030 C.3   167  VAL167      0.0276
     94  CG1      -35.7460  -25.9680   -0.2480 C.3   167  VAL167      0.0022
     95  CG2      -34.7410  -24.3810   -1.8900 C.3   167  VAL167      0.0022
     96  N        -30.2020  -28.7440    1.0730 N.3   170  GLU170     -0.1245
     97  CA       -29.6860  -27.9170    2.1650 C.3   170  GLU170      0.1567
     98  C        -30.5650  -27.9720    3.4250 C.2   170  GLU170      0.2260
     99  O        -30.0770  -27.7460    4.5260 O.2   170  GLU170     -0.2867
    100  CB       -29.5240  -26.4640    1.7070 C.3   170  GLU170      0.0388
    101  CG       -30.8730  -25.7850    1.4490 C.3   170  GLU170      0.1160
    102  CD       -30.7620  -24.3020    1.0820 C.2   170  GLU170      0.3649
    103  OE1      -29.6550  -23.7310    1.1550 O.co2 170  GLU170     -0.2457
    104  OE2      -31.7980  -23.7070    0.7260 O.co2 170  GLU170     -0.2457
    105  N        -30.9580  -26.8340    8.0480 N.3   174  PHE174     -0.1241
    106  CA       -31.8540  -25.8650    8.6730 C.3   174  PHE174      0.1605
    107  C        -32.6420  -26.4350    9.8480 C.2   174  PHE174      0.2264
    108  O        -33.1480  -25.6750   10.6730 O.2   174  PHE174     -0.2867
    109  CB       -32.8590  -25.3140    7.6740 C.3   174  PHE174      0.0534
    110  CG       -32.2750  -24.3790    6.6650 C.ar  174  PHE174     -0.0203
    111  CD1      -32.6580  -23.0410    6.6440 C.ar  174  PHE174     -0.0042
    112  CD2      -31.3750  -24.8340    5.7160 C.ar  174  PHE174     -0.0042
    113  CE1      -32.1470  -22.1750    5.6960 C.ar  174  PHE174     -0.0003
    114  CE2      -30.8480  -23.9710    4.7680 C.ar  174  PHE174     -0.0003
    115  CZ       -31.2320  -22.6410    4.7530 C.ar  174  PHE174     -0.0000
    116  N        -28.1860  -21.5700   12.8040 N.3   188  LEU188     -0.1245
    117  CA       -27.7740  -21.3370   11.4350 C.3   188  LEU188      0.1561
    118  C        -27.9380  -19.8520   11.1760 C.2   188  LEU188      0.2260
    119  O        -29.0130  -19.3000   11.3650 O.2   188  LEU188     -0.2867
    120  CB       -28.5990  -22.1710   10.4640 C.3   188  LEU188      0.0270
    121  CG       -28.4060  -21.9430    8.9610 C.3   188  LEU188      0.0019
    122  CD1      -26.9540  -22.1820    8.5500 C.3   188  LEU188      0.0001
    123  CD2      -29.3450  -22.8570    8.1940 C.3   188  LEU188      0.0001
    124  N        -27.6920  -16.4890    8.7900 N.3   190  TYR190     -0.1241
    125  CA       -27.8330  -16.1200    7.3970 C.3   190  TYR190      0.1605
    126  C        -28.6120  -14.8110    7.3470 C.2   190  TYR190      0.2264
    127  O        -29.3090  -14.4700    8.3070 O.2   190  TYR190     -0.2867
    128  CB       -28.5410  -17.2430    6.6230 C.3   190  TYR190      0.0534
    129  CG       -28.3490  -17.1480    5.1260 C.ar  190  TYR190     -0.0201
    130  CD1      -27.0850  -17.2950    4.5630 C.ar  190  TYR190     -0.0009
    131  CD2      -29.4290  -16.9020    4.2720 C.ar  190  TYR190     -0.0009
    132  CE1      -26.8910  -17.2020    3.1930 C.ar  190  TYR190      0.0417
    133  CE2      -29.2460  -16.8050    2.8930 C.ar  190  TYR190      0.0417
    134  CZ       -27.9760  -16.9580    2.3570 C.ar  190  TYR190      0.1957
    135  OH       -27.7700  -16.8740    0.9990 O.3   190  TYR190     -0.2866
    136  N        -30.9790  -13.7470    5.0830 N.3   192  ARG192     -0.1231
    137  CA       -32.3470  -13.7660    4.5710 C.3   192  ARG192      0.1679
    138  C        -33.3050  -14.2550    5.6490 C.2   192  ARG192      0.2434
    139  O        -32.9220  -15.0280    6.5290 O.2   192  ARG192     -0.2733
    140  CB       -32.4690  -14.6790    3.3530 C.3   192  ARG192      0.0321
    141  CG       -31.7560  -14.1840    2.1350 C.3   192  ARG192      0.0489
    142  CD       -32.6120  -13.2440    1.3360 C.3   192  ARG192      0.2205
    143  NE       -32.0580  -13.0490    0.0030 N.pl3 192  ARG192     -0.0865
    144  CZ       -32.3670  -13.7900   -1.0540 C.cat 192  ARG192      0.5346
    145  NH1      -33.2490  -14.7810   -0.9460 N.pl3 192  ARG192      0.1354
    146  NH2      -31.7940  -13.5330   -2.2210 N.pl3 192  ARG192      0.1354
    147  N        -34.5550  -13.7880    5.5860 N.am  193  PRO193     -0.2718
    148  CA       -35.5920  -14.3840    6.4170 C.3   193  PRO193      0.1535
    149  C        -35.8550  -15.7900    5.9140 C.2   193  PRO193      0.2598
    150  O        -35.6800  -16.0570    4.7250 O.2   193  PRO193     -0.2715
    151  CB       -36.8080  -13.4750    6.1650 C.3   193  PRO193      0.0310
    152  CG       -36.5400  -12.8300    4.8540 C.3   193  PRO193      0.0237
    153  CD       -35.0560  -12.6410    4.8030 C.3   193  PRO193      0.0939
    154  N        -36.2460  -16.6800    6.8160 N.am  194  TRP194     -0.1974
    155  CA       -36.6010  -18.0460    6.4540 C.3   194  TRP194      0.1640
    156  C        -38.1030  -18.2440    6.6850 C.2   194  TRP194      0.2290
    157  O        -38.5340  -18.7350    7.7300 O.2   194  TRP194     -0.2864
    158  CB       -35.7680  -19.0240    7.2830 C.3   194  TRP194      0.0576
    159  CG       -35.9450  -20.4730    6.9290 C.ar  194  TRP194      0.0006
    160  CD1      -36.1230  -21.0110    5.6770 C.ar  194  TRP194      0.0946
    161  CD2      -35.9700  -21.5730    7.8430 C.ar  194  TRP194      0.0152
    162  NE1      -36.2460  -22.3760    5.7640 N.ar  194  TRP194     -0.2442
    163  CE2      -36.1620  -22.7440    7.0840 C.ar  194  TRP194      0.0810
    164  CE3      -35.8560  -21.6800    9.2330 C.ar  194  TRP194      0.0012
    165  CZ2      -36.2380  -24.0030    7.6720 C.ar  194  TRP194      0.0191
    166  CZ3      -35.9370  -22.9350    9.8120 C.ar  194  TRP194      0.0001
    167  CH2      -36.1190  -24.0760    9.0350 C.ar  194  TRP194      0.0015
    168  N        -32.6850  -20.6630   13.9020 N.3   215  TYR215     -0.1241
    169  CA       -32.2800  -19.8820   12.7520 C.3   215  TYR215      0.1605
    170  C        -32.0170  -18.4790   13.2740 C.2   215  TYR215      0.2264
    171  O        -32.8130  -17.9230   14.0310 O.2   215  TYR215     -0.2867
    172  CB       -33.3670  -19.8690   11.6790 C.3   215  TYR215      0.0534
    173  CG       -32.9630  -19.2120   10.3660 C.ar  215  TYR215     -0.0201
    174  CD1      -32.3440  -19.9510    9.3530 C.ar  215  TYR215     -0.0009
    175  CD2      -33.2110  -17.8670   10.1320 C.ar  215  TYR215     -0.0009
    176  CE1      -31.9860  -19.3750    8.1480 C.ar  215  TYR215      0.0417
    177  CE2      -32.8540  -17.2730    8.9280 C.ar  215  TYR215      0.0417
    178  CZ       -32.2430  -18.0350    7.9370 C.ar  215  TYR215      0.1957
    179  OH       -31.8930  -17.4530    6.7340 O.3   215  TYR215     -0.2866
@<TRIPOS>BOND
     1    75    74    2
     2    74    73    1
     3    77    78    1
     4    81    78    1
     5    81    82    1
     6    67    68    1
     7    83    82   ar
     8    83    85   ar
     9    19    20    1
    10    78    79    1
    11    73    76    1
    12    73    72    1
    13    82    84   ar
    14    72    69   am
    15    70    69    2
    16    69    68    1
    17    21    20    1
    18    21    22    2
    19    20    23    1
    20    85    87   ar
    21    68    71    1
    22    84    86   ar
    23    87    86   ar
    24    87    88    1
    25    79    89   am
    26    79    80    2
    27    89    90    1
    28    18    17    1
    29    61    62    2
    30    61    60    1
    31    47    44    1
    32   146   144    1
    33    23    24    1
    34    95    93    1
    35    16    15    2
    36    15    14    1
    37    59    60    1
    38    46    45    2
    39    24    26   am
    40    24    25    2
    41    93    90    1
    42    93    94    1
    43    45    44    1
    44    58    56   ar
    45    58    57   ar
    46    90    91    1
    47    56    54   ar
    48    60    63    1
    49   144   145    1
    50   144   143    2
    51    44    43    1
    52    17    14    1
    53    14    13    1
    54    91    92    2
    55    57    55   ar
    56    43    37   am
    57    63    64    1
    58    54    53   ar
    59   143   142    1
    60    13     7   am
    61   104   102   ar
    62    64    65    1
    63   135   134    1
    64    55    53   ar
    65     8     7    2
    66    37    38    2
    67    37    36    1
    68    96    97    1
    69   102   103   ar
    70   102   101    1
    71    53    52    1
    72    41    40    1
    73    39    36    1
    74    39    40    1
    75   142   141    1
    76     7     6    1
    77   101   100    1
    78    11     9    1
    79    50    51    2
    80    50    49    1
    81   100    97    1
    82    36    35    1
    83    40    42    1
    84    48    49    1
    85    65    66    1
    86   141   140    1
    87    97    98    1
    88   134   133   ar
    89   134   132   ar
    90    49    52    1
    91     6     9    1
    92     6     5    1
    93     9    10    1
    94   133   131   ar
    95   132   130   ar
    96    35    29   am
    97   140   137    1
    98    98    99    2
    99     5     3   am
   100    30    29    2
   101    10    12    1
   102    29    28    1
   103   131   129   ar
   104   130   129   ar
   105   137   136    1
   106   137   138    1
   107   150   149    2
   108   115   114   ar
   109   115   113   ar
   110   114   112   ar
   111     3     4    2
   112     3     2    1
   113   153   152    1
   114   153   147    1
   115   152   151    1
   116   129   128    1
   117    32    33    1
   118    32    34    1
   119    32    31    1
   120    28    31    1
   121    28    27    1
   122   147   138   am
   123   147   148    1
   124   138   139    2
   125   160   162   ar
   126   160   159   ar
   127   113   111   ar
   128   112   110   ar
   129   162   163   ar
   130     2     1    1
   131   149   148    1
   132   149   154   am
   133   151   148    1
   134   155   156    1
   135   155   154    1
   136   155   158    1
   137   128   125    1
   138   111   110   ar
   139   110   109    1
   140   156   157    2
   141   179   178    1
   142   159   158    1
   143   159   161   ar
   144   163   165   ar
   145   163   161   ar
   146   126   125    1
   147   126   127    2
   148   125   124    1
   149   165   167   ar
   150   109   106    1
   151   161   164   ar
   152   178   176   ar
   153   178   177   ar
   154   105   106    1
   155   176   174   ar
   156   123   121    1
   157   122   121    1
   158   106   107    1
   159   177   175   ar
   160   121   120    1
   161   167   166   ar
   162   164   166   ar
   163   174   173   ar
   164   107   108    2
   165   175   173   ar
   166   173   172    1
   167   120   117    1
   168   118   119    2
   169   118   117    1
   170   117   116    1
   171   172   169    1
   172   169   170    1
   173   169   168    1
   174   170   171    2
