@<TRIPOS>MOLECULE
tmp/3oqkA01.pdb
 182 176 0 0 0
SMALL
GASTEIGER

@<TRIPOS>ATOM
      1  N        -18.4800  -27.9920   -3.9970 N.3    15  THR15      -0.1203
      2  CA       -17.1330  -27.4540   -3.8620 C.3    15  THR15       0.1994
      3  C        -16.8710  -26.7610   -2.5260 C.2    15  THR15       0.2617
      4  O        -15.7290  -26.6330   -2.1250 O.2    15  THR15      -0.2717
      5  CB       -16.7850  -26.5330   -5.0330 C.3    15  THR15       0.1784
      6  OG1      -17.7150  -25.4370   -5.1060 O.3    15  THR15      -0.2211
      7  CG2      -16.7020  -27.2680   -6.3350 C.3    15  THR15       0.0376
      8  N        -17.8950  -26.2360   -1.8930 N.am   16  GLN16      -0.1979
      9  CA       -17.7260  -25.5100   -0.6470 C.3    16  GLN16       0.1601
     10  C        -18.7170  -26.0360    0.3700 C.2    16  GLN16       0.2287
     11  O        -19.9250  -26.0640    0.1240 O.2    16  GLN16      -0.2864
     12  CB       -17.9290  -23.9980   -0.8540 C.3    16  GLN16       0.0394
     13  CG       -17.0130  -23.4040   -1.9100 C.3    16  GLN16       0.0908
     14  CD       -17.2460  -21.9460   -2.1130 C.2    16  GLN16       0.2608
     15  OE1      -17.5820  -21.2210   -1.1720 O.2    16  GLN16      -0.2717
     16  NE2      -17.0270  -21.4880   -3.3460 N.am   16  GLN16      -0.0878
     17  N        -15.5760  -22.4500    6.7630 N.3    33  VAL33      -0.1245
     18  CA       -15.1330  -23.7700    6.3260 C.3    33  VAL33       0.1561
     19  C        -14.3700  -24.3340    7.5250 C.2    33  VAL33       0.2260
     20  O        -13.5980  -23.6040    8.1770 O.2    33  VAL33      -0.2867
     21  CB       -14.2120  -23.6700    5.0970 C.3    33  VAL33       0.0252
     22  CG1      -13.4080  -24.9450    4.8930 C.3    33  VAL33       0.0019
     23  CG2      -15.0470  -23.3830    3.8700 C.3    33  VAL33       0.0019
     24  N        -11.5530  -26.6950    8.3240 N.3    35  ASP35      -0.1239
     25  CA       -10.4110  -27.1310    7.5380 C.3    35  ASP35       0.1674
     26  C         -9.3340  -27.9030    8.3110 C.2    35  ASP35       0.2266
     27  O         -8.6010  -27.3080    9.1040 O.2    35  ASP35      -0.2867
     28  CB        -9.8130  -25.8810    6.8550 C.3    35  ASP35       0.1410
     29  CG        -8.5590  -26.1310    6.0660 C.2    35  ASP35       0.3668
     30  OD1       -8.4000  -27.2410    5.5590 O.co2  35  ASP35      -0.2456
     31  OD2       -7.7470  -25.1920    5.9270 O.co2  35  ASP35      -0.2456
     32  N         -6.7120  -29.0650    7.0420 N.3    37  GLY37      -0.1210
     33  CA        -5.4480  -28.7130    6.4170 C.3    37  GLY37       0.1956
     34  C         -4.7490  -27.5250    7.0370 C.2    37  GLY37       0.2612
     35  O         -3.6400  -27.2000    6.6210 O.2    37  GLY37      -0.2717
     36  N         -5.3970  -26.8400    7.9890 N.am   38  SER38      -0.1952
     37  CA        -4.8450  -25.6600    8.6460 C.3    38  SER38       0.1924
     38  C         -5.3050  -25.6190   10.1000 C.2    38  SER38       0.2314
     39  O         -6.1620  -26.4010   10.5150 O.2    38  SER38      -0.2863
     40  CB        -5.1750  -24.3750    7.8840 C.3    38  SER38       0.2116
     41  OG        -6.5550  -24.0720    7.9540 O.3    38  SER38      -0.2180
     42  N         -9.9680  -17.6050   11.5400 N.3    42  TRP42      -0.1241
     43  CA        -9.9880  -16.2290   11.0570 C.3    42  TRP42       0.1605
     44  C        -11.3260  -15.8980   10.4250 C.2    42  TRP42       0.2264
     45  O        -11.9770  -16.7620    9.8310 O.2    42  TRP42      -0.2867
     46  CB        -8.8070  -15.8840   10.1200 C.3    42  TRP42       0.0550
     47  CG        -8.8610  -16.5460    8.7700 C.ar   42  TRP42       0.0003
     48  CD1       -8.1990  -17.6750    8.3950 C.ar   42  TRP42       0.0946
     49  CD2       -9.5630  -16.0850    7.5970 C.ar   42  TRP42       0.0152
     50  NE1       -8.4620  -17.9710    7.0780 N.ar   42  TRP42      -0.2442
     51  CE2       -9.2970  -17.0100    6.5630 C.ar   42  TRP42       0.0810
     52  CE3      -10.4150  -15.0030    7.3290 C.ar   42  TRP42       0.0012
     53  CZ2       -9.8350  -16.8710    5.2850 C.ar   42  TRP42       0.0191
     54  CZ3      -10.9450  -14.8690    6.0630 C.ar   42  TRP42       0.0001
     55  CH2      -10.6610  -15.7930    5.0600 C.ar   42  TRP42       0.0015
     56  N         -2.1300  -19.6390    2.2200 N.3    80  TYR80      -0.1227
     57  CA        -2.7630  -20.8830    1.7940 C.3    80  TYR80       0.1736
     58  C         -2.4060  -21.2080    0.3720 C.2    80  TYR80       0.2596
     59  O         -1.8580  -20.3690   -0.3230 O.2    80  TYR80      -0.2718
     60  CB        -4.2920  -20.7570    1.9020 C.3    80  TYR80       0.0548
     61  CG        -4.7850  -20.5140    3.3030 C.ar   80  TYR80      -0.0200
     62  CD1       -4.8860  -21.5560    4.2210 C.ar   80  TYR80      -0.0009
     63  CD2       -5.1700  -19.2520    3.7100 C.ar   80  TYR80      -0.0009
     64  CE1       -5.3760  -21.3420    5.5090 C.ar   80  TYR80       0.0417
     65  CE2       -5.6560  -19.0230    4.9960 C.ar   80  TYR80       0.0417
     66  CZ        -5.7780  -20.0760    5.8860 C.ar   80  TYR80       0.1957
     67  OH        -6.2760  -19.8640    7.1480 O.3    80  TYR80      -0.2866
     68  N         -2.7710  -22.4180   -0.0800 N.am   81  SER81      -0.1938
     69  CA        -2.5180  -22.8830   -1.4430 C.3    81  SER81       0.2055
     70  C         -3.1920  -22.0140   -2.4890 C.2    81  SER81       0.2643
     71  O         -2.6540  -21.8290   -3.5740 O.2    81  SER81      -0.2714
     72  CB        -2.9980  -24.3230   -1.6050 C.3    81  SER81       0.2130
     73  OG        -2.1410  -25.1410   -0.8370 O.3    81  SER81      -0.2179
     74  N         -4.3720  -21.4770   -2.1560 N.am   82  THR82      -0.1950
     75  CA        -5.1500  -20.7270   -3.1330 C.3    82  THR82       0.1897
     76  C         -5.0600  -19.2100   -2.9740 C.2    82  THR82       0.2313
     77  O         -5.5590  -18.4820   -3.8350 O.2    82  THR82      -0.2863
     78  CB        -6.5910  -21.2150   -3.1170 C.3    82  THR82       0.1794
     79  OG1       -7.1090  -21.0530   -1.7950 O.3    82  THR82      -0.2208
     80  CG2       -6.7160  -22.6560   -3.5330 C.3    82  THR82       0.0378
     81  N         -8.7610  -15.7880   -4.0040 N.3   115  PRO115     -0.2102
     82  CA       -10.0000  -16.5420   -4.3070 C.3   115  PRO115      0.1504
     83  C        -11.2540  -16.1120   -3.5480 C.2   115  PRO115      0.2575
     84  O        -12.3200  -16.6800   -3.7810 O.2   115  PRO115     -0.2718
     85  CB        -9.6270  -17.9560   -3.8410 C.3   115  PRO115      0.0282
     86  CG        -8.7460  -17.7140   -2.6380 C.3   115  PRO115      0.0208
     87  CD        -8.0480  -16.3690   -2.8530 C.3   115  PRO115      0.0893
     88  N        -11.1340  -15.1490   -2.6320 N.am  116  PHE116     -0.1977
     89  CA       -12.1870  -14.8160   -1.6670 C.3   116  PHE116      0.1639
     90  C        -13.5040  -14.2900   -2.2020 C.2   116  PHE116      0.2290
     91  O        -14.5160  -14.4960   -1.5580 O.2   116  PHE116     -0.2864
     92  CB       -11.6400  -14.0840   -0.4120 C.3   116  PHE116      0.0560
     93  CG       -10.5310  -14.8870    0.2570 C.ar  116  PHE116     -0.0200
     94  CD1      -10.8220  -16.0570    0.9740 C.ar  116  PHE116     -0.0042
     95  CD2       -9.1860  -14.5340    0.0890 C.ar  116  PHE116     -0.0042
     96  CE1       -9.7930  -16.8340    1.5240 C.ar  116  PHE116     -0.0003
     97  CE2       -8.1600  -15.3100    0.6510 C.ar  116  PHE116     -0.0003
     98  CZ        -8.4700  -16.4500    1.3550 C.ar  116  PHE116     -0.0000
     99  N        -14.8720  -15.6650   -4.6260 N.3   118  LEU118     -0.1231
    100  CA       -15.4900  -16.9120   -5.0840 C.3   118  LEU118      0.1693
    101  C        -15.9780  -17.7440   -3.8990 C.2   118  LEU118      0.2591
    102  O        -16.5810  -18.8070   -4.0880 O.2   118  LEU118     -0.2718
    103  CB       -14.5060  -17.7340   -5.9360 C.3   118  LEU118      0.0284
    104  CG       -13.8760  -17.0160   -7.1400 C.3   118  LEU118      0.0019
    105  CD1      -12.5510  -17.6350   -7.5490 C.3   118  LEU118      0.0001
    106  CD2      -14.8770  -16.7040   -8.2250 C.3   118  LEU118      0.0001
    107  N        -15.6870  -17.2730   -2.6890 N.am  119  ALA119     -0.1980
    108  CA       -16.0470  -17.9720   -1.4610 C.3   119  ALA119      0.1597
    109  C        -17.4380  -17.5860   -0.9870 C.2   119  ALA119      0.2287
    110  O        -17.7310  -16.4070   -0.7860 O.2   119  ALA119     -0.2864
    111  CB       -15.0090  -17.6840   -0.3610 C.3   119  ALA119      0.0319
    112  N        -18.3630  -18.7310    1.8840 N.3   121  PHE121     -0.1241
    113  CA       -18.0780  -18.6240    3.2990 C.3   121  PHE121      0.1605
    114  C        -17.3210  -17.3340    3.5870 C.2   121  PHE121      0.2264
    115  O        -16.6970  -16.7640    2.6870 O.2   121  PHE121     -0.2867
    116  CB       -17.2590  -19.8360    3.7630 C.3   121  PHE121      0.0534
    117  CG       -15.9840  -20.0700    2.9870 C.ar  121  PHE121     -0.0203
    118  CD1      -15.9940  -20.8390    1.8140 C.ar  121  PHE121     -0.0042
    119  CD2      -14.7670  -19.5290    3.4270 C.ar  121  PHE121     -0.0042
    120  CE1      -14.8040  -21.0760    1.1030 C.ar  121  PHE121     -0.0003
    121  CE2      -13.5830  -19.7500    2.7110 C.ar  121  PHE121     -0.0003
    122  CZ       -13.6090  -20.5280    1.5580 C.ar  121  PHE121     -0.0000
    123  N        -12.5130  -19.1560    8.0700 N.3   124  VAL124     -0.1245
    124  CA       -12.0150  -20.5120    8.2240 C.3   124  VAL124      0.1561
    125  C        -11.8720  -20.8500    9.6800 C.2   124  VAL124      0.2260
    126  O        -11.4030  -20.0230   10.4680 O.2   124  VAL124     -0.2867
    127  CB       -10.6540  -20.7130    7.4550 C.3   124  VAL124      0.0252
    128  CG1      -10.1300  -22.1400    7.5810 C.3   124  VAL124      0.0019
    129  CG2      -10.7850  -20.3320    5.9730 C.3   124  VAL124      0.0019
    130  N         -7.7670  -33.4710    3.8640 N.3   223  ASP223     -0.1239
    131  CA        -8.0360  -32.0500    3.8800 C.3   223  ASP223      0.1674
    132  C         -9.4680  -31.6500    3.6130 C.2   223  ASP223      0.2266
    133  O         -9.8780  -31.5160    2.4560 O.2   223  ASP223     -0.2867
    134  CB        -7.0980  -31.4040    2.8520 C.3   223  ASP223      0.1410
    135  CG        -6.9510  -29.9380    2.9790 C.2   223  ASP223      0.3668
    136  OD1       -7.6260  -29.3500    3.8470 O.co2 223  ASP223     -0.2456
    137  OD2       -6.1430  -29.3720    2.2380 O.co2 223  ASP223     -0.2456
    138  N        -10.8660  -28.8420    3.9260 N.3   225  GLY225     -0.1210
    139  CA       -10.9330  -27.4920    3.3790 C.3   225  GLY225      0.1956
    140  C        -10.6240  -27.4090    1.9090 C.2   225  GLY225      0.2612
    141  O        -10.7260  -26.3340    1.3190 O.2   225  GLY225     -0.2717
    142  N        -10.2400  -28.5210    1.3040 N.am  226  ALA226     -0.1965
    143  CA        -9.9240  -28.5680   -0.1250 C.3   226  ALA226      0.1728
    144  C        -11.1390  -29.1100   -0.8850 C.2   226  ALA226      0.2617
    145  O        -11.7380  -30.0870   -0.4400 O.2   226  ALA226     -0.2715
    146  CB        -8.7070  -29.4630   -0.3460 C.3   226  ALA226      0.0334
    147  N        -11.5100  -28.4910   -2.0100 N.am  227  SER227     -0.1936
    148  CA       -12.6660  -28.9410   -2.7850 C.3   227  SER227      0.2055
    149  C        -12.4180  -30.2340   -3.5150 C.2   227  SER227      0.2643
    150  O        -13.3570  -31.0190   -3.6780 O.2   227  SER227     -0.2714
    151  CB       -13.0870  -27.9040   -3.8160 C.3   227  SER227      0.2130
    152  OG       -13.3780  -26.6540   -3.2240 O.3   227  SER227     -0.2179
    153  N        -11.1850  -30.4690   -3.9490 N.am  228  TYR228     -0.1973
    154  CA       -10.8450  -31.6160   -4.7850 C.3   228  TYR228      0.1639
    155  C         -9.8140  -32.5630   -4.2010 C.2   228  TYR228      0.2290
    156  O         -9.2630  -32.3510   -3.1120 O.2   228  TYR228     -0.2864
    157  CB       -10.3400  -31.0820   -6.1430 C.3   228  TYR228      0.0560
    158  CG       -11.2080  -29.9730   -6.7130 C.ar  228  TYR228     -0.0198
    159  CD1      -10.7210  -28.6790   -6.8450 C.ar  228  TYR228     -0.0009
    160  CD2      -12.5480  -30.2010   -7.0420 C.ar  228  TYR228     -0.0009
    161  CE1      -11.5260  -27.6470   -7.3330 C.ar  228  TYR228      0.0417
    162  CE2      -13.3610  -29.1800   -7.5420 C.ar  228  TYR228      0.0417
    163  CZ       -12.8480  -27.9010   -7.6810 C.ar  228  TYR228      0.1957
    164  OH       -13.6730  -26.9110   -8.1540 O.3   228  TYR228     -0.2866
    165  N         -7.2610  -32.0330   -9.3260 N.3   298  HIS298     -0.1241
    166  CA        -6.4210  -31.0050   -9.9340 C.3   298  HIS298      0.1621
    167  C         -4.9940  -30.9980   -9.3930 C.2   298  HIS298      0.2264
    168  O         -4.6840  -31.7370   -8.4520 O.2   298  HIS298     -0.2867
    169  CB        -7.0980  -29.6100   -9.8820 C.3   298  HIS298      0.0745
    170  CG        -7.2090  -28.9930   -8.5220 C.ar  298  HIS298      0.0817
    171  ND1       -7.6040  -27.6800   -8.3820 N.ar  298  HIS298     -0.2268
    172  CD2       -6.9720  -29.5100   -7.2870 C.ar  298  HIS298      0.1154
    173  CE1       -7.5980  -27.4350   -7.0740 C.ar  298  HIS298      0.1986
    174  NE2       -7.2110  -28.5090   -6.3780 N.ar  298  HIS298     -0.2212
    175  N         -1.9750  -29.3660   -7.3680 N.3   300  MET300     -0.1245
    176  CA        -1.7030  -28.4240   -6.2960 C.3   300  MET300      0.1570
    177  C         -0.3840  -28.7770   -5.6700 C.2   300  MET300      0.2261
    178  O         -0.2510  -29.8350   -5.0580 O.2   300  MET300     -0.2867
    179  CB        -2.8200  -28.3410   -5.2530 C.3   300  MET300      0.0387
    180  CG        -2.8020  -27.0540   -4.4660 C.3   300  MET300      0.0595
    181  SD        -3.9410  -25.8330   -5.2450 S.3   300  MET300     -0.1393
    182  CE        -5.3850  -26.2060   -4.4520 C.3   300  MET300      0.0692
@<TRIPOS>BOND
     1   166   169    1
     2   166   167    1
     3   166   165    1
     4   169   170    1
     5   167   168    2
     6   170   171   ar
     7   170   172   ar
     8   171   173   ar
     9   106   104    1
    10   164   163    1
    11   163   162   ar
    12   163   161   ar
    13   105   104    1
    14   162   160   ar
    15   175   176    1
    16   161   159   ar
    17   172   174   ar
    18   104   103    1
    19   173   174   ar
    20   160   158   ar
    21   159   158   ar
    22   158   157    1
    23     7     5    1
    24   176   177    1
    25   176   179    1
    26   157   154    1
    27   103   100    1
    28   177   178    2
    29   179   180    1
    30   181   180    1
    31   181   182    1
    32     6     5    1
    33   100    99    1
    34   100   101    1
    35     5     2    1
    36   154   155    1
    37   154   153    1
    38    82    81    1
    39    82    85    1
    40    82    83    1
    41   155   156    2
    42   102   101    2
    43    81    87    1
    44     1     2    1
    45   153   149   am
    46   101   107   am
    47     2     3    1
    48    85    86    1
    49    77    76    2
    50   151   152    1
    51   151   148    1
    52    84    83    2
    53   150   149    2
    54    71    70    2
    55    83    88   am
    56    80    78    1
    57   149   148    1
    58    16    14   am
    59    75    78    1
    60    75    76    1
    61    75    74    1
    62    78    79    1
    63    87    86    1
    64   148   147    1
    65   107   108    1
    66    88    89    1
    67     3     4    2
    68     3     8   am
    69    70    74   am
    70    70    69    1
    71    90    89    1
    72    90    91    2
    73    14    13    1
    74    14    15    2
    75   147   144   am
    76    13    12    1
    77     8     9    1
    78    89    92    1
    79    72    69    1
    80    72    73    1
    81   108   109    1
    82   108   111    1
    83    69    68    1
    84   109   110    2
    85   144   145    2
    86   144   143    1
    87    12     9    1
    88     9    10    1
    89    92    93    1
    90   146   143    1
    91    59    58    2
    92   143   142    1
    93    68    58   am
    94    95    93   ar
    95    95    97   ar
    96    11    10    2
    97    93    94   ar
    98    58    57    1
    99    97    98   ar
   100    94    96   ar
   101   120   122   ar
   102   120   118   ar
   103   142   140   am
   104   141   140    2
   105    98    96   ar
   106   122   121   ar
   107    57    60    1
   108    57    56    1
   109   118   117   ar
   110   112   113    1
   111    60    61    1
   112   140   139    1
   113   137   135   ar
   114   133   132    2
   115   115   114    2
   116   121   119   ar
   117   134   135    1
   118   134   131    1
   119   135   136   ar
   120   117   119   ar
   121   117   116    1
   122   113   114    1
   123   113   116    1
   124    61    63   ar
   125    61    62   ar
   126   139   138    1
   127   132   131    1
   128    63    65   ar
   129   130   131    1
   130    23    21    1
   131    62    64   ar
   132    22    21    1
   133    65    66   ar
   134    55    53   ar
   135    55    54   ar
   136    21    18    1
   137    53    51   ar
   138    64    66   ar
   139    30    29   ar
   140    66    67    1
   141    31    29   ar
   142   129   127    1
   143    54    52   ar
   144    29    28    1
   145    18    17    1
   146    18    19    1
   147    33    34    1
   148    33    32    1
   149    51    50   ar
   150    51    49   ar
   151    35    34    2
   152    28    25    1
   153    34    36   am
   154    50    48   ar
   155    52    49   ar
   156   127   128    1
   157   127   124    1
   158    19    20    2
   159    25    26    1
   160    25    24    1
   161    49    47   ar
   162    40    41    1
   163    40    37    1
   164    36    37    1
   165   123   124    1
   166   124   125    1
   167    26    27    2
   168    48    47   ar
   169    37    38    1
   170    47    46    1
   171   125   126    2
   172    45    44    2
   173    38    39    2
   174    46    43    1
   175    44    43    1
   176    43    42    1
