@<TRIPOS>MOLECULE
tmp/3oqpA00.pdb
 93 89 0 0 0
SMALL
GASTEIGER

@<TRIPOS>ATOM
      1  N          3.5370   13.2580   39.1440 N.3    11  ASP11      -0.1239
      2  CA         2.7420   13.6310   40.3210 C.3    11  ASP11       0.1674
      3  C          1.4100   12.8960   40.4230 C.2    11  ASP11       0.2266
      4  O          0.3770   13.4980   40.7640 O.2    11  ASP11      -0.2867
      5  CB         2.5310   15.1300   40.4060 C.3    11  ASP11       0.1410
      6  CG         3.8340   15.9260   40.4710 C.2    11  ASP11       0.3668
      7  OD1        4.9370   15.3460   40.5360 O.co2  11  ASP11      -0.2456
      8  OD2        3.7460   17.1980   40.4480 O.co2  11  ASP11      -0.2456
      9  N         -4.6880   14.4460   44.2180 N.3    16  TYR16      -0.1241
     10  CA        -5.4500   14.6000   43.0120 C.3    16  TYR16       0.1605
     11  C         -6.6890   13.6920   42.8980 C.2    16  TYR16       0.2264
     12  O         -7.5570   13.8910   42.0150 O.2    16  TYR16      -0.2867
     13  CB        -4.5770   14.3580   41.7720 C.3    16  TYR16       0.0534
     14  CG        -3.5840   15.4700   41.5180 C.ar   16  TYR16      -0.0201
     15  CD1       -4.0130   16.7580   41.3060 C.ar   16  TYR16      -0.0009
     16  CD2       -2.1910   15.2290   41.5170 C.ar   16  TYR16      -0.0009
     17  CE1       -3.1130   17.8020   41.0520 C.ar   16  TYR16       0.0417
     18  CE2       -1.3010   16.2620   41.1670 C.ar   16  TYR16       0.0417
     19  CZ        -1.7590   17.5490   41.0170 C.ar   16  TYR16       0.1957
     20  OH        -0.8980   18.5670   40.6970 O.3    16  TYR16      -0.2866
     21  N         -7.2320   18.4670   45.8900 N.3    21  LEU21      -0.1245
     22  CA        -7.0780   19.0810   44.5630 C.3    21  LEU21       0.1561
     23  C         -7.6240   18.1230   43.5240 C.2    21  LEU21       0.2260
     24  O         -6.8920   17.6070   42.7100 O.2    21  LEU21      -0.2867
     25  CB        -5.6180   19.4610   44.3410 C.3    21  LEU21       0.0270
     26  CG        -5.2890   20.3130   43.1020 C.3    21  LEU21       0.0019
     27  CD1       -6.0600   21.6260   43.1060 C.3    21  LEU21       0.0001
     28  CD2       -3.7580   20.5710   43.0630 C.3    21  LEU21       0.0001
     29  N          5.8170   15.2320   43.8190 N.3    53  ASN53      -0.1240
     30  CA         5.8610   16.6410   44.1480 C.3    53  ASN53       0.1653
     31  C          5.6330   16.8070   45.6630 C.2    53  ASN53       0.2266
     32  O          4.6290   16.2970   46.1760 O.2    53  ASN53      -0.2867
     33  CB         4.7900   17.4010   43.3680 C.3    53  ASN53       0.1155
     34  CG         4.8050   18.8760   43.6170 C.2    53  ASN53       0.2627
     35  OD1        5.5640   19.5860   42.9570 O.2    53  ASN53      -0.2716
     36  ND2        3.9850   19.3660   44.5960 N.am   53  ASN53      -0.0877
     37  N         -1.5900   21.3980   50.6090 N.3    61  LEU61      -0.1231
     38  CA        -1.5520   20.4070   49.5410 C.3    61  LEU61       0.1693
     39  C         -0.1570   19.8260   49.3840 C.2    61  LEU61       0.2592
     40  O          0.8410   20.5280   49.5300 O.2    61  LEU61      -0.2718
     41  CB        -1.9800   21.0270   48.1960 C.3    61  LEU61       0.0284
     42  CG        -3.3960   21.6370   48.0320 C.3    61  LEU61       0.0019
     43  CD1       -3.4610   22.3880   46.7010 C.3    61  LEU61       0.0001
     44  CD2       -4.5220   20.6180   48.0810 C.3    61  LEU61       0.0001
     45  N         -0.0820   18.5360   49.0970 N.am   62  PHE62      -0.1976
     46  CA         1.1870   17.8450   48.8520 C.3    62  PHE62       0.1639
     47  C          2.1400   17.9140   50.0250 C.2    62  PHE62       0.2290
     48  O          3.3260   17.8320   49.8700 O.2    62  PHE62      -0.2864
     49  CB         1.8530   18.3500   47.5260 C.3    62  PHE62       0.0560
     50  CG         0.9630   18.2130   46.3510 C.ar   62  PHE62      -0.0200
     51  CD1        0.8640   17.0060   45.7530 C.ar   62  PHE62      -0.0042
     52  CD2        0.2300   19.2680   45.9320 C.ar   62  PHE62      -0.0042
     53  CE1       -0.0090   16.8620   44.6560 C.ar   62  PHE62      -0.0003
     54  CE2       -0.6560   19.1400   44.8740 C.ar   62  PHE62      -0.0003
     55  CZ        -0.7560   17.9310   44.2400 C.ar   62  PHE62      -0.0000
     56  N         10.3420   16.6480   43.2250 N.3    86  LYS86      -0.1231
     57  CA        10.3650   18.0670   42.8580 C.3    86  LYS86       0.1693
     58  C          9.4670   18.8780   43.8080 C.2    86  LYS86       0.2593
     59  O          8.6020   18.3220   44.4860 O.2    86  LYS86      -0.2718
     60  CB         9.9510   18.3030   41.3940 C.3    86  LYS86       0.0285
     61  CG         8.4900   18.0050   41.1360 C.3    86  LYS86       0.0035
     62  CD         8.1400   18.1810   39.6620 C.3    86  LYS86       0.0206
     63  CE         6.6690   18.0460   39.4120 C.3    86  LYS86       0.1093
     64  NZ         5.8630   19.1450   39.9850 N.3    86  LYS86      -0.1314
     65  N          9.7030   20.1860   43.8010 N.am   87  SER87      -0.1938
     66  CA         8.9540   21.1970   44.5320 C.3    87  SER87       0.2055
     67  C          8.6430   22.4230   43.6560 C.2    87  SER87       0.2643
     68  O          8.3730   23.5110   44.1720 O.2    87  SER87      -0.2714
     69  CB         9.7700   21.6130   45.7620 C.3    87  SER87       0.2130
     70  OG         9.7800   20.5630   46.6740 O.3    87  SER87      -0.2179
     71  N          8.8260   22.2770   42.3450 N.am   88  LEU88      -0.1963
     72  CA         8.4770   23.2540   41.3460 C.3    88  LEU88       0.1713
     73  C          7.6440   22.5380   40.2830 C.2    88  LEU88       0.2458
     74  O          7.6850   21.3260   40.2260 O.2    88  LEU88      -0.2730
     75  CB         9.7460   23.8090   40.6350 C.3    88  LEU88       0.0310
     76  CG        10.6700   24.6470   41.4950 C.3    88  LEU88       0.0022
     77  CD1       11.9610   24.8990   40.7480 C.3    88  LEU88       0.0001
     78  CD2        9.9570   25.9440   41.8660 C.3    88  LEU88       0.0001
     79  N          6.9190   23.2880   39.4330 N.am   89  PRO89      -0.2727
     80  CA         6.1490   22.6290   38.3850 C.3    89  PRO89       0.1402
     81  C          6.9510   21.7180   37.4600 C.2    89  PRO89       0.2269
     82  O          6.5900   20.5470   37.2740 O.2    89  PRO89      -0.2865
     83  CB         5.4720   23.8070   37.6520 C.3    89  PRO89       0.0296
     84  CG         5.3950   24.8620   38.7580 C.3    89  PRO89       0.0237
     85  CD         6.6450   24.7320   39.5360 C.3    89  PRO89       0.0939
     86  N          0.0810   22.6240   34.4060 N.3   117  ASN117     -0.1240
     87  CA         0.9820   23.1170   35.3970 C.3   117  ASN117      0.1653
     88  C          2.2420   22.2680   35.3530 C.2   117  ASN117      0.2266
     89  O          3.1970   22.6180   34.6420 O.2   117  ASN117     -0.2867
     90  CB         0.2720   23.1390   36.7640 C.3   117  ASN117      0.1155
     91  CG         0.9980   23.9690   37.8090 C.2   117  ASN117      0.2627
     92  OD1        0.8510   25.1630   37.8630 O.2   117  ASN117     -0.2716
     93  ND2        1.7790   23.3240   38.6770 N.am  117  ASN117     -0.0877
@<TRIPOS>BOND
     1    86    87    1
     2    89    88    2
     3    88    87    1
     4    87    90    1
     5    90    91    1
     6    82    81    2
     7    81    80    1
     8    83    80    1
     9    83    84    1
    10    91    92    2
    11    91    93   am
    12    80    79    1
    13    84    85    1
    14     1     2    1
    15    63    62    1
    16    63    64    1
    17    79    85    1
    18    79    73   am
    19    62    61    1
    20    74    73    2
    21    73    72    1
    22     2     5    1
    23     2     3    1
    24     5     6    1
    25     3     4    2
    26     8     6   ar
    27     6     7   ar
    28    75    72    1
    29    75    76    1
    30    20    19    1
    31    77    76    1
    32    19    17   ar
    33    19    18   ar
    34    17    15   ar
    35    61    60    1
    36    18    16   ar
    37    15    14   ar
    38    72    71    1
    39    60    57    1
    40    76    78    1
    41    16    14   ar
    42    14    13    1
    43    13    10    1
    44    12    11    2
    45    71    67   am
    46    24    23    2
    47    57    56    1
    48    57    58    1
    49    11    10    1
    50    35    34    2
    51    10     9    1
    52    28    26    1
    53    26    27    1
    54    26    25    1
    55    33    34    1
    56    33    30    1
    57    23    22    1
    58    34    36   am
    59    67    68    2
    60    67    66    1
    61    65    58   am
    62    65    66    1
    63    58    59    2
    64    29    30    1
    65    30    31    1
    66    55    53   ar
    67    55    54   ar
    68    25    22    1
    69    66    69    1
    70    22    21    1
    71    53    51   ar
    72    54    52   ar
    73    31    32    2
    74    51    50   ar
    75    69    70    1
    76    52    50   ar
    77    50    49    1
    78    43    42    1
    79    49    46    1
    80    42    44    1
    81    42    41    1
    82    41    38    1
    83    46    45    1
    84    46    47    1
    85    45    39   am
    86    39    40    2
    87    39    38    1
    88    38    37    1
    89    48    47    2
