@<TRIPOS>MOLECULE
tmp/3oqqA00.pdb
 93 84 0 0 0
SMALL
GASTEIGER

@<TRIPOS>ATOM
      1  N         18.7820   13.7630   21.1590 N.3   164  VAL164     -0.1245
      2  CA        19.0870   12.3310   21.1000 C.3   164  VAL164      0.1561
      3  C         18.2580   11.5490   22.1130 C.2   164  VAL164      0.2260
      4  O         17.9200   12.0730   23.1690 O.2   164  VAL164     -0.2867
      5  CB        20.6190   12.0640   21.3640 C.3   164  VAL164      0.0252
      6  CG1       20.9730   10.5790   21.2050 C.3   164  VAL164      0.0019
      7  CG2       21.5320   12.9200   20.4770 C.3   164  VAL164      0.0019
      8  N         23.6760    5.1600   16.0490 N.3   229  THR229     -0.1218
      9  CA        25.0010    4.6840   16.4020 C.3   229  THR229      0.1862
     10  C         24.8490    3.5160   17.3520 C.2   229  THR229      0.2287
     11  O         24.1040    3.5900   18.3260 O.2   229  THR229     -0.2866
     12  CB        25.8710    5.8160   16.9810 C.3   229  THR229      0.1770
     13  OG1       25.8710    6.9080   16.0640 O.3   229  THR229     -0.2211
     14  CG2       27.3240    5.3740   17.2380 C.3   229  THR229      0.0375
     15  N         26.1050    0.7040   23.6990 N.3   239  VAL239     -0.1245
     16  CA        25.4630    2.0310   23.8080 C.3   239  VAL239      0.1561
     17  C         24.8240    2.3770   22.4470 C.2   239  VAL239      0.2260
     18  O         25.5250    2.4750   21.4450 O.2   239  VAL239     -0.2867
     19  CB        26.4350    3.1300   24.3130 C.3   239  VAL239      0.0252
     20  CG1       25.7610    4.5090   24.3290 C.3   239  VAL239      0.0019
     21  CG2       27.0010    2.7680   25.6910 C.3   239  VAL239      0.0019
     22  N         22.3660    5.0230   20.2550 N.3   241  THR241     -0.1218
     23  CA        21.7850    6.3720   20.2170 C.3   241  THR241      0.1862
     24  C         21.0840    6.6470   18.8810 C.2   241  THR241      0.2287
     25  O         21.5910    6.2830   17.8200 O.2   241  THR241     -0.2866
     26  CB        22.8170    7.4630   20.4890 C.3   241  THR241      0.1770
     27  OG1       23.8500    7.3570   19.5250 O.3   241  THR241     -0.2211
     28  CG2       23.3950    7.4090   21.9070 C.3   241  THR241      0.0375
     29  N         19.9600    9.9290   17.0200 N.3   243  ASP243     -0.1239
     30  CA        20.1510   11.3840   16.9290 C.3   243  ASP243      0.1674
     31  C         19.2520   11.9100   15.8030 C.2   243  ASP243      0.2266
     32  O         18.8050   11.1080   14.9730 O.2   243  ASP243     -0.2867
     33  CB        21.6390   11.6320   16.6710 C.3   243  ASP243      0.1410
     34  CG        22.1990   13.0400   16.8200 C.2   243  ASP243      0.3668
     35  OD1       21.3970   13.9980   17.0230 O.co2 243  ASP243     -0.2456
     36  OD2       23.4120   13.1890   16.7060 O.co2 243  ASP243     -0.2456
     37  N         17.9800    6.7140   28.0770 N.3   304  PHE304     -0.1241
     38  CA        18.4270    8.0930   28.2890 C.3   304  PHE304      0.1605
     39  C         18.0850    8.9580   27.0990 C.2   304  PHE304      0.2264
     40  O         17.7810    8.4510   26.0130 O.2   304  PHE304     -0.2867
     41  CB        19.9720    8.1700   28.5580 C.3   304  PHE304      0.0534
     42  CG        20.9040    7.7350   27.4390 C.ar  304  PHE304     -0.0203
     43  CD1       21.3160    6.4100   27.3290 C.ar  304  PHE304     -0.0042
     44  CD2       21.3980    8.6580   26.5220 C.ar  304  PHE304     -0.0042
     45  CE1       22.1900    6.0120   26.3160 C.ar  304  PHE304     -0.0003
     46  CE2       22.2780    8.2620   25.5110 C.ar  304  PHE304     -0.0003
     47  CZ        22.6530    6.9380   25.4000 C.ar  304  PHE304     -0.0000
     48  N         19.5390   12.9520   25.2690 N.3   306  LYS306     -0.1245
     49  CA        20.4810   14.0600   25.2380 C.3   306  LYS306      0.1561
     50  C         19.7670   15.2980   24.7390 C.2   306  LYS306      0.2260
     51  O         18.8240   15.2210   23.9400 O.2   306  LYS306     -0.2867
     52  CB        21.7300   13.8000   24.3920 C.3   306  LYS306      0.0271
     53  CG        22.6580   12.7440   24.9250 C.3   306  LYS306      0.0035
     54  CD        24.0670   13.0550   24.4380 C.3   306  LYS306      0.0206
     55  CE        24.6800   11.9010   23.7340 C.3   306  LYS306      0.1093
     56  NZ        26.0890   12.2020   23.3590 N.3   306  LYS306     -0.1314
     57  N         24.8480   18.4380   24.6720 N.3   310  GLY310     -0.1225
     58  CA        25.3850   17.1580   25.1240 C.3   310  GLY310      0.1811
     59  C         25.0350   16.7000   26.5290 C.2   310  GLY310      0.2280
     60  O         25.5340   15.6650   26.9790 O.2   310  GLY310     -0.2866
     61  N         23.2220   14.7320   29.2030 N.3   312  GLU312     -0.1245
     62  CA        22.6400   13.3970   29.1750 C.3   312  GLU312      0.1567
     63  C         21.7640   13.1870   30.4000 C.2   312  GLU312      0.2260
     64  O         22.2110   13.4210   31.5280 O.2   312  GLU312     -0.2867
     65  CB        23.8070   12.3920   29.1370 C.3   312  GLU312      0.0388
     66  CG        23.5190   11.0130   28.5910 C.3   312  GLU312      0.1160
     67  CD        24.6930   10.0860   28.8340 C.2   312  GLU312      0.3649
     68  OE1       25.6400   10.0880   28.0190 O.co2 312  GLU312     -0.2457
     69  OE2       24.7120    9.4290   29.8970 O.co2 312  GLU312     -0.2457
     70  N         26.3460    7.4320   31.0460 N.3   320  THR320     -0.1218
     71  CA        27.2870    6.5930   30.3070 C.3   320  THR320      0.1862
     72  C         28.6900    6.9100   30.8430 C.2   320  THR320      0.2287
     73  O         28.8700    7.9990   31.3980 O.2   320  THR320     -0.2866
     74  CB        27.1890    6.8680   28.7900 C.3   320  THR320      0.1770
     75  OG1       27.6190    8.2010   28.5480 O.3   320  THR320     -0.2211
     76  CG2       25.7870    6.6520   28.2270 C.3   320  THR320      0.0375
     77  N         31.2240    7.9110   29.1960 N.3   322  ALA322     -0.1231
     78  CA        31.6570    9.1290   28.5030 C.3   322  ALA322      0.1694
     79  C         31.1290   10.3750   29.1960 C.2   322  ALA322      0.2592
     80  O         31.8320   11.3720   29.2790 O.2   322  ALA322     -0.2718
     81  CB        31.1580    9.1000   27.0660 C.3   322  ALA322      0.0304
     82  N         29.8990   10.3120   29.7210 N.am  323  TYR323     -0.1976
     83  CA        29.3080   11.4650   30.3820 C.3   323  TYR323      0.1639
     84  C         29.6150   11.5190   31.8690 C.2   323  TYR323      0.2290
     85  O         29.4140   12.5760   32.4850 O.2   323  TYR323     -0.2864
     86  CB        27.7810   11.4650   30.1670 C.3   323  TYR323      0.0560
     87  CG        27.1430   12.7740   30.5480 C.ar  323  TYR323     -0.0198
     88  CD1       27.4490   13.9460   29.8600 C.ar  323  TYR323     -0.0009
     89  CD2       26.2820   12.8610   31.6420 C.ar  323  TYR323     -0.0009
     90  CE1       26.8970   15.1670   30.2320 C.ar  323  TYR323      0.0417
     91  CE2       25.7290   14.0830   32.0290 C.ar  323  TYR323      0.0417
     92  CZ        26.0440   15.2350   31.3220 C.ar  323  TYR323      0.1957
     93  OH        25.5300   16.4550   31.6900 O.3   323  TYR323     -0.2866
@<TRIPOS>BOND
     1    32    31    2
     2    31    30    1
     3     8     9    1
     4    13    12    1
     5     9    12    1
     6     9    10    1
     7    33    34    1
     8    33    30    1
     9    36    34   ar
    10    34    35   ar
    11    30    29    1
    12    12    14    1
    13    10    11    2
    14    25    24    2
    15    24    23    1
    16    27    26    1
    17    23    22    1
    18    23    26    1
    19     7     5    1
    20    26    28    1
    21     2     1    1
    22     2     5    1
    23     2     3    1
    24     6     5    1
    25    18    17    2
    26     3     4    2
    27    17    16    1
    28    56    55    1
    29    15    16    1
    30    55    54    1
    31    16    19    1
    32    51    50    2
    33    19    20    1
    34    19    21    1
    35    52    53    1
    36    52    49    1
    37    54    53    1
    38    57    58    1
    39    50    49    1
    40    58    59    1
    41    49    48    1
    42    47    46   ar
    43    47    45   ar
    44    46    44   ar
    45    40    39    2
    46    45    43   ar
    47    44    42   ar
    48    59    60    2
    49    81    78    1
    50    39    38    1
    51    43    42   ar
    52    42    41    1
    53    68    67   ar
    54    37    38    1
    55    76    74    1
    56    38    41    1
    57    78    79    1
    58    78    77    1
    59    75    74    1
    60    66    67    1
    61    66    65    1
    62    74    71    1
    63    67    69   ar
    64    65    62    1
    65    62    61    1
    66    62    63    1
    67    79    80    2
    68    79    82   am
    69    82    83    1
    70    88    90   ar
    71    88    87   ar
    72    86    83    1
    73    86    87    1
    74    90    92   ar
    75    71    72    1
    76    71    70    1
    77    83    84    1
    78    63    64    2
    79    87    89   ar
    80    72    73    2
    81    92    93    1
    82    92    91   ar
    83    89    91   ar
    84    84    85    2
