@<TRIPOS>MOLECULE
tmp/3oqvA00.pdb
 133 123 0 0 0
SMALL
GASTEIGER

@<TRIPOS>ATOM
      1  N        -17.4210  -24.6150    0.6310 N.3     6  LEU6       -0.1245
      2  CA       -17.1030  -25.9760    1.0180 C.3     6  LEU6        0.1561
      3  C        -16.2490  -26.6490   -0.0670 C.2     6  LEU6        0.2260
      4  O        -16.6090  -26.6620   -1.2510 O.2     6  LEU6       -0.2867
      5  CB       -18.3890  -26.7730    1.2560 C.3     6  LEU6        0.0270
      6  CG       -18.1890  -28.2870    1.2730 C.3     6  LEU6        0.0019
      7  CD1      -17.5060  -28.7020    2.5600 C.3     6  LEU6        0.0001
      8  CD2      -19.5230  -29.0070    1.0940 C.3     6  LEU6        0.0001
      9  N        -15.1040  -30.3220   -0.6950 N.3     8  GLY8       -0.1210
     10  CA       -15.2560  -31.7080   -0.3050 C.3     8  GLY8        0.1956
     11  C        -14.2480  -32.5400   -1.0650 C.2     8  GLY8        0.2612
     12  O        -14.0500  -32.3370   -2.2610 O.2     8  GLY8       -0.2717
     13  N        -13.5290  -33.3950   -0.3400 N.am    9  ILE9       -0.1965
     14  CA       -12.4310  -34.1550   -0.9070 C.3     9  ILE9        0.1727
     15  C        -12.7160  -35.6390   -0.7080 C.2     9  ILE9        0.2616
     16  O        -12.6770  -36.1330    0.4090 O.2     9  ILE9       -0.2715
     17  CB       -11.0910  -33.8050   -0.2240 C.3     9  ILE9        0.0290
     18  CG1      -10.7910  -32.3180   -0.4250 C.3     9  ILE9        0.0022
     19  CG2       -9.9630  -34.6500   -0.8250 C.3     9  ILE9        0.0023
     20  CD1       -9.5360  -31.8220    0.2420 C.3     9  ILE9        0.0001
     21  N        -13.0670  -36.3350   -1.7830 N.am   10  SER10      -0.1950
     22  CA       -13.3020  -37.7590   -1.6870 C.3    10  SER10       0.1924
     23  C        -11.9840  -38.4980   -1.8340 C.2    10  SER10       0.2314
     24  O        -11.0510  -37.9990   -2.4550 O.2    10  SER10      -0.2863
     25  CB       -14.3000  -38.2280   -2.7430 C.3    10  SER10       0.2116
     26  OG       -13.6440  -38.6150   -3.9290 O.3    10  SER10      -0.2180
     27  N        -11.2590  -38.9130   -5.5910 N.3    13  ASN13      -0.1240
     28  CA       -11.2600  -37.8550   -6.6120 C.3    13  ASN13       0.1653
     29  C         -9.8460  -37.4010   -6.9880 C.2    13  ASN13       0.2266
     30  O         -9.2040  -36.6720   -6.2310 O.2    13  ASN13      -0.2867
     31  CB       -12.0760  -36.6550   -6.1210 C.3    13  ASN13       0.1155
     32  CG       -12.0710  -35.4960   -7.1040 C.2    13  ASN13       0.2627
     33  OD1      -11.4100  -35.5500   -8.1450 O.2    13  ASN13      -0.2716
     34  ND2      -12.8090  -34.4320   -6.7740 N.am   13  ASN13      -0.0877
     35  N        -13.7810  -30.7690    3.8980 N.3    38  VAL38      -0.1245
     36  CA       -14.2830  -32.0030    4.4670 C.3    38  VAL38       0.1561
     37  C        -13.7780  -33.1390    3.6050 C.2    38  VAL38       0.2260
     38  O        -14.0260  -33.1820    2.4010 O.2    38  VAL38      -0.2867
     39  CB       -15.8160  -32.0170    4.5480 C.3    38  VAL38       0.0252
     40  CG1      -16.3220  -33.3220    5.1570 C.3    38  VAL38       0.0019
     41  CG2      -16.3060  -30.8070    5.3680 C.3    38  VAL38       0.0019
     42  N        -13.8870  -37.2000    2.8960 N.3    40  VAL40      -0.1245
     43  CA       -14.9290  -38.2020    3.0980 C.3    40  VAL40       0.1561
     44  C        -14.2910  -39.5380    3.4670 C.2    40  VAL40       0.2260
     45  O        -13.7020  -40.2140    2.6250 O.2    40  VAL40      -0.2867
     46  CB       -15.7790  -38.3720    1.8420 C.3    40  VAL40       0.0252
     47  CG1      -16.9400  -39.3290    2.1250 C.3    40  VAL40       0.0019
     48  CG2      -16.3010  -37.0180    1.3900 C.3    40  VAL40       0.0019
     49  N        -15.5460  -36.2770    7.3710 N.3    92  LEU92      -0.1245
     50  CA       -17.0110  -36.3970    7.4030 C.3    92  LEU92       0.1561
     51  C        -17.4700  -37.0900    8.6900 C.2    92  LEU92       0.2260
     52  O        -18.4400  -36.6720    9.3210 O.2    92  LEU92      -0.2867
     53  CB       -17.5450  -37.1300    6.1700 C.3    92  LEU92       0.0270
     54  CG       -19.0760  -37.2250    6.0050 C.3    92  LEU92       0.0019
     55  CD1      -19.7620  -35.8540    6.1550 C.3    92  LEU92       0.0001
     56  CD2      -19.4270  -37.8210    4.6500 C.3    92  LEU92       0.0001
     57  N        -26.5540  -40.2620   -8.4790 N.3   125  MET125     -0.1245
     58  CA       -25.2740  -40.0330   -7.8390 C.3   125  MET125      0.1570
     59  C        -24.6480  -41.3250   -7.3310 C.2   125  MET125      0.2261
     60  O        -23.4490  -41.5200   -7.4780 O.2   125  MET125     -0.2867
     61  CB       -25.4070  -39.0470   -6.6720 C.3   125  MET125      0.0387
     62  CG       -24.0650  -38.5270   -6.1960 C.3   125  MET125      0.0595
     63  SD       -24.2360  -37.2170   -4.9750 S.3   125  MET125     -0.1393
     64  CE       -22.5450  -37.0910   -4.4140 C.3   125  MET125      0.0692
     65  N        -23.2810  -37.9260    2.6320 N.3   155  GLU155     -0.1245
     66  CA       -22.7920  -36.6850    2.0070 C.3   155  GLU155      0.1567
     67  C        -23.9090  -35.6660    1.8030 C.2   155  GLU155      0.2260
     68  O        -23.6540  -34.4680    1.6420 O.2   155  GLU155     -0.2867
     69  CB       -22.1660  -37.0010    0.6450 C.3   155  GLU155      0.0388
     70  CG       -20.8310  -37.7430    0.7370 C.3   155  GLU155      0.1160
     71  CD       -20.1130  -37.8050   -0.6010 C.2   155  GLU155      0.3649
     72  OE1      -20.7920  -37.9850   -1.6280 O.co2 155  GLU155     -0.2457
     73  OE2      -18.8780  -37.6160   -0.6430 O.co2 155  GLU155     -0.2457
     74  N        -24.4590  -32.1480    3.2030 N.3   158  LEU158     -0.1231
     75  CA       -23.5050  -31.1680    2.6860 C.3   158  LEU158      0.1693
     76  C        -23.9030  -30.6360    1.3070 C.2   158  LEU158      0.2592
     77  O        -23.7900  -29.4370    1.0460 O.2   158  LEU158     -0.2718
     78  CB       -22.0850  -31.7440    2.6520 C.3   158  LEU158      0.0284
     79  CG       -21.3870  -31.7810    4.0220 C.3   158  LEU158      0.0019
     80  CD1      -22.0650  -32.7930    4.9390 C.3   158  LEU158      0.0001
     81  CD2      -19.9110  -32.1200    3.8850 C.3   158  LEU158      0.0001
     82  N        -24.4410  -31.5020    0.4500 N.am  159  PHE159     -0.1976
     83  CA       -24.8500  -31.0320   -0.8650 C.3   159  PHE159      0.1639
     84  C        -26.2690  -30.4580   -0.9520 C.2   159  PHE159      0.2290
     85  O        -26.5640  -29.6820   -1.8530 O.2   159  PHE159     -0.2864
     86  CB       -24.4780  -32.0050   -2.0140 C.3   159  PHE159      0.0560
     87  CG       -25.1750  -33.3490   -1.9680 C.ar  159  PHE159     -0.0200
     88  CD1      -26.4910  -33.4740   -2.3800 C.ar  159  PHE159     -0.0042
     89  CD2      -24.4390  -34.5100   -1.7440 C.ar  159  PHE159     -0.0042
     90  CE1      -27.1110  -34.7160   -2.4220 C.ar  159  PHE159     -0.0003
     91  CE2      -25.0470  -35.7680   -1.8110 C.ar  159  PHE159     -0.0003
     92  CZ       -26.3710  -35.8710   -2.1840 C.ar  159  PHE159     -0.0000
     93  N        -20.6110  -24.8220   -2.7010 N.3   173  LEU173     -0.1231
     94  CA       -19.9630  -26.1010   -2.8920 C.3   173  LEU173      0.1693
     95  C        -19.0810  -26.0810   -4.1510 C.2   173  LEU173      0.2592
     96  O        -19.5850  -25.9300   -5.2800 O.2   173  LEU173     -0.2718
     97  CB       -21.0460  -27.1940   -2.9930 C.3   173  LEU173      0.0284
     98  CG       -20.5820  -28.6470   -2.9740 C.3   173  LEU173      0.0019
     99  CD1      -21.7500  -29.5490   -2.6040 C.3   173  LEU173      0.0001
    100  CD2      -20.0160  -29.0450   -4.3360 C.3   173  LEU173      0.0001
    101  N        -17.7630  -26.2100   -3.9670 N.am  174  CYS174     -0.1956
    102  CA       -16.8460  -26.2280   -5.1050 C.3   174  CYS174      0.1843
    103  C        -16.7090  -27.6440   -5.6330 C.2   174  CYS174      0.2625
    104  O        -16.4280  -28.5670   -4.8700 O.2   174  CYS174     -0.2714
    105  CB       -15.4700  -25.7040   -4.6960 C.3   174  CYS174      0.0997
    106  SG       -15.5260  -24.1090   -3.8680 S.3   174  CYS174     -0.0797
    107  N        -16.9880  -27.8340   -6.9190 N.am  175  TYR175     -0.1974
    108  CA       -16.9200  -29.1700   -7.4980 C.3   175  TYR175      0.1639
    109  C        -16.1280  -29.1620   -8.8110 C.2   175  TYR175      0.2290
    110  O        -16.0960  -28.1600   -9.5220 O.2   175  TYR175     -0.2864
    111  CB       -18.3200  -29.7460   -7.7070 C.3   175  TYR175      0.0560
    112  CG       -19.1180  -29.0440   -8.7950 C.ar  175  TYR175     -0.0198
    113  CD1      -19.1380  -29.5390  -10.0950 C.ar  175  TYR175     -0.0009
    114  CD2      -19.8780  -27.9090   -8.5070 C.ar  175  TYR175     -0.0009
    115  CE1      -19.8650  -28.9070  -11.1030 C.ar  175  TYR175      0.0417
    116  CE2      -20.6170  -27.2530   -9.5140 C.ar  175  TYR175      0.0417
    117  CZ       -20.6100  -27.7770  -10.8020 C.ar  175  TYR175      0.1957
    118  OH       -21.2890  -27.1520  -11.8130 O.3   175  TYR175     -0.2866
    119  N        -17.4910  -35.4010  -11.7650 N.3   179  THR179     -0.1218
    120  CA       -17.5650  -36.0550  -10.4640 C.3   179  THR179      0.1862
    121  C        -19.0030  -36.4100  -10.1060 C.2   179  THR179      0.2287
    122  O        -19.9420  -35.8980  -10.7230 O.2   179  THR179     -0.2866
    123  CB       -16.9160  -35.1990   -9.3490 C.3   179  THR179      0.1770
    124  OG1      -17.5630  -33.9230   -9.2780 O.3   179  THR179     -0.2211
    125  CG2      -15.4440  -34.9890   -9.6430 C.3   179  THR179      0.0375
    126  N        -21.1900  -35.6890   -7.8510 N.3   181  ILE181     -0.1245
    127  CA       -22.1360  -34.6070   -7.5440 C.3   181  ILE181      0.1561
    128  C        -22.7800  -34.0260   -8.8120 C.2   181  ILE181      0.2260
    129  O        -23.9440  -33.6190   -8.7930 O.2   181  ILE181     -0.2867
    130  CB       -21.4870  -33.4800   -6.7150 C.3   181  ILE181      0.0252
    131  CG1      -22.5490  -32.4940   -6.2080 C.3   181  ILE181      0.0019
    132  CG2      -20.4310  -32.7510   -7.5350 C.3   181  ILE181      0.0019
    133  CD1      -23.5090  -33.0770   -5.1920 C.3   181  ILE181      0.0001
@<TRIPOS>BOND
     1   118   117    1
     2   119   120    1
     3   115   117   ar
     4   115   113   ar
     5   117   116   ar
     6   122   121    2
     7   120   121    1
     8   120   123    1
     9   113   112   ar
    10   125   123    1
    11   110   109    2
    12   116   114   ar
    13   123   124    1
    14   128   129    2
    15   128   127    1
    16   109   108    1
    17   112   114   ar
    18   112   111    1
    19    57    58    1
    20    33    32    2
    21   126   127    1
    22    58    59    1
    23    58    61    1
    24   111   108    1
    25   127   130    1
    26   132   130    1
    27   108   107    1
    28    60    59    2
    29    32    34   am
    30    32    31    1
    31    29    28    1
    32    29    30    2
    33   107   103   am
    34   130   131    1
    35    61    62    1
    36    28    31    1
    37    28    27    1
    38   131   133    1
    39    62    63    1
    40   103   102    1
    41   103   104    2
    42    96    95    2
    43   102   105    1
    44   102   101    1
    45    63    64    1
    46   105   106    1
    47   100    98    1
    48    95   101   am
    49    95    94    1
    50    26    25    1
    51    97    98    1
    52    97    94    1
    53    98    99    1
    54    94    93    1
    55    25    22    1
    56    24    23    2
    57    90    88   ar
    58    90    92   ar
    59    88    87   ar
    60    12    11    2
    61    92    91   ar
    62    86    87    1
    63    86    83    1
    64    87    89   ar
    65    85    84    2
    66    23    22    1
    67    91    89   ar
    68    21    22    1
    69    21    15   am
    70    72    71   ar
    71     4     3    2
    72    11    13   am
    73    11    10    1
    74    84    83    1
    75    14    15    1
    76    14    13    1
    77    14    17    1
    78    83    82    1
    79    19    17    1
    80    15    16    2
    81     9    10    1
    82    73    71   ar
    83    71    70    1
    84    18    17    1
    85    18    20    1
    86     3     2    1
    87    82    76   am
    88     1     2    1
    89    69    70    1
    90    69    66    1
    91     2     5    1
    92    77    76    2
    93     8     6    1
    94     5     6    1
    95     6     7    1
    96    76    75    1
    97    48    46    1
    98    68    67    2
    99    67    66    1
   100    46    47    1
   101    46    43    1
   102    66    65    1
   103    38    37    2
   104    45    44    2
   105    78    75    1
   106    78    79    1
   107    75    74    1
   108    42    43    1
   109    43    44    1
   110    37    36    1
   111    81    79    1
   112    35    36    1
   113    79    80    1
   114    36    39    1
   115    39    40    1
   116    39    41    1
   117    56    54    1
   118    54    55    1
   119    54    53    1
   120    53    50    1
   121    49    50    1
   122    50    51    1
   123    51    52    2
