@<TRIPOS>MOLECULE
tmp/3or1D01.pdb
 129 122 0 0 0
SMALL
GASTEIGER

@<TRIPOS>ATOM
      1  N        -12.9690    1.5280  -23.3470 N.3   105  ALA105     -0.1245
      2  CA       -12.7680    0.4970  -22.3350 C.3   105  ALA105      0.1562
      3  C        -13.8380   -0.5890  -22.3740 C.2   105  ALA105      0.2260
      4  O        -13.9220   -1.4180  -21.4750 O.2   105  ALA105     -0.2867
      5  CB       -12.6860    1.1200  -20.9440 C.3   105  ALA105      0.0290
      6  N         -8.5690    2.6720  -25.0340 N.3   174  SER174     -0.1202
      7  CA        -7.8850    2.9930  -23.7890 C.3   174  SER174      0.2020
      8  C         -8.0460    1.8630  -22.7840 C.2   174  SER174      0.2619
      9  O         -8.8600    0.9620  -22.9790 O.2   174  SER174     -0.2717
     10  CB        -8.4870    4.2610  -23.1820 C.3   174  SER174      0.2103
     11  OG        -9.7920    4.0060  -22.6820 O.3   174  SER174     -0.2182
     12  N         -7.2510    1.9090  -21.7170 N.am  175  CYS175     -0.1955
     13  CA        -7.3840    0.9320  -20.6410 C.3   175  CYS175      0.1843
     14  C         -8.6230    1.4610  -19.9190 C.2   175  CYS175      0.2625
     15  O         -9.0970    2.5440  -20.2510 O.2   175  CYS175     -0.2714
     16  CB        -6.1870    0.9840  -19.6960 C.3   175  CYS175      0.0997
     17  SG        -6.0450    2.5180  -18.7150 S.3   175  CYS175     -0.0797
     18  N         -9.1470    0.7240  -18.9450 N.am  176  LEU176     -0.1977
     19  CA       -10.3380    1.1830  -18.2310 C.3   176  LEU176      0.1596
     20  C        -10.0980    2.4140  -17.3450 C.2   176  LEU176      0.2287
     21  O        -11.0410    3.0160  -16.8320 O.2   176  LEU176     -0.2864
     22  CB       -10.9470    0.0260  -17.4250 C.3   176  LEU176      0.0297
     23  CG       -10.1080   -0.7200  -16.3900 C.3   176  LEU176      0.0022
     24  CD1      -10.0010    0.0940  -15.1030 C.3   176  LEU176      0.0001
     25  CD2      -10.7730   -2.0580  -16.1040 C.3   176  LEU176      0.0001
     26  N        -12.2040    1.9690  -12.9200 N.3   180  ARG180     -0.1231
     27  CA       -12.0450    0.9040  -11.9300 C.3   180  ARG180      0.1694
     28  C        -10.5890    0.5280  -11.6550 C.2   180  ARG180      0.2592
     29  O        -10.2280   -0.6480  -11.6400 O.2   180  ARG180     -0.2718
     30  CB       -12.8230   -0.3430  -12.3730 C.3   180  ARG180      0.0321
     31  CG       -12.9500   -1.4070  -11.2810 C.3   180  ARG180      0.0489
     32  CD       -12.4140   -2.7500  -11.7730 C.3   180  ARG180      0.2205
     33  NE       -13.3090   -3.3300  -12.7560 N.pl3 180  ARG180     -0.0865
     34  CZ       -12.9710   -4.2640  -13.6380 C.cat 180  ARG180      0.5346
     35  NH1      -11.7360   -4.7520  -13.6810 N.pl3 180  ARG180      0.1354
     36  NH2      -13.8850   -4.7000  -14.4870 N.pl3 180  ARG180      0.1354
     37  N         -9.7550    1.5330  -11.4230 N.am  181  CYS181     -0.1956
     38  CA        -8.3470    1.2900  -11.1360 C.3   181  CYS181      0.1843
     39  C         -7.7970    2.4470  -10.3210 C.2   181  CYS181      0.2625
     40  O         -7.9880    3.6060  -10.6860 O.2   181  CYS181     -0.2714
     41  CB        -7.5480    1.1580  -12.4360 C.3   181  CYS181      0.0997
     42  SG        -5.8100    0.8340  -12.1230 S.3   181  CYS181     -0.0797
     43  N         -7.1290    2.1350   -9.2150 N.am  182  GLU182     -0.1963
     44  CA        -6.5700    3.1820   -8.3700 C.3   182  GLU182      0.1733
     45  C         -5.1810    3.6400   -8.8160 C.2   182  GLU182      0.2616
     46  O         -4.5750    4.4920   -8.1710 O.2   182  GLU182     -0.2715
     47  CB        -6.5230    2.7190   -6.9090 C.3   182  GLU182      0.0429
     48  CG        -5.4560    1.6850   -6.5750 C.3   182  GLU182      0.1163
     49  CD        -5.8740    0.2520   -6.8490 C.2   182  GLU182      0.3649
     50  OE1       -5.2870   -0.6490   -6.2160 O.co2 182  GLU182     -0.2457
     51  OE2       -6.7620    0.0150   -7.6910 O.co2 182  GLU182     -0.2457
     52  N         -4.6800    3.0840   -9.9170 N.am  183  PHE183     -0.1974
     53  CA        -3.3620    3.4620  -10.4330 C.3   183  PHE183      0.1639
     54  C         -3.4680    4.5210  -11.5340 C.2   183  PHE183      0.2290
     55  O         -2.4650    5.1430  -11.8950 O.2   183  PHE183     -0.2864
     56  CB        -2.6390    2.2540  -11.0480 C.3   183  PHE183      0.0560
     57  CG        -2.3570    1.1340  -10.0870 C.ar  183  PHE183     -0.0200
     58  CD1       -2.1130   -0.1490  -10.5710 C.ar  183  PHE183     -0.0042
     59  CD2       -2.3280    1.3490   -8.7100 C.ar  183  PHE183     -0.0042
     60  CE1       -1.8470   -1.2080   -9.6970 C.ar  183  PHE183     -0.0003
     61  CE2       -2.0640    0.3000   -7.8270 C.ar  183  PHE183     -0.0003
     62  CZ        -1.8240   -0.9830   -8.3210 C.ar  183  PHE183     -0.0000
     63  N          1.9070    0.4000  -16.4990 N.3   221  ASN221     -0.1225
     64  CA         1.6240   -1.0290  -16.6040 C.3   221  ASN221      0.1785
     65  C          1.1810   -1.4080  -18.0240 C.2   221  ASN221      0.2598
     66  O          1.3350   -2.5550  -18.4380 O.2   221  ASN221     -0.2718
     67  CB         0.5900   -1.4710  -15.5590 C.3   221  ASN221      0.1169
     68  CG         1.1590   -1.4750  -14.1410 C.2   221  ASN221      0.2627
     69  OD1        2.3500   -1.7160  -13.9420 O.2   221  ASN221     -0.2716
     70  ND2        0.3060   -1.2280  -13.1550 N.am  221  ASN221     -0.0877
     71  N          0.6450   -0.4380  -18.7620 N.am  222  GLY222     -0.1942
     72  CA         0.2400   -0.6570  -20.1480 C.3   222  GLY222      0.2014
     73  C         -0.8540   -1.6580  -20.4700 C.2   222  GLY222      0.2639
     74  O         -0.7040   -2.4990  -21.3660 O.2   222  GLY222     -0.2714
     75  N         -1.9790   -1.5460  -19.7770 N.am  223  CYS223     -0.1953
     76  CA        -3.0790   -2.4660  -19.9950 C.3   223  CYS223      0.1843
     77  C         -3.7280   -2.4680  -21.3800 C.2   223  CYS223      0.2625
     78  O         -4.4630   -3.4000  -21.7090 O.2   223  CYS223     -0.2714
     79  CB        -4.1100   -2.2860  -18.8880 C.3   223  CYS223      0.0997
     80  SG        -3.3830   -2.7950  -17.3050 S.3   223  CYS223     -0.0797
     81  N         -3.4720   -1.4420  -22.1900 N.am  224  VAL224     -0.1963
     82  CA        -3.9980   -1.4350  -23.5560 C.3   224  VAL224      0.1727
     83  C         -2.7910   -1.5180  -24.5080 C.2   224  VAL224      0.2616
     84  O         -2.9290   -1.4120  -25.7310 O.2   224  VAL224     -0.2715
     85  CB        -4.8570   -0.1640  -23.8670 C.3   224  VAL224      0.0290
     86  CG1       -3.9690    1.0500  -24.0730 C.3   224  VAL224      0.0023
     87  CG2       -5.7230   -0.4130  -25.1080 C.3   224  VAL224      0.0023
     88  N         -1.6090   -1.7100  -23.9230 N.am  225  ALA225     -0.1977
     89  CA        -0.3530   -1.8530  -24.6710 C.3   225  ALA225      0.1597
     90  C         -0.0960   -0.7530  -25.6960 C.2   225  ALA225      0.2287
     91  O          0.3630   -1.0250  -26.8060 O.2   225  ALA225     -0.2864
     92  CB        -0.3180   -3.2180  -25.3640 C.3   225  ALA225      0.0319
     93  N          1.5120   -1.0720  -29.5120 N.3   229  ARG229     -0.1245
     94  CA         0.5210   -1.1420  -30.5740 C.3   229  ARG229      0.1563
     95  C         -0.1720    0.1350  -31.0270 C.2   229  ARG229      0.2260
     96  O         -1.3070    0.0900  -31.4960 O.2   229  ARG229     -0.2867
     97  CB        -0.5150   -2.1970  -30.1920 C.3   229  ARG229      0.0307
     98  CG         0.0960   -3.5820  -30.0980 C.3   229  ARG229      0.0489
     99  CD        -0.6870   -4.4890  -29.1720 C.3   229  ARG229      0.2205
    100  NE        -2.0960   -4.5890  -29.5400 N.pl3 229  ARG229     -0.0865
    101  CZ        -2.9840   -5.3100  -28.8630 C.cat 229  ARG229      0.5346
    102  NH1       -2.5990   -5.9900  -27.7900 N.pl3 229  ARG229      0.1354
    103  NH2       -4.2550   -5.3460  -29.2460 N.pl3 229  ARG229      0.1354
    104  N          0.9940   -7.8140   -3.8720 N.3   260  ASN260     -0.1225
    105  CA         0.3850   -7.7870   -5.1980 C.3   260  ASN260      0.1785
    106  C         -1.1070   -8.1020   -5.1570 C.2   260  ASN260      0.2597
    107  O         -1.6460   -8.7170   -6.0760 O.2   260  ASN260     -0.2718
    108  CB         1.0860   -8.7760   -6.1270 C.3   260  ASN260      0.1169
    109  CG         1.1350   -8.2850   -7.5610 C.2   260  ASN260      0.2627
    110  OD1        0.1120   -7.9130   -8.1440 O.2   260  ASN260     -0.2716
    111  ND2        2.3270   -8.2750   -8.1360 N.am  260  ASN260     -0.0877
    112  N         -1.7630   -7.6870   -4.0780 N.am  261  ALA261     -0.1979
    113  CA        -3.1940   -7.8930   -3.9130 C.3   261  ALA261      0.1597
    114  C         -3.6260   -9.3540   -4.0390 C.2   261  ALA261      0.2287
    115  O         -4.7650   -9.6390   -4.4170 O.2   261  ALA261     -0.2864
    116  CB        -3.9520   -7.0330   -4.9220 C.3   261  ALA261      0.0319
    117  N         -2.1220  -11.6790   -6.0530 N.3   263  ALA263     -0.1245
    118  CA        -1.9010  -12.2150   -7.3910 C.3   263  ALA263      0.1562
    119  C         -1.0410  -13.4810   -7.4400 C.2   263  ALA263      0.2260
    120  O         -0.9960  -14.1500   -8.4680 O.2   263  ALA263     -0.2867
    121  CB        -1.2840  -11.1380   -8.2850 C.3   263  ALA263      0.0290
    122  N          2.4950   -1.6720   -7.4020 N.3   309  ASN309     -0.1240
    123  CA         1.8280   -2.8980   -7.8390 C.3   309  ASN309      0.1653
    124  C          1.8630   -3.9590   -6.7350 C.2   309  ASN309      0.2266
    125  O          0.9080   -4.7120   -6.5530 O.2   309  ASN309     -0.2867
    126  CB         2.5300   -3.4840   -9.0760 C.3   309  ASN309      0.1155
    127  CG         2.2670   -2.6970  -10.3550 C.2   309  ASN309      0.2627
    128  OD1        2.9560   -2.8910  -11.3610 O.2   309  ASN309     -0.2716
    129  ND2        1.2670   -1.8330  -10.3350 N.am  309  ASN309     -0.0877
@<TRIPOS>BOND
     1    96    95    2
     2    95    94    1
     3    94    97    1
     4    94    93    1
     5    97    98    1
     6    98    99    1
     7   100    99    1
     8   100   101    2
     9   103   101    1
    10   101   102    1
    11    91    90    2
    12    84    83    2
    13    90    89    1
    14    92    89    1
    15    87    85    1
    16     6     7    1
    17    89    88    1
    18    83    88   am
    19    83    82    1
    20    86    85    1
    21    85    82    1
    22     7    10    1
    23     7     8    1
    24    82    81    1
    25     1     2    1
    26    10    11    1
    27     9     8    2
    28     8    12   am
    29     3     2    1
    30     3     4    2
    31     2     5    1
    32    81    77   am
    33    12    13    1
    34    78    77    2
    35    77    76    1
    36    74    73    2
    37    13    14    1
    38    13    16    1
    39    73    72    1
    40    73    75   am
    41    15    14    2
    42    72    71    1
    43    76    75    1
    44    76    79    1
    45    14    18   am
    46    16    17    1
    47    18    19    1
    48    79    80    1
    49    71    65   am
    50    66    65    2
    51    19    22    1
    52    19    20    1
    53    65    64    1
    54    22    23    1
    55    20    21    2
    56    64    63    1
    57    64    67    1
    58    23    25    1
    59    23    24    1
    60    67    68    1
    61    36    34    1
    62    68    69    2
    63    68    70   am
    64    35    34    1
    65    34    33    2
    66    26    27    1
    67    33    32    1
    68    41    42    1
    69    41    38    1
    70    30    27    1
    71    30    31    1
    72    27    28    1
    73    55    54    2
    74    32    31    1
    75    28    29    2
    76    28    37   am
    77    54    53    1
    78    37    38    1
    79   128   127    2
    80    38    39    1
    81    56    53    1
    82    56    57    1
    83    40    39    2
    84    58    57   ar
    85    58    60   ar
    86    53    52    1
    87   127   129   am
    88   127   126    1
    89    39    43   am
    90    57    59   ar
    91    52    45   am
    92    60    62   ar
    93    43    44    1
    94   126   123    1
    95    45    44    1
    96    45    46    2
    97    59    61   ar
    98   120   119    2
    99    44    47    1
   100    62    61   ar
   101   121   118    1
   102   110   109    2
   103   111   109   am
   104   123   122    1
   105   123   124    1
   106    51    49   ar
   107   109   108    1
   108   119   118    1
   109   118   117    1
   110    47    48    1
   111    49    48    1
   112    49    50   ar
   113   124   125    2
   114   108   105    1
   115   107   106    2
   116   105   106    1
   117   105   104    1
   118   106   112   am
   119   116   113    1
   120   115   114    2
   121   112   113    1
   122   114   113    1
