@<TRIPOS>MOLECULE
tmp/3or1D00.pdb
 217 201 0 0 0
SMALL
GASTEIGER

@<TRIPOS>ATOM
      1  N         -7.5110   -9.5190  -51.0050 N.3    66  GLY66      -0.1225
      2  CA        -8.1660   -8.2360  -50.8030 C.3    66  GLY66       0.1811
      3  C         -9.6720   -8.1010  -50.9050 C.2    66  GLY66       0.2280
      4  O        -10.4270   -9.0060  -50.5620 O.2    66  GLY66      -0.2866
      5  N        -14.0000   -4.2900  -44.2610 N.3    79  ILE79      -0.1245
      6  CA       -12.9570   -5.1060  -44.8700 C.3    79  ILE79       0.1561
      7  C        -13.6560   -6.1430  -45.7290 C.2    79  ILE79       0.2260
      8  O        -14.1480   -7.1450  -45.2210 O.2    79  ILE79      -0.2867
      9  CB       -12.1070   -5.8420  -43.8090 C.3    79  ILE79       0.0252
     10  CG1      -11.4890   -4.8330  -42.8310 C.3    79  ILE79       0.0019
     11  CG2      -11.0210   -6.6600  -44.4960 C.3    79  ILE79       0.0019
     12  CD1      -10.5980   -3.7880  -43.4840 C.3    79  ILE79       0.0001
     13  N        -14.2860   -9.2180  -48.3140 N.3    81  ARG81      -0.1245
     14  CA       -13.6370  -10.5090  -48.5120 C.3    81  ARG81       0.1563
     15  C        -14.5540  -11.4320  -49.3000 C.2    81  ARG81       0.2260
     16  O        -15.7700  -11.4550  -49.0880 O.2    81  ARG81      -0.2867
     17  CB       -13.2880  -11.1620  -47.1690 C.3    81  ARG81       0.0307
     18  CG       -12.1750  -12.2010  -47.2830 C.3    81  ARG81       0.0489
     19  CD       -10.8530  -11.5150  -47.6350 C.3    81  ARG81       0.2205
     20  NE       -10.2120  -10.9270  -46.4580 N.pl3  81  ARG81      -0.0865
     21  CZ        -9.4090   -9.8660  -46.4860 C.cat  81  ARG81       0.5346
     22  NH1       -9.1460   -9.2510  -47.6320 N.pl3  81  ARG81       0.1354
     23  NH2       -8.8410   -9.4340  -45.3700 N.pl3  81  ARG81       0.1354
     24  N        -16.3940   -7.9180  -43.4360 N.3    97  THR97      -0.1218
     25  CA       -16.3350   -7.6010  -42.0200 C.3    97  THR97       0.1862
     26  C        -16.6080   -6.1210  -41.8400 C.2    97  THR97       0.2287
     27  O        -16.0330   -5.2860  -42.5360 O.2    97  THR97      -0.2866
     28  CB       -14.9520   -7.9150  -41.4220 C.3    97  THR97       0.1770
     29  OG1      -14.8720   -9.3120  -41.1140 O.3    97  THR97      -0.2211
     30  CG2      -14.7140   -7.0930  -40.1530 C.3    97  THR97       0.0375
     31  N        -16.4100   -3.0370  -39.2060 N.3    99  ARG99      -0.1197
     32  CA       -15.7840   -2.6160  -37.9510 C.3    99  ARG99       0.1779
     33  C        -16.6120   -1.5050  -37.3320 C.2    99  ARG99       0.2305
     34  O        -16.7230   -0.5040  -37.9470 O.2    99  ARG99      -0.2863
     35  CB       -14.4230   -2.0800  -38.1760 C.2    99  ARG99      -0.0007
     36  CG       -13.4500   -2.9670  -38.6960 C.2    99  ARG99       0.0176
     37  CD       -12.0080   -2.4510  -38.9520 C.3    99  ARG99       0.2464
     38  NE       -11.1330   -3.4970  -39.3560 N.pl3  99  ARG99      -0.0815
     39  CZ        -9.8550   -3.3980  -39.6030 C.cat  99  ARG99       0.5349
     40  NH1       -9.3190   -2.2930  -39.4070 N.pl3  99  ARG99       0.1354
     41  NH2       -9.0930   -4.3960  -39.9150 N.pl3  99  ARG99       0.1354
     42  N        -16.4930  -10.7710  -33.8280 N.3   129  ASN129     -0.1240
     43  CA       -15.3220  -10.7580  -32.9620 C.3   129  ASN129      0.1653
     44  C        -15.5160   -9.6930  -31.8910 C.2   129  ASN129      0.2266
     45  O        -15.7250   -8.5810  -32.2180 O.2   129  ASN129     -0.2867
     46  CB       -14.0460  -10.3570  -33.6740 C.3   129  ASN129      0.1155
     47  CG       -13.4980  -11.4100  -34.6510 C.2   129  ASN129      0.2627
     48  OD1      -12.5070  -11.1690  -35.2700 O.2   129  ASN129     -0.2716
     49  ND2      -14.1090  -12.5400  -34.7350 N.am  129  ASN129     -0.0877
     50  N        -13.2180   -8.4540  -29.0680 N.3   131  HIS131     -0.1226
     51  CA       -13.2970   -7.3880  -30.0740 C.3   131  HIS131      0.1752
     52  C        -12.0560   -7.5080  -31.0030 C.2   131  HIS131      0.2597
     53  O        -11.2170   -8.2050  -30.7060 O.2   131  HIS131     -0.2718
     54  CB       -13.1830   -6.0760  -29.3380 C.3   131  HIS131      0.0759
     55  CG       -14.3930   -5.7320  -28.5380 C.ar  131  HIS131      0.0818
     56  ND1      -14.7830   -6.4480  -27.4470 N.ar  131  HIS131     -0.2268
     57  CD2      -15.3020   -4.7580  -28.6940 C.ar  131  HIS131      0.1154
     58  CE1      -15.8790   -5.9260  -26.9590 C.ar  131  HIS131      0.1986
     59  NE2      -16.2270   -4.9140  -27.7080 N.ar  131  HIS131     -0.2212
     60  N        -11.9720   -6.7710  -32.0970 N.am  132  GLY132     -0.1942
     61  CA       -10.7460   -6.7840  -32.8840 C.3   132  GLY132      0.2014
     62  C         -9.5440   -6.2360  -32.1200 C.2   132  GLY132      0.2640
     63  O         -9.8310   -5.5630  -31.1790 O.2   132  GLY132     -0.2714
     64  N         -8.2660   -6.5170  -32.4650 N.am  133  SER133     -0.1935
     65  CA        -7.1740   -6.0700  -31.6230 C.3   133  SER133      0.2055
     66  C         -7.0610   -4.5660  -31.4200 C.2   133  SER133      0.2644
     67  O         -6.5180   -4.1230  -30.4100 O.2   133  SER133     -0.2714
     68  CB        -5.8640   -6.6390  -32.1600 C.3   133  SER133      0.2130
     69  OG        -5.9550   -8.0530  -32.2020 O.3   133  SER133     -0.2179
     70  N         -7.5710   -3.7680  -32.3510 N.am  134  THR134     -0.1936
     71  CA        -7.4790   -2.3250  -32.1640 C.3   134  THR134      0.2028
     72  C         -8.5870   -1.8110  -31.2420 C.2   134  THR134      0.2643
     73  O         -8.4690   -0.7240  -30.6820 O.2   134  THR134     -0.2714
     74  CB        -7.5130   -1.5750  -33.5110 C.3   134  THR134      0.1808
     75  OG1       -6.5340   -2.1480  -34.3870 O.3   134  THR134     -0.2208
     76  CG2       -7.1800   -0.1010  -33.3200 C.3   134  THR134      0.0379
     77  N         -9.6560   -2.5920  -31.0840 N.am  135  GLY135     -0.1939
     78  CA       -10.7380   -2.1930  -30.1950 C.3   135  GLY135      0.2014
     79  C        -12.1440   -2.2660  -30.7640 C.2   135  GLY135      0.2638
     80  O        -13.1200   -2.3910  -30.0190 O.2   135  GLY135     -0.2714
     81  N        -12.2560   -2.1900  -32.0840 N.am  136  ASP136     -0.1971
     82  CA       -13.5590   -2.2270  -32.7450 C.3   136  ASP136      0.1709
     83  C        -14.3910   -3.4720  -32.4920 C.2   136  ASP136      0.2293
     84  O        -13.8650   -4.5620  -32.2730 O.2   136  ASP136     -0.2864
     85  CB       -13.3970   -2.1140  -34.2630 C.3   136  ASP136      0.1436
     86  CG       -12.7480   -0.8230  -34.6890 C.2   136  ASP136      0.3671
     87  OD1      -13.3850    0.2400  -34.5340 O.co2 136  ASP136     -0.2456
     88  OD2      -11.5970   -0.8800  -35.1810 O.co2 136  ASP136     -0.2456
     89  N        -16.4180   -6.2120  -34.0470 N.3   138  VAL138     -0.1245
     90  CA       -16.3220   -6.7460  -35.3990 C.3   138  VAL138      0.1561
     91  C        -17.5280   -7.5890  -35.7900 C.2   138  VAL138      0.2260
     92  O        -17.8280   -8.5920  -35.1430 O.2   138  VAL138     -0.2867
     93  CB       -15.0430   -7.5980  -35.5600 C.3   138  VAL138      0.0252
     94  CG1      -15.0970   -8.3960  -36.8640 C.3   138  VAL138      0.0019
     95  CG2      -13.8180   -6.6920  -35.5370 C.3   138  VAL138      0.0019
     96  N        -18.5990   -9.9960  -38.2340 N.3   140  LEU140     -0.1245
     97  CA       -17.9470  -10.8970  -39.1690 C.3   140  LEU140      0.1561
     98  C        -18.7690  -11.5960  -40.2390 C.2   140  LEU140      0.2260
     99  O        -19.3840  -12.6260  -39.9740 O.2   140  LEU140     -0.2867
    100  CB       -17.1850  -11.9590  -38.3670 C.3   140  LEU140      0.0270
    101  CG       -16.3240  -12.9480  -39.1530 C.3   140  LEU140      0.0019
    102  CD1      -15.0250  -12.2660  -39.5570 C.3   140  LEU140      0.0001
    103  CD2      -16.0330  -14.1750  -38.2950 C.3   140  LEU140      0.0001
    104  N         -6.9500    5.1630  -37.0010 N.3   170  ARG170     -0.1245
    105  CA        -7.7520    4.0030  -36.6470 C.3   170  ARG170      0.1563
    106  C         -8.5070    4.2460  -35.3470 C.2   170  ARG170      0.2260
    107  O         -8.2740    5.2320  -34.6490 O.2   170  ARG170     -0.2867
    108  CB        -6.8630    2.7660  -36.4960 C.3   170  ARG170      0.0307
    109  CG        -6.1120    2.3890  -37.7610 C.3   170  ARG170      0.0489
    110  CD        -7.0430    2.3590  -38.9670 C.3   170  ARG170      0.2205
    111  NE        -6.3520    1.9330  -40.1800 N.pl3 170  ARG170     -0.0865
    112  CZ        -5.8990    0.7010  -40.3840 C.cat 170  ARG170      0.5346
    113  NH1       -6.0670   -0.2290  -39.4550 N.pl3 170  ARG170      0.1354
    114  NH2       -5.2820    0.3980  -41.5170 N.pl3 170  ARG170      0.1354
    115  N         -0.0250    6.6600  -44.4340 N.3   210  TYR210     -0.1227
    116  CA        -0.2640    5.2810  -44.0190 C.3   210  TYR210      0.1736
    117  C         -1.2050    5.2890  -42.8150 C.2   210  TYR210      0.2595
    118  O         -1.7440    6.3350  -42.4540 O.2   210  TYR210     -0.2718
    119  CB         1.0710    4.6490  -43.6310 C.3   210  TYR210      0.0548
    120  CG         1.1450    3.1430  -43.7170 C.ar  210  TYR210     -0.0200
    121  CD1        2.3130    2.4740  -43.3490 C.ar  210  TYR210     -0.0009
    122  CD2        0.0700    2.3850  -44.1800 C.ar  210  TYR210     -0.0009
    123  CE1        2.4100    1.0900  -43.4410 C.ar  210  TYR210      0.0417
    124  CE2        0.1600    0.9940  -44.2760 C.ar  210  TYR210      0.0417
    125  CZ         1.3310    0.3590  -43.9040 C.ar  210  TYR210      0.1957
    126  OH         1.4380   -1.0080  -44.0000 O.3   210  TYR210     -0.2866
    127  N         -1.3980    4.1290  -42.1920 N.am  211  LYS211     -0.1980
    128  CA        -2.2680    4.0260  -41.0240 C.3   211  LYS211      0.1596
    129  C         -1.6340    4.7440  -39.8270 C.2   211  LYS211      0.2287
    130  O         -0.4220    4.9650  -39.7930 O.2   211  LYS211     -0.2864
    131  CB        -2.5190    2.5500  -40.6740 C.3   211  LYS211      0.0298
    132  CG        -1.3040    1.8180  -40.1030 C.3   211  LYS211      0.0038
    133  CD        -1.5880    0.3490  -39.8000 C.3   211  LYS211      0.0206
    134  CE        -1.6360   -0.4990  -41.0600 C.3   211  LYS211      0.1093
    135  NZ        -1.7100   -1.9580  -40.7430 N.3   211  LYS211     -0.1314
    136  N         -2.3660    5.0660  -35.3700 N.3   213  LYS213     -0.1245
    137  CA        -3.1470    4.6300  -34.2170 C.3   213  LYS213      0.1561
    138  C         -2.8680    5.3930  -32.9200 C.2   213  LYS213      0.2260
    139  O         -1.7360    5.8010  -32.6670 O.2   213  LYS213     -0.2867
    140  CB        -2.8890    3.1360  -33.9820 C.3   213  LYS213      0.0271
    141  CG        -3.2630    2.2540  -35.1700 C.3   213  LYS213      0.0035
    142  CD        -2.8840    0.7960  -34.9510 C.3   213  LYS213      0.0206
    143  CE        -3.2930   -0.0500  -36.1510 C.3   213  LYS213      0.1093
    144  NZ        -2.8560   -1.4660  -36.0190 N.3   213  LYS213     -0.1314
    145  N         -3.5340    5.1530  -28.6290 N.3   215  LYS215     -0.1245
    146  CA        -3.8640    4.2330  -27.5370 C.3   215  LYS215      0.1561
    147  C         -3.5250    4.9680  -26.2400 C.2   215  LYS215      0.2260
    148  O         -2.5070    5.6620  -26.1540 O.2   215  LYS215     -0.2867
    149  CB        -3.1110    2.8980  -27.6490 C.3   215  LYS215      0.0271
    150  CG        -3.8200    1.8650  -28.5550 C.3   215  LYS215      0.0035
    151  CD        -3.1760    0.4800  -28.4380 C.3   215  LYS215      0.0206
    152  CE        -3.9830   -0.6080  -29.1660 C.3   215  LYS215      0.1093
    153  NZ        -3.9490   -0.4630  -30.6550 N.3   215  LYS215     -0.1314
    154  N          3.3030   -0.4920  -27.5560 N.3   228  ALA228     -0.1231
    155  CA         3.6830   -1.5010  -28.5230 C.3   228  ALA228      0.1694
    156  C          2.7370   -1.5490  -29.7070 C.2   228  ALA228      0.2591
    157  O          3.1150   -1.9940  -30.7890 O.2   228  ALA228     -0.2718
    158  CB         3.7320   -2.8710  -27.8450 C.3   228  ALA228      0.0304
    159  N          1.5120   -1.0720  -29.5120 N.am  229  ARG229     -0.1980
    160  CA         0.5210   -1.1420  -30.5740 C.3   229  ARG229      0.1597
    161  C         -0.1720    0.1350  -31.0270 C.2   229  ARG229      0.2287
    162  O         -1.3070    0.0900  -31.4960 O.2   229  ARG229     -0.2864
    163  CB        -0.5150   -2.1970  -30.1920 C.3   229  ARG229      0.0334
    164  CG         0.0960   -3.5820  -30.0980 C.3   229  ARG229      0.0492
    165  CD        -0.6870   -4.4890  -29.1720 C.3   229  ARG229      0.2205
    166  NE        -2.0960   -4.5890  -29.5400 N.pl3 229  ARG229     -0.0865
    167  CZ        -2.9840   -5.3100  -28.8630 C.cat 229  ARG229      0.5346
    168  NH1       -2.5990   -5.9900  -27.7900 N.pl3 229  ARG229      0.1354
    169  NH2       -4.2550   -5.3460  -29.2460 N.pl3 229  ARG229      0.1354
    170  N          5.6550    3.2820  -32.4090 N.3   329  ALA329     -0.1231
    171  CA         5.4760    1.8370  -32.3210 C.3   329  ALA329      0.1694
    172  C          4.8690    1.2700  -33.5990 C.2   329  ALA329      0.2592
    173  O          4.0780    1.9310  -34.2710 O.2   329  ALA329     -0.2718
    174  CB         4.5980    1.4830  -31.1260 C.3   329  ALA329      0.0304
    175  N          5.2560    0.0430  -33.9350 N.am  330  LYS330     -0.1966
    176  CA         4.7330   -0.6210  -35.1250 C.3   330  LYS330      0.1728
    177  C          5.2310   -2.0530  -35.2210 C.2   330  LYS330      0.2616
    178  O          6.2510   -2.4150  -34.6280 O.2   330  LYS330     -0.2715
    179  CB         5.1530    0.1280  -36.3970 C.3   330  LYS330      0.0311
    180  CG         6.6670    0.2430  -36.5690 C.3   330  LYS330      0.0038
    181  CD         7.0390    0.8670  -37.9100 C.3   330  LYS330      0.0206
    182  CE         6.7900   -0.0850  -39.0830 C.3   330  LYS330      0.1093
    183  NZ         7.7480   -1.2310  -39.1020 N.3   330  LYS330     -0.1314
    184  N          4.4950   -2.8640  -35.9730 N.am  331  ALA331     -0.1977
    185  CA         4.8730   -4.2520  -36.1900 C.3   331  ALA331      0.1597
    186  C          6.0930   -4.2280  -37.1130 C.2   331  ALA331      0.2287
    187  O          6.4200   -3.1940  -37.6950 O.2   331  ALA331     -0.2864
    188  CB         3.7180   -5.0130  -36.8360 C.3   331  ALA331      0.0319
    189  N          6.9410   -5.0610  -40.3850 N.3   333  VAL333     -0.1301
    190  CA         6.9160   -4.5970  -41.7540 C.3   333  VAL333      0.1246
    191  C          7.0190   -3.0810  -41.8900 C.3   333  VAL333      0.2009
    192  O          6.3660   -2.5630  -41.2240 O.3   333  VAL333     -0.2188
    193  CB         5.6300   -5.1370  -42.3560 C.3   333  VAL333      0.0202
    194  CG1        5.2940   -4.4940  -43.2840 C.3   333  VAL333      0.0016
    195  CG2        5.9010   -6.6010  -42.7570 C.3   333  VAL333      0.0016
    196  N          3.0260    4.7360  -47.7560 N.3   374  ARG374     -0.1245
    197  CA         3.0030    3.5550  -46.8960 C.3   374  ARG374      0.1563
    198  C          4.1350    3.5100  -45.8660 C.2   374  ARG374      0.2260
    199  O          4.6370    2.4380  -45.5250 O.2   374  ARG374     -0.2867
    200  CB         3.0350    2.2820  -47.7490 C.3   374  ARG374      0.0307
    201  CG         1.9720    2.2440  -48.8340 C.3   374  ARG374      0.0489
    202  CD         1.9490    0.9150  -49.5880 C.3   374  ARG374      0.2205
    203  NE         1.2450   -0.1410  -48.8610 N.pl3 374  ARG374     -0.0865
    204  CZ         1.7570   -0.8390  -47.8510 C.cat 374  ARG374      0.5346
    205  NH1        2.9940   -0.6060  -47.4360 N.pl3 374  ARG374      0.1354
    206  NH2        1.0270   -1.7710  -47.2520 N.pl3 374  ARG374      0.1354
    207  N          5.1410    4.2540  -42.0310 N.3   376  ARG376     -0.1245
    208  CA         4.6300    4.5120  -40.6810 C.3   376  ARG376      0.1563
    209  C          5.4650    5.6120  -40.0380 C.2   376  ARG376      0.2260
    210  O          6.6230    5.8110  -40.3980 O.2   376  ARG376     -0.2867
    211  CB         4.7330    3.2570  -39.7980 C.3   376  ARG376      0.0307
    212  CG         3.8730    2.0690  -40.2120 C.3   376  ARG376      0.0489
    213  CD         2.3850    2.3570  -40.0450 C.3   376  ARG376      0.2205
    214  NE         1.9330    2.4140  -38.6500 N.pl3 376  ARG376     -0.0865
    215  CZ         1.6080    1.3550  -37.9130 C.cat 376  ARG376      0.5346
    216  NH1        1.1960    1.5180  -36.6630 N.pl3 376  ARG376      0.1354
    217  NH2        1.6960    0.1300  -38.4140 N.pl3 376  ARG376      0.1354
@<TRIPOS>BOND
     1     1     2    1
     2     3     2    1
     3     3     4    2
     4   202   203    1
     5   202   201    1
     6    15    16    2
     7    15    14    1
     8   203   204    2
     9   201   200    1
    10    14    13    1
    11    14    17    1
    12   204   205    1
    13   204   206    1
    14   196   197    1
    15   200   197    1
    16    19    18    1
    17    19    20    1
    18    22    21    1
    19    18    17    1
    20   197   198    1
    21    21    20    2
    22    21    23    1
    23   198   199    2
    24     7     8    2
    25     7     6    1
    26     6     5    1
    27     6     9    1
    28    11     9    1
    29   115   116    1
    30   124   122   ar
    31   124   125   ar
    32   122   120   ar
    33   116   119    1
    34   116   117    1
    35   126   125    1
    36   125   123   ar
    37     9    10    1
    38   120   119    1
    39   120   121   ar
    40    12    10    1
    41   123   121   ar
    42    24    25    1
    43   194   193    1
    44   117   118    2
    45   117   127   am
    46   195   193    1
    47    27    26    2
    48   193   190    1
    49   127   128    1
    50   207   208    1
    51    25    26    1
    52    25    28    1
    53   191   190    1
    54   191   192    1
    55   190   189    1
    56   114   112    1
    57    28    29    1
    58    28    30    1
    59   134   135    1
    60   134   133    1
    61   128   131    1
    62   128   129    1
    63   208   209    1
    64   208   211    1
    65   131   132    1
    66   210   209    2
    67   112   111    2
    68   112   113    1
    69    98    99    2
    70    98    97    1
    71   212   213    1
    72   212   211    1
    73   111   110    1
    74   132   133    1
    75   213   214    1
    76    41    39    1
    77   129   130    2
    78    39    40    1
    79    39    38    2
    80   102   101    1
    81    38    37    1
    82    31    32    1
    83    97   100    1
    84    97    96    1
    85   101   100    1
    86   101   103    1
    87   183   182    1
    88   182   181    1
    89   110   109    1
    90    37    36    1
    91    36    35    2
    92   214   215    2
    93   217   215    1
    94    35    32    1
    95    32    33    1
    96    34    33    2
    97   215   216    1
    98   181   180    1
    99   109   108    1
   100   187   186    2
   101   186   185    1
   102   104   105    1
   103    94    93    1
   104   188   185    1
   105   105   108    1
   106   105   106    1
   107   180   179    1
   108   179   176    1
   109   185   184    1
   110   143   144    1
   111   143   142    1
   112   184   177   am
   113    91    90    1
   114    91    92    2
   115    93    95    1
   116    93    90    1
   117    90    89    1
   118   136   137    1
   119   106   107    2
   120    48    47    2
   121   177   176    1
   122   177   178    2
   123    88    86   ar
   124   141   142    1
   125   141   140    1
   126   176   175    1
   127    49    47   am
   128    86    87   ar
   129    86    85    1
   130    47    46    1
   131    75    74    1
   132   173   172    2
   133    85    82    1
   134   137   140    1
   135   137   138    1
   136   175   172   am
   137    42    43    1
   138    46    43    1
   139   172   171    1
   140    74    76    1
   141    74    71    1
   142    43    44    1
   143   138   139    2
   144    61    62    1
   145    61    60    1
   146    82    83    1
   147    82    81    1
   148    83    84    2
   149    64    62   am
   150    64    65    1
   151   170   171    1
   152    70    71    1
   153    70    66   am
   154   171   174    1
   155    45    44    2
   156    69    68    1
   157    71    72    1
   158    68    65    1
   159    62    63    2
   160    60    52   am
   161    81    79   am
   162    65    66    1
   163   162   161    2
   164    66    67    2
   165    72    77   am
   166    72    73    2
   167    77    78    1
   168   161   160    1
   169    52    53    2
   170    52    51    1
   171   157   156    2
   172    79    78    1
   173    79    80    2
   174   153   152    1
   175   160   163    1
   176   160   159    1
   177   163   164    1
   178   164   165    1
   179    51    54    1
   180    51    50    1
   181   156   159   am
   182   156   155    1
   183   166   165    1
   184   166   167    2
   185    54    55    1
   186   169   167    1
   187   152   151    1
   188   167   168    1
   189    57    55   ar
   190    57    59   ar
   191   145   146    1
   192   150   151    1
   193   150   149    1
   194    55    56   ar
   195   155   158    1
   196   155   154    1
   197    59    58   ar
   198   149   146    1
   199   146   147    1
   200    56    58   ar
   201   147   148    2
