@<TRIPOS>MOLECULE
tmp/3or2E00.pdb
 131 128 0 0 0
SMALL
GASTEIGER

@<TRIPOS>ATOM
      1  N        -18.4030  -12.7450   38.0950 N.3    70  ARG70      -0.1245
      2  CA       -18.2420  -11.5610   37.2420 C.3    70  ARG70       0.1563
      3  C        -19.1470  -11.6760   36.0140 C.2    70  ARG70       0.2260
      4  O        -19.9760  -10.7950   35.7510 O.2    70  ARG70      -0.2867
      5  CB       -16.7750  -11.3800   36.8320 C.3    70  ARG70       0.0307
      6  CG       -16.3910   -9.9210   36.6230 C.3    70  ARG70       0.0489
      7  CD       -16.9290   -9.3940   35.3020 C.3    70  ARG70       0.2205
      8  NE       -16.1410   -9.9060   34.1870 N.pl3  70  ARG70      -0.0865
      9  CZ       -15.0570   -9.3130   33.6930 C.cat  70  ARG70       0.5346
     10  NH1      -14.6230   -8.1700   34.2000 N.pl3  70  ARG70       0.1354
     11  NH2      -14.3870   -9.8800   32.7050 N.pl3  70  ARG70       0.1354
     12  N        -10.2250  -10.5490   35.9270 N.3   143  HIS143     -0.1226
     13  CA       -10.0170  -11.1960   34.6330 C.3   143  HIS143      0.1752
     14  C        -10.6900  -10.5740   33.4210 C.2   143  HIS143      0.2597
     15  O        -11.4010   -9.5710   33.5250 O.2   143  HIS143     -0.2718
     16  CB       -10.3550  -12.6920   34.7260 C.3   143  HIS143      0.0759
     17  CG       -11.7720  -12.9830   35.1150 C.ar  143  HIS143      0.0818
     18  ND1      -12.7870  -13.1270   34.1910 N.ar  143  HIS143     -0.2268
     19  CD2      -12.3410  -13.1690   36.3270 C.ar  143  HIS143      0.1154
     20  CE1      -13.9190  -13.3910   34.8190 C.ar  143  HIS143      0.1986
     21  NE2      -13.6760  -13.4200   36.1160 N.ar  143  HIS143     -0.2212
     22  N        -10.4640  -11.2010   32.2670 N.am  144  THR144     -0.1939
     23  CA       -10.9540  -10.6920   30.9960 C.3   144  THR144      0.2028
     24  C        -12.0680  -11.4570   30.2770 C.2   144  THR144      0.2642
     25  O        -12.7880  -12.2560   30.8770 O.2   144  THR144     -0.2714
     26  CB        -9.7530  -10.5300   30.0260 C.3   144  THR144      0.1808
     27  OG1       -8.8530  -11.6370   30.1930 O.3   144  THR144     -0.2208
     28  CG2       -9.0070   -9.2510   30.3110 C.3   144  THR144      0.0379
     29  N        -12.1830  -11.1950   28.9750 N.am  145  GLN145     -0.1976
     30  CA       -13.1960  -11.8000   28.1150 C.3   145  GLN145      0.1601
     31  C        -12.8950  -13.2080   27.6270 C.2   145  GLN145      0.2287
     32  O        -13.7820  -14.0630   27.6110 O.2   145  GLN145     -0.2864
     33  CB       -13.4330  -10.9100   26.8920 C.3   145  GLN145      0.0394
     34  CG       -13.9300   -9.5320   27.2380 C.3   145  GLN145      0.0908
     35  CD       -15.2020   -9.5910   28.0610 C.2   145  GLN145      0.2608
     36  OE1      -15.2400   -9.1170   29.1960 O.2   145  GLN145     -0.2717
     37  NE2      -16.2480  -10.1930   27.4960 N.am  145  GLN145     -0.0878
     38  N        -15.9100  -13.4620   24.4010 N.3   149  TYR149     -0.1227
     39  CA       -16.2450  -12.2970   23.6090 C.3   149  TYR149      0.1736
     40  C        -15.1510  -11.6050   22.7920 C.2   149  TYR149      0.2596
     41  O        -15.4570  -10.9000   21.8270 O.2   149  TYR149     -0.2718
     42  CB       -16.8750  -11.2720   24.5460 C.3   149  TYR149      0.0548
     43  CG       -17.6150  -10.1810   23.8460 C.ar  149  TYR149     -0.0200
     44  CD1      -18.9660  -10.2980   23.5730 C.ar  149  TYR149     -0.0009
     45  CD2      -16.9610   -9.0340   23.4370 C.ar  149  TYR149     -0.0009
     46  CE1      -19.6360   -9.2990   22.9170 C.ar  149  TYR149      0.0417
     47  CE2      -17.6160   -8.0310   22.7730 C.ar  149  TYR149      0.0417
     48  CZ       -18.9590   -8.1650   22.5150 C.ar  149  TYR149      0.1957
     49  OH       -19.6260   -7.1570   21.8550 O.3   149  TYR149     -0.2866
     50  N        -13.8860  -11.7810   23.1560 N.am  150  CYS150     -0.1956
     51  CA       -12.8210  -11.0890   22.4240 C.3   150  CYS150      0.1843
     52  C        -12.2610  -11.8330   21.2130 C.2   150  CYS150      0.2625
     53  O        -12.3640  -13.0510   21.1120 O.2   150  CYS150     -0.2714
     54  CB       -11.6760  -10.7250   23.3770 C.3   150  CYS150      0.0997
     55  SG       -10.5100   -9.5630   22.6550 S.3   150  CYS150     -0.0797
     56  N        -11.6680  -11.0810   20.2900 N.am  151  HIS151     -0.1959
     57  CA       -11.1030  -11.6710   19.0840 C.3   151  HIS151      0.1787
     58  C         -9.5820  -11.8480   19.1390 C.2   151  HIS151      0.2620
     59  O         -9.0200  -12.5680   18.3230 O.2   151  HIS151     -0.2715
     60  CB       -11.4830  -10.8350   17.8620 C.3   151  HIS151      0.0785
     61  CG       -10.9090   -9.4550   17.8720 C.ar  151  HIS151      0.0821
     62  ND1      -11.2480   -8.5160   18.8210 N.ar  151  HIS151     -0.2267
     63  CD2      -10.0070   -8.8580   17.0570 C.ar  151  HIS151      0.1154
     64  CE1      -10.5780   -7.4000   18.5920 C.ar  151  HIS151      0.1986
     65  NE2       -9.8180   -7.5820   17.5270 N.ar  151  HIS151     -0.2212
     66  N         -8.9110  -11.2150   20.1020 N.am  152  THR152     -0.1951
     67  CA        -7.4570  -11.3670   20.2000 C.3   152  THR152      0.1897
     68  C         -6.9180  -12.3020   21.2940 C.2   152  THR152      0.2313
     69  O         -5.7260  -12.2870   21.5700 O.2   152  THR152     -0.2863
     70  CB        -6.7490   -9.9950   20.3690 C.3   152  THR152      0.1794
     71  OG1       -7.2870   -9.3030   21.5050 O.3   152  THR152     -0.2208
     72  CG2       -6.9290   -9.1500   19.1240 C.3   152  THR152      0.0378
     73  N         -2.2080   -7.7640   25.6780 N.3   190  ASN190     -0.1225
     74  CA        -2.6970   -6.3940   25.8790 C.3   190  ASN190      0.1785
     75  C         -2.8000   -6.2640   27.3910 C.2   190  ASN190      0.2597
     76  O         -2.8030   -5.1640   27.9520 O.2   190  ASN190     -0.2718
     77  CB        -4.0850   -6.2150   25.2770 C.3   190  ASN190      0.1169
     78  CG        -4.0500   -6.0270   23.7860 C.2   190  ASN190      0.2627
     79  OD1       -5.0780   -6.1350   23.1130 O.2   190  ASN190     -0.2716
     80  ND2       -2.8710   -5.7260   23.2570 N.am  190  ASN190     -0.0877
     81  N         -2.9130   -7.4250   28.0300 N.am  191  MET191     -0.1965
     82  CA        -2.9950   -7.5420   29.4750 C.3   191  MET191      0.1736
     83  C         -3.9810   -6.6040   30.1460 C.2   191  MET191      0.2617
     84  O         -3.6110   -5.7870   30.9920 O.2   191  MET191     -0.2715
     85  CB        -1.5940   -7.3720   30.0760 C.3   191  MET191      0.0427
     86  CG        -0.7190   -8.6090   29.8900 C.3   191  MET191      0.0599
     87  SD         1.0460   -8.3480   30.1790 S.3   191  MET191     -0.1393
     88  CE         1.0280   -7.6930   31.8240 C.3   191  MET191      0.0692
     89  N         -5.2430   -6.7160   29.7600 N.am  192  CYS192     -0.1954
     90  CA        -6.2660   -5.8960   30.3740 C.3   192  CYS192      0.1843
     91  C         -6.3430   -6.3860   31.8150 C.2   192  CYS192      0.2626
     92  O         -6.0620   -7.5600   32.0930 O.2   192  CYS192     -0.2714
     93  CB        -7.6060   -6.0910   29.6560 C.3   192  CYS192      0.0997
     94  SG        -7.5670   -5.5360   27.9320 S.3   192  CYS192     -0.0797
     95  N         -6.6880   -5.4950   32.7370 N.am  193  GLY193     -0.1954
     96  CA        -6.7720   -5.9140   34.1230 C.3   193  GLY193      0.1869
     97  C         -5.5540   -5.5770   34.9660 C.2   193  GLY193      0.2309
     98  O         -4.9790   -4.4910   34.8400 O.2   193  GLY193     -0.2863
     99  N         -0.0490   -7.3010   35.4210 N.3   196  HIS196     -0.1241
    100  CA         1.2610   -6.6850   35.6280 C.3   196  HIS196      0.1621
    101  C          1.5500   -6.1310   37.0190 C.2   196  HIS196      0.2264
    102  O          2.6580   -5.6620   37.2770 O.2   196  HIS196     -0.2867
    103  CB         1.4870   -5.5790   34.5900 C.3   196  HIS196      0.0745
    104  CG         0.5820   -4.4000   34.7540 C.ar  196  HIS196      0.0817
    105  ND1       -0.7890   -4.4930   34.6440 N.ar  196  HIS196     -0.2268
    106  CD2        0.8500   -3.1020   35.0320 C.ar  196  HIS196      0.1154
    107  CE1       -1.3270   -3.3030   34.8490 C.ar  196  HIS196      0.1986
    108  NE2       -0.3540   -2.4410   35.0860 N.ar  196  HIS196     -0.2212
    109  N          0.0300   -7.7180   18.1880 N.3   262  ASN262     -0.1240
    110  CA        -0.4090   -6.3340   18.0820 C.3   262  ASN262      0.1653
    111  C         -0.7200   -5.9290   16.6460 C.2   262  ASN262      0.2266
    112  O         -1.5440   -5.0410   16.4180 O.2   262  ASN262     -0.2867
    113  CB         0.6330   -5.3660   18.6410 C.3   262  ASN262      0.1155
    114  CG         0.0260   -4.0200   19.0030 C.2   262  ASN262      0.2627
    115  OD1        0.6460   -2.9690   18.8290 O.2   262  ASN262     -0.2716
    116  ND2       -1.1990   -4.0510   19.5220 N.am  262  ASN262     -0.0877
    117  N         -4.2070   -6.7890   15.9140 N.3   265  THR265     -0.1203
    118  CA        -5.1190   -5.8350   16.5310 C.3   265  THR265      0.1994
    119  C         -5.3910   -4.7080   15.5370 C.2   265  THR265      0.2617
    120  O         -6.5260   -4.2460   15.3990 O.2   265  THR265     -0.2717
    121  CB        -4.5170   -5.2440   17.8420 C.3   265  THR265      0.1784
    122  OG1       -4.5840   -6.2290   18.8820 O.3   265  THR265     -0.2211
    123  CG2       -5.2770   -3.9940   18.2890 C.3   265  THR265      0.0376
    124  N         -4.3460   -4.2820   14.8300 N.am  266  MET266     -0.1979
    125  CA        -4.4690   -3.1940   13.8600 C.3   266  MET266      0.1605
    126  C         -4.8830   -3.6290   12.4550 C.2   266  MET266      0.2287
    127  O         -5.4190   -2.8250   11.6890 O.2   266  MET266     -0.2864
    128  CB        -3.1430   -2.4260   13.7430 C.3   266  MET266      0.0413
    129  CG        -2.6650   -1.7630   15.0210 C.3   266  MET266      0.0598
    130  SD        -4.0080   -0.9730   15.9150 S.3   266  MET266     -0.1393
    131  CE        -4.6990    0.1600   14.6370 C.3   266  MET266      0.0692
@<TRIPOS>BOND
     1   127   126    2
     2   126   125    1
     3   128   125    1
     4   128   129    1
     5   125   124    1
     6   131   130    1
     7   124   119   am
     8   129   130    1
     9   120   119    2
    10   119   118    1
    11   117   118    1
    12   112   111    2
    13   118   121    1
    14   111   110    1
    15    63    65   ar
    16    63    61   ar
    17    65    64   ar
    18   121   123    1
    19   121   122    1
    20    60    61    1
    21    60    57    1
    22    61    62   ar
    23   110   109    1
    24   110   113    1
    25    59    58    2
    26    64    62   ar
    27   113   114    1
    28   115   114    2
    29   114   116   am
    30    57    58    1
    31    57    56    1
    32    72    70    1
    33    58    66   am
    34    66    67    1
    35    67    70    1
    36    67    68    1
    37    56    52   am
    38    70    71    1
    39    53    52    2
    40    52    51    1
    41    68    69    2
    42    41    40    2
    43    49    48    1
    44    51    50    1
    45    51    54    1
    46    48    47   ar
    47    48    46   ar
    48    55    54    1
    49    47    45   ar
    50    40    50   am
    51    40    39    1
    52    46    44   ar
    53    79    78    2
    54    80    78   am
    55    45    43   ar
    56    44    43   ar
    57    39    38    1
    58    39    42    1
    59    78    77    1
    60    43    42    1
    61    77    74    1
    62    73    74    1
    63    74    75    1
    64    33    34    1
    65    33    30    1
    66    34    35    1
    67    75    76    2
    68    75    81   am
    69    37    35   am
    70    32    31    2
    71    31    30    1
    72    94    93    1
    73    81    82    1
    74    35    36    2
    75    30    29    1
    76    29    24   am
    77    82    85    1
    78    82    83    1
    79    93    90    1
    80    89    83   am
    81    89    90    1
    82    86    85    1
    83    86    87    1
    84    26    27    1
    85    26    28    1
    86    26    23    1
    87    83    84    2
    88    87    88    1
    89    24    25    2
    90    24    23    1
    91    90    91    1
    92    23    22    1
    93    91    92    2
    94    91    95   am
    95    22    14   am
    96    11     9    1
    97    95    96    1
    98    14    15    2
    99    14    13    1
   100     9     8    2
   101     9    10    1
   102    96    97    1
   103     8     7    1
   104    18    20   ar
   105    18    17   ar
   106   103   104    1
   107   103   100    1
   108    13    16    1
   109    13    12    1
   110   105   104   ar
   111   105   107   ar
   112    16    17    1
   113   104   106   ar
   114    20    21   ar
   115    98    97    2
   116   107   108   ar
   117   106   108   ar
   118    17    19   ar
   119     7     6    1
   120    99   100    1
   121   100   101    1
   122     4     3    2
   123     3     2    1
   124    21    19   ar
   125     6     5    1
   126     5     2    1
   127   101   102    2
   128     2     1    1
