@<TRIPOS>MOLECULE
tmp/3or2E01.pdb
 220 203 0 0 0
SMALL
GASTEIGER

@<TRIPOS>ATOM
      1  N        -12.4500   -0.1140   62.0430 N.3    43  HIS43      -0.1241
      2  CA       -13.1170   -1.2860   61.4940 C.3    43  HIS43       0.1621
      3  C        -12.5210   -2.5250   62.1280 C.2    43  HIS43       0.2264
      4  O        -11.4440   -2.4720   62.7250 O.2    43  HIS43      -0.2867
      5  CB       -12.9250   -1.3580   59.9730 C.3    43  HIS43       0.0745
      6  CG       -11.5320   -1.7230   59.5560 C.ar   43  HIS43       0.0817
      7  ND1      -11.1730   -3.0060   59.1940 N.ar   43  HIS43      -0.2268
      8  CD2      -10.4050   -0.9800   59.4680 C.ar   43  HIS43       0.1154
      9  CE1       -9.8850   -3.0350   58.8990 C.ar   43  HIS43       0.1986
     10  NE2       -9.3950   -1.8180   59.0580 N.ar   43  HIS43      -0.2212
     11  N        -12.3830   -7.0050   61.3670 N.3    45  ILE45      -0.1245
     12  CA       -12.7490   -8.1350   60.5170 C.3    45  ILE45       0.1561
     13  C        -13.2890   -9.1800   61.4990 C.2    45  ILE45       0.2260
     14  O        -12.5200   -9.8070   62.2260 O.2    45  ILE45      -0.2867
     15  CB       -11.5230   -8.7000   59.7620 C.3    45  ILE45       0.0252
     16  CG1      -10.9270   -7.6200   58.8510 C.3    45  ILE45       0.0019
     17  CG2      -11.9290   -9.9160   58.9390 C.3    45  ILE45       0.0019
     18  CD1       -9.6760   -8.0650   58.0930 C.3    45  ILE45       0.0001
     19  N        -17.2350   -7.9000   57.7400 N.3    51  LEU51      -0.1245
     20  CA       -16.6240   -6.7180   58.3350 C.3    51  LEU51       0.1561
     21  C        -17.6000   -5.8840   59.1360 C.2    51  LEU51       0.2260
     22  O        -18.8210   -5.9850   58.9730 O.2    51  LEU51      -0.2867
     23  CB       -16.0650   -5.7910   57.2520 C.3    51  LEU51       0.0270
     24  CG       -15.2140   -6.3410   56.1160 C.3    51  LEU51       0.0019
     25  CD1      -14.8840   -5.2250   55.1150 C.3    51  LEU51       0.0001
     26  CD2      -13.9690   -6.9290   56.7010 C.3    51  LEU51       0.0001
     27  N        -17.7380   -1.7050   60.5200 N.3    53  HIS53      -0.1241
     28  CA       -17.1330   -0.3850   60.5790 C.3    53  HIS53       0.1621
     29  C        -17.9040    0.3860   61.6520 C.2    53  HIS53       0.2264
     30  O        -19.1370    0.3440   61.6900 O.2    53  HIS53      -0.2867
     31  CB       -17.2280    0.3290   59.2280 C.3    53  HIS53       0.0745
     32  CG       -16.1580   -0.0710   58.2600 C.ar   53  HIS53       0.0817
     33  ND1      -16.1770   -1.2690   57.5820 N.ar   53  HIS53      -0.2268
     34  CD2      -15.0130    0.5510   57.8910 C.ar   53  HIS53       0.1154
     35  CE1      -15.0910   -1.3680   56.8340 C.ar   53  HIS53       0.1986
     36  NE2      -14.3670   -0.2770   57.0040 N.ar   53  HIS53      -0.2212
     37  N        -19.0770  -10.0180   52.5500 N.3    65  ARG65      -0.1245
     38  CA       -18.5420  -10.0810   51.1940 C.3    65  ARG65       0.1563
     39  C        -18.7390  -11.4620   50.5730 C.2    65  ARG65       0.2260
     40  O        -18.4490  -12.4890   51.1870 O.2    65  ARG65      -0.2867
     41  CB       -17.0520   -9.7140   51.1880 C.3    65  ARG65       0.0307
     42  CG       -16.4560   -9.5600   49.7900 C.3    65  ARG65       0.0489
     43  CD       -15.0180   -9.0410   49.8610 C.3    65  ARG65       0.2205
     44  NE       -14.9570   -7.7820   50.5920 N.pl3  65  ARG65      -0.0865
     45  CZ       -13.8480   -7.2750   51.1270 C.cat  65  ARG65       0.5346
     46  NH1      -12.6930   -7.9180   51.0120 N.pl3  65  ARG65       0.1354
     47  NH2      -13.9040   -6.1340   51.7990 N.pl3  65  ARG65       0.1354
     48  N        -23.6120   -3.4940   47.1090 N.3    93  ARG93      -0.1245
     49  CA       -22.5820   -2.9110   46.2580 C.3    93  ARG93       0.1563
     50  C        -21.6470   -3.9930   45.7410 C.2    93  ARG93       0.2260
     51  O        -21.6880   -5.1400   46.2010 O.2    93  ARG93      -0.2867
     52  CB       -21.7610   -1.8580   47.0230 C.3    93  ARG93       0.0307
     53  CG       -20.7060   -2.4370   47.9600 C.3    93  ARG93       0.0489
     54  CD       -19.8220   -1.3380   48.5540 C.3    93  ARG93       0.2205
     55  NE       -18.9180   -0.7330   47.5670 N.pl3  93  ARG93      -0.0865
     56  CZ       -17.6720   -1.1470   47.3270 C.cat  93  ARG93       0.5346
     57  NH1      -17.1620   -2.1720   48.0060 N.pl3  93  ARG93       0.1354
     58  NH2      -16.9370   -0.5450   46.3900 N.pl3  93  ARG93       0.1354
     59  N        -17.4580   -4.7840   44.6950 N.3    95  THR95      -0.1203
     60  CA       -16.1070   -4.3290   45.0060 C.3    95  THR95       0.1994
     61  C        -15.2490   -4.1700   43.7660 C.2    95  THR95       0.2619
     62  O        -15.6540   -4.5350   42.6570 O.2    95  THR95      -0.2717
     63  CB       -15.3600   -5.3190   45.9090 C.3    95  THR95       0.1784
     64  OG1      -15.0450   -6.4930   45.1480 O.3    95  THR95      -0.2211
     65  CG2      -16.2000   -5.6900   47.1210 C.3    95  THR95       0.0376
     66  N        -14.0390   -3.6560   43.9740 N.am   96  THR96      -0.1938
     67  CA       -13.0950   -3.4610   42.8830 C.3    96  THR96       0.2028
     68  C        -12.4930   -4.7870   42.3820 C.2    96  THR96       0.2642
     69  O        -11.6890   -4.7990   41.4590 O.2    96  THR96      -0.2714
     70  CB       -11.9770   -2.4810   43.3040 C.3    96  THR96       0.1808
     71  OG1      -11.4280   -2.8830   44.5670 O.3    96  THR96      -0.2208
     72  CG2      -12.5460   -1.0640   43.4590 C.3    96  THR96       0.0379
     73  N        -12.8800   -5.9040   42.9910 N.am   97  ARG97      -0.1977
     74  CA       -12.3910   -7.2100   42.5470 C.3    97  ARG97       0.1597
     75  C        -13.5910   -8.0620   42.1350 C.2    97  ARG97       0.2287
     76  O        -13.5130   -9.2900   42.0170 O.2    97  ARG97      -0.2864
     77  CB       -11.5770   -7.9020   43.6490 C.3    97  ARG97       0.0334
     78  CG       -10.2010   -7.2790   43.8720 C.3    97  ARG97       0.0492
     79  CD        -9.3020   -8.2020   44.6970 C.3    97  ARG97       0.2205
     80  NE        -8.8110   -9.3500   43.9300 N.pl3  97  ARG97      -0.0865
     81  CZ        -7.8100   -9.3020   43.0510 C.cat  97  ARG97       0.5346
     82  NH1       -7.1750   -8.1630   42.8140 N.pl3  97  ARG97       0.1354
     83  NH2       -7.4380  -10.4010   42.4080 N.pl3  97  ARG97       0.1354
     84  N        -16.5370   -8.6440   43.7520 N.3    99  ASN99      -0.1240
     85  CA       -17.2200   -9.4750   44.7270 C.3    99  ASN99       0.1653
     86  C        -18.4480   -8.6440   45.0710 C.2    99  ASN99       0.2266
     87  O        -18.5050   -7.4530   44.7530 O.2    99  ASN99      -0.2867
     88  CB       -16.3640   -9.7240   45.9740 C.3    99  ASN99       0.1155
     89  CG       -15.2340  -10.7200   45.7180 C.2    99  ASN99       0.2627
     90  OD1      -15.4050  -11.6950   44.9860 O.2    99  ASN99      -0.2716
     91  ND2      -14.0820  -10.4840   46.3310 N.am   99  ASN99      -0.0877
     92  N        -21.1020   -7.1800   48.0150 N.3   101  GLU101     -0.1245
     93  CA       -21.1590   -6.9120   49.4440 C.3   101  GLU101      0.1567
     94  C        -22.5540   -6.4810   49.8940 C.2   101  GLU101      0.2260
     95  O        -23.1560   -5.5630   49.3290 O.2   101  GLU101     -0.2867
     96  CB       -20.1400   -5.8330   49.8480 C.3   101  GLU101      0.0388
     97  CG       -18.6850   -6.2840   49.8060 C.3   101  GLU101      0.1160
     98  CD       -17.7350   -5.2010   50.2770 C.2   101  GLU101      0.3649
     99  OE1      -18.0580   -4.0100   50.0750 O.co2 101  GLU101     -0.2457
    100  OE2      -16.6620   -5.5340   50.8380 O.co2 101  GLU101     -0.2457
    101  N        -13.1070  -13.6340   51.1990 N.3   133  GLY133     -0.1210
    102  CA       -12.3770  -12.5840   50.5050 C.3   133  GLY133      0.1956
    103  C        -11.7950  -11.4580   51.3490 C.2   133  GLY133      0.2613
    104  O        -11.2700  -10.4850   50.7980 O.2   133  GLY133     -0.2717
    105  N        -11.8790  -11.5710   52.6730 N.am  134  THR134     -0.1938
    106  CA       -11.3320  -10.5350   53.5530 C.3   134  THR134      0.2028
    107  C         -9.9780  -10.9360   54.1340 C.2   134  THR134      0.2642
    108  O         -9.5960  -12.1100   54.1210 O.2   134  THR134     -0.2714
    109  CB       -12.2780  -10.2250   54.7460 C.3   134  THR134      0.1808
    110  OG1      -12.4880  -11.4200   55.5120 O.3   134  THR134     -0.2208
    111  CG2      -13.6260   -9.7040   54.2530 C.3   134  THR134      0.0379
    112  N         -9.2560   -9.9470   54.6460 N.am  135  GLY135     -0.1954
    113  CA        -7.9620  -10.2050   55.2540 C.3   135  GLY135      0.1869
    114  C         -6.9300  -10.8770   54.3680 C.2   135  GLY135      0.2309
    115  O         -6.9130  -10.6720   53.1510 O.2   135  GLY135     -0.2863
    116  N         -8.8600  -13.3510   47.2640 N.3   139  SER139     -0.1217
    117  CA       -10.1960  -12.8660   46.9530 C.3   139  SER139      0.1889
    118  C        -10.5440  -12.6680   45.4830 C.2   139  SER139      0.2288
    119  O        -10.3670  -11.5780   44.9330 O.2   139  SER139     -0.2866
    120  CB       -10.4460  -11.5590   47.6920 C.3   139  SER139      0.2089
    121  OG       -11.7390  -11.0760   47.3920 O.3   139  SER139     -0.2183
    122  N         -9.2100  -10.9410   39.1620 N.3   142  VAL142     -0.1245
    123  CA        -9.5100   -9.9040   38.1810 C.3   142  VAL142      0.1561
    124  C         -9.2450  -10.5690   36.8310 C.2   142  VAL142      0.2260
    125  O         -8.1590  -11.1220   36.6190 O.2   142  VAL142     -0.2867
    126  CB        -8.5650   -8.6980   38.3550 C.3   142  VAL142      0.0252
    127  CG1       -8.7590   -7.6960   37.2140 C.3   142  VAL142      0.0019
    128  CG2       -8.8310   -8.0390   39.6950 C.3   142  VAL142      0.0019
    129  N         -0.0570  -12.5880   53.9170 N.3   179  ALA179     -0.1231
    130  CA        -0.6050  -11.3300   53.4230 C.3   179  ALA179      0.1694
    131  C         -1.5160  -11.6930   52.2600 C.2   179  ALA179      0.2591
    132  O         -1.5700  -12.8560   51.8580 O.2   179  ALA179     -0.2718
    133  CB         0.5220  -10.4180   52.9330 C.3   179  ALA179      0.0304
    134  N         -2.2140  -10.6910   51.6920 N.am  180  ILE180     -0.1980
    135  CA        -3.0910  -10.9330   50.5530 C.3   180  ILE180      0.1595
    136  C         -2.3040  -11.4250   49.3380 C.2   180  ILE180      0.2287
    137  O         -1.1810  -10.9970   49.0880 O.2   180  ILE180     -0.2864
    138  CB        -3.8850   -9.6570   50.1240 C.3   180  ILE180      0.0276
    139  CG1       -2.9280   -8.5330   49.7010 C.3   180  ILE180      0.0022
    140  CG2       -4.8090   -9.2180   51.2460 C.3   180  ILE180      0.0022
    141  CD1       -3.5780   -7.3430   49.0750 C.3   180  ILE180      0.0001
    142  N         -2.9160  -11.5630   45.4450 N.3   182  ARG182     -0.1245
    143  CA        -3.7690  -11.1300   44.3430 C.3   182  ARG182      0.1563
    144  C         -3.4460  -11.9310   43.0860 C.2   182  ARG182      0.2260
    145  O         -2.2890  -12.0300   42.6790 O.2   182  ARG182     -0.2867
    146  CB        -3.5700   -9.6360   44.0520 C.3   182  ARG182      0.0307
    147  CG        -3.9290   -8.7050   45.2000 C.3   182  ARG182      0.0489
    148  CD        -5.2930   -9.0460   45.7780 C.3   182  ARG182      0.2205
    149  NE        -5.9490   -7.8690   46.3280 N.pl3 182  ARG182     -0.0865
    150  CZ        -6.8500   -7.8970   47.3100 C.cat 182  ARG182      0.5346
    151  NH1       -7.2070   -9.0490   47.8700 N.pl3 182  ARG182      0.1354
    152  NH2       -7.4010   -6.7640   47.7270 N.pl3 182  ARG182      0.1354
    153  N         -5.1410   -6.5150   35.8170 N.3   194  ALA194     -0.1245
    154  CA        -4.0130   -6.2680   36.7100 C.3   194  ALA194      0.1562
    155  C         -2.9380   -7.3480   36.7380 C.2   194  ALA194      0.2260
    156  O         -2.2960   -7.5580   37.7710 O.2   194  ALA194     -0.2867
    157  CB        -4.5370   -6.0340   38.1250 C.3   194  ALA194      0.0290
    158  N          0.5750   -6.1850   37.9210 N.3   197  CYS197     -0.1235
    159  CA         0.7810   -5.6660   39.2710 C.3   197  CYS197      0.1677
    160  C          0.2100   -6.5960   40.3410 C.2   197  CYS197      0.2270
    161  O         -0.1490   -6.1470   41.4290 O.2   197  CYS197     -0.2867
    162  CB         0.1340   -4.2810   39.4110 C.3   197  CYS197      0.0956
    163  SG        -1.6940   -4.2690   39.3730 S.3   197  CYS197     -0.0801
    164  N          2.7280   -5.9770   42.9650 N.3   287  LYS287     -0.1231
    165  CA         1.7850   -5.4500   43.9470 C.3   287  LYS287      0.1693
    166  C          1.5490   -3.9740   43.6640 C.2   287  LYS287      0.2592
    167  O          2.3760   -3.3220   43.0170 O.2   287  LYS287     -0.2718
    168  CB         2.2830   -5.6700   45.3860 C.3   287  LYS287      0.0285
    169  CG         3.3190   -4.7000   45.9390 C.3   287  LYS287      0.0035
    170  CD         3.6870   -5.1390   47.3620 C.3   287  LYS287      0.0206
    171  CE         4.5760   -4.1450   48.0870 C.3   287  LYS287      0.1093
    172  NZ         3.7970   -3.0060   48.6540 N.3   287  LYS287     -0.1314
    173  N          0.4180   -3.4410   44.1150 N.am  288  ILE288     -0.1966
    174  CA         0.1490   -2.0380   43.8610 C.3   288  ILE288      0.1727
    175  C          0.1080   -1.1650   45.1140 C.2   288  ILE288      0.2616
    176  O          0.2860    0.0390   45.0140 O.2   288  ILE288     -0.2715
    177  CB        -1.1550   -1.8450   43.0230 C.3   288  ILE288      0.0290
    178  CG1       -1.1890   -0.4330   42.4200 C.3   288  ILE288      0.0022
    179  CG2       -2.3690   -2.0350   43.8830 C.3   288  ILE288      0.0023
    180  CD1        0.0390   -0.0960   41.5720 C.3   288  ILE288      0.0001
    181  N         -0.1090   -1.7440   46.2970 N.am  289  SER289     -0.1950
    182  CA        -0.1120   -0.9030   47.5000 C.3   289  SER289      0.1924
    183  C          1.3110   -0.4060   47.7420 C.2   289  SER289      0.2314
    184  O          2.2700   -0.9390   47.1730 O.2   289  SER289     -0.2863
    185  CB        -0.5890   -1.6740   48.7380 C.3   289  SER289      0.2116
    186  OG         0.4400   -2.5030   49.2610 O.3   289  SER289     -0.2180
    187  N          2.4980   -0.2130   50.8810 N.3   291  ARG291     -0.1245
    188  CA         2.7600   -0.7010   52.2270 C.3   291  ARG291      0.1563
    189  C          4.1690   -1.2680   52.3750 C.2   291  ARG291      0.2260
    190  O          4.4880   -2.3160   51.8110 O.2   291  ARG291     -0.2867
    191  CB         1.7200   -1.7630   52.5910 C.3   291  ARG291      0.0307
    192  CG         1.7880   -2.2230   54.0300 C.3   291  ARG291      0.0489
    193  CD         0.7300   -3.2790   54.3140 C.3   291  ARG291      0.2205
    194  NE         0.6000   -3.4970   55.7520 N.pl3 291  ARG291     -0.0865
    195  CZ        -0.3540   -4.2290   56.3170 C.cat 291  ARG291      0.5346
    196  NH1       -1.2780   -4.8290   55.5670 N.pl3 291  ARG291      0.1354
    197  NH2       -0.3850   -4.3530   57.6400 N.pl3 291  ARG291      0.1354
    198  N          3.0840  -10.6170   56.9290 N.3   333  TYR333     -0.1241
    199  CA         3.0050   -9.3310   56.2130 C.3   333  TYR333      0.1605
    200  C          3.7630   -9.3090   54.8800 C.2   333  TYR333      0.2264
    201  O          3.6830   -8.3360   54.1310 O.2   333  TYR333     -0.2867
    202  CB         3.5130   -8.1680   57.0860 C.3   333  TYR333      0.0534
    203  CG         2.7700   -7.9780   58.3870 C.ar  333  TYR333     -0.0201
    204  CD1        3.3620   -8.3170   59.6000 C.ar  333  TYR333     -0.0009
    205  CD2        1.4660   -7.4840   58.4040 C.ar  333  TYR333     -0.0009
    206  CE1        2.6790   -8.1750   60.7970 C.ar  333  TYR333      0.0417
    207  CE2        0.7670   -7.3370   59.6000 C.ar  333  TYR333      0.0417
    208  CZ         1.3810   -7.6860   60.7910 C.ar  333  TYR333      0.1957
    209  OH         0.7020   -7.5660   61.9760 O.3   333  TYR333     -0.2866
    210  N          4.3870   -9.9960   51.1330 N.3   335  ARG335     -0.1245
    211  CA         3.6740  -10.3080   49.8970 C.3   335  ARG335      0.1563
    212  C          4.6340  -11.2250   49.1380 C.2   335  ARG335      0.2260
    213  O          5.8300  -11.2390   49.4280 O.2   335  ARG335     -0.2867
    214  CB         3.4230   -9.0350   49.0780 C.3   335  ARG335      0.0307
    215  CG         2.4590   -8.0370   49.7240 C.3   335  ARG335      0.0489
    216  CD         1.0250   -8.5140   49.6150 C.3   335  ARG335      0.2205
    217  NE         0.5070   -8.4420   48.2490 N.pl3 335  ARG335     -0.0865
    218  CZ         0.0140   -7.3450   47.6710 C.cat 335  ARG335      0.5346
    219  NH1       -0.0440   -6.1930   48.3310 N.pl3 335  ARG335      0.1354
    220  NH2       -0.4350   -7.4050   46.4230 N.pl3 335  ARG335      0.1354
@<TRIPOS>BOND
     1   153   154    1
     2   125   124    2
     3   154   155    1
     4   154   157    1
     5   155   156    2
     6   124   123    1
     7   127   126    1
     8   158   159    1
     9   123   126    1
    10   123   122    1
    11   126   128    1
    12   159   162    1
    13   159   160    1
    14   163   162    1
    15   160   161    2
    16    69    68    2
    17   180   178    1
    18    76    75    2
    19    75    74    1
    20    68    67    1
    21    68    73   am
    22    83    81    1
    23   178   177    1
    24    74    73    1
    25    74    77    1
    26    62    61    2
    27   145   144    2
    28    82    81    1
    29    67    70    1
    30    67    66    1
    31   164   165    1
    32   167   166    2
    33   177   174    1
    34   177   179    1
    35    81    80    2
    36   144   143    1
    37    70    72    1
    38    70    71    1
    39    77    78    1
    40   166   165    1
    41   166   173   am
    42    84    85    1
    43    61    66   am
    44    61    60    1
    45   174   173    1
    46   174   175    1
    47    78    79    1
    48    80    79    1
    49   165   168    1
    50   146   143    1
    51   146   147    1
    52   143   142    1
    53    59    60    1
    54    85    86    1
    55    85    88    1
    56    87    86    2
    57   119   118    2
    58    90    89    2
    59    60    63    1
    60   176   175    2
    61   175   181   am
    62    64    63    1
    63   147   148    1
    64   168   169    1
    65   118   117    1
    66    89    88    1
    67    89    91   am
    68    50    51    2
    69    50    49    1
    70   148   149    1
    71    63    65    1
    72   169   170    1
    73    49    52    1
    74    49    48    1
    75   181   182    1
    76   149   150    2
    77    58    56    1
    78   220   218    1
    79   117   116    1
    80   117   120    1
    81    52    53    1
    82   184   183    2
    83   150   152    1
    84   150   151    1
    85    56    55    2
    86    56    57    1
    87   170   171    1
    88   121   120    1
    89   182   183    1
    90   182   185    1
    91    55    54    1
    92   218   217    2
    93   218   219    1
    94    53    54    1
    95    92    93    1
    96   171   172    1
    97   217   216    1
    98   185   186    1
    99   141   139    1
   100   214   215    1
   101   214   211    1
   102   137   136    2
   103   212   213    2
   104   212   211    1
   105    95    94    2
   106   136   135    1
   107    93    96    1
   108    93    94    1
   109   216   215    1
   110   139   138    1
   111    42    43    1
   112    42    41    1
   113    97    96    1
   114    97    98    1
   115    43    44    1
   116   211   210    1
   117    99    98   ar
   118   138   135    1
   119   138   140    1
   120    98   100   ar
   121   102   101    1
   122   102   103    1
   123   135   134    1
   124    39    40    2
   125    39    38    1
   126    44    45    2
   127   104   103    2
   128   187   188    1
   129    46    45    1
   130    45    47    1
   131    41    38    1
   132    38    37    1
   133   103   105   am
   134   134   131   am
   135   190   189    2
   136   132   131    2
   137   188   189    1
   138   188   191    1
   139   131   130    1
   140   191   192    1
   141   105   106    1
   142   133   130    1
   143   115   114    2
   144   130   129    1
   145   106   107    1
   146   106   109    1
   147   192   193    1
   148   108   107    2
   149   201   200    2
   150   107   112   am
   151   111   109    1
   152   193   194    1
   153   114   113    1
   154   112   113    1
   155   109   110    1
   156   200   199    1
   157    25    24    1
   158   196   195    1
   159   194   195    2
   160    24    26    1
   161    24    23    1
   162   199   198    1
   163   199   202    1
   164   195   197    1
   165    35    36   ar
   166    35    33   ar
   167    36    34   ar
   168   202   203    1
   169    23    20    1
   170    33    32   ar
   171    19    20    1
   172    34    32   ar
   173    18    16    1
   174    32    31    1
   175    20    21    1
   176   203   205   ar
   177   203   204   ar
   178   205   207   ar
   179    16    15    1
   180     9    10   ar
   181     9     7   ar
   182    17    15    1
   183    22    21    2
   184    10     8   ar
   185     7     6   ar
   186    31    28    1
   187     8     6   ar
   188     6     5    1
   189   204   206   ar
   190   207   208   ar
   191    15    12    1
   192     5     2    1
   193    12    11    1
   194    12    13    1
   195    27    28    1
   196    28    29    1
   197   208   206   ar
   198   208   209    1
   199     2     1    1
   200     2     3    1
   201    13    14    2
   202    29    30    2
   203     3     4    2
