@<TRIPOS>MOLECULE
tmp/3or3B00.pdb
 175 168 0 0 0
SMALL
GASTEIGER

@<TRIPOS>ATOM
      1  N         -0.1200    3.6060   69.5520 N.3    65  TYR65      -0.1241
      2  CA        -0.5180    4.2110   68.3070 C.3    65  TYR65       0.1605
      3  C          0.6470    4.8770   67.6140 C.2    65  TYR65       0.2264
      4  O          1.6610    5.2000   68.2260 O.2    65  TYR65      -0.2867
      5  CB        -1.7210    5.1960   68.4940 C.3    65  TYR65       0.0534
      6  CG        -1.3350    6.4220   69.2830 C.ar   65  TYR65      -0.0201
      7  CD1       -0.6990    7.4890   68.6600 C.ar   65  TYR65      -0.0009
      8  CD2       -1.5370    6.4790   70.6470 C.ar   65  TYR65      -0.0009
      9  CE1       -0.3010    8.6000   69.3670 C.ar   65  TYR65       0.0417
     10  CE2       -1.1440    7.6010   71.3880 C.ar   65  TYR65       0.0417
     11  CZ        -0.5260    8.6540   70.7460 C.ar   65  TYR65       0.1957
     12  OH        -0.1050    9.7620   71.4650 O.3    65  TYR65      -0.2866
     13  N          4.4010   10.7840   65.3220 N.3    75  LYS75      -0.1231
     14  CA         4.4750   10.4190   66.7300 C.3    75  LYS75       0.1693
     15  C          4.1080    8.9520   66.9640 C.2    75  LYS75       0.2592
     16  O          3.3000    8.3850   66.2200 O.2    75  LYS75      -0.2718
     17  CB         3.5610   11.3450   67.5530 C.3    75  LYS75       0.0285
     18  CG         3.5280   11.0010   68.9860 C.3    75  LYS75       0.0035
     19  CD         2.8980   12.0330   69.8650 C.3    75  LYS75       0.0206
     20  CE         3.0440   11.6570   71.3090 C.3    75  LYS75       0.1093
     21  NZ         2.4250   12.6690   72.2380 N.3    75  LYS75      -0.1314
     22  N          4.7660    8.3500   67.9630 N.am   76  ILE76      -0.1966
     23  CA         4.3810    7.0690   68.5550 C.3    76  ILE76       0.1727
     24  C          3.9660    7.3870   69.9940 C.2    76  ILE76       0.2617
     25  O          4.6690    8.1170   70.6810 O.2    76  ILE76      -0.2715
     26  CB         5.5440    6.0740   68.5400 C.3    76  ILE76       0.0290
     27  CG1        5.9300    5.7600   67.0910 C.3    76  ILE76       0.0022
     28  CG2        5.1940    4.7840   69.2900 C.3    76  ILE76       0.0023
     29  CD1        7.2720    5.0750   66.9410 C.3    76  ILE76       0.0001
     30  N          2.8080    6.8850   70.4140 N.am   77  GLY77      -0.1940
     31  CA         2.3630    7.0090   71.7920 C.3    77  GLY77       0.2014
     32  C          1.5690    5.8150   72.2610 C.2    77  GLY77       0.2639
     33  O          1.5430    4.7790   71.6100 O.2    77  GLY77      -0.2714
     34  N          0.8950    5.9490   73.3850 N.am   78  HIS78      -0.1959
     35  CA         0.1220    4.8530   73.9050 C.3    78  HIS78       0.1787
     36  C         -1.0280    5.3740   74.7580 C.2    78  HIS78       0.2621
     37  O         -1.0520    6.5430   75.1880 O.2    78  HIS78      -0.2715
     38  CB         1.0230    3.8940   74.7280 C.3    78  HIS78       0.0785
     39  CG         1.1950    4.3350   76.1380 C.ar   78  HIS78       0.0821
     40  ND1        2.0830    5.3200   76.4990 N.ar   78  HIS78      -0.2267
     41  CD2        0.5620    3.9610   77.2780 C.ar   78  HIS78       0.1154
     42  CE1        1.9710    5.5590   77.7900 C.ar   78  HIS78       0.1986
     43  NE2        1.0730    4.7340   78.2910 N.ar   78  HIS78      -0.2212
     44  N         -1.9670    4.4890   75.0370 N.am   79  SER79      -0.1936
     45  CA        -3.0700    4.8100   75.9250 C.3    79  SER79       0.2055
     46  C         -3.6250    3.5520   76.5430 C.2    79  SER79       0.2643
     47  O         -3.7240    2.5130   75.8730 O.2    79  SER79      -0.2714
     48  CB        -4.1640    5.5330   75.1400 C.3    79  SER79       0.2130
     49  OG        -5.2070    5.9790   75.9780 O.3    79  SER79      -0.2179
     50  N         -4.0240    3.6580   77.8090 N.am   80  ILE80      -0.1963
     51  CA        -4.7750    2.6020   78.4830 C.3    80  ILE80       0.1727
     52  C         -6.3000    2.7220   78.1640 C.2    80  ILE80       0.2616
     53  O         -7.1040    1.8610   78.5520 O.2    80  ILE80      -0.2715
     54  CB        -4.5130    2.5930   80.0050 C.3    80  ILE80       0.0290
     55  CG1       -5.2740    3.7290   80.7070 C.3    80  ILE80       0.0022
     56  CG2       -2.9730    2.5460   80.3040 C.3    80  ILE80       0.0023
     57  CD1       -5.1010    3.7730   82.2040 C.3    80  ILE80       0.0001
     58  N         -6.6840    3.8020   77.4890 N.am   81  THR81      -0.1951
     59  CA        -8.0690    4.0550   77.1400 C.3    81  THR81       0.1897
     60  C         -8.2250    3.7320   75.6680 C.2    81  THR81       0.2313
     61  O         -7.2570    3.3700   75.0090 O.2    81  THR81      -0.2863
     62  CB        -8.4790    5.5260   77.3950 C.3    81  THR81       0.1794
     63  OG1       -7.8080    6.3900   76.4850 O.3    81  THR81      -0.2208
     64  CG2       -8.1780    5.9450   78.7980 C.3    81  THR81       0.0378
     65  N        -10.7320    8.5540   73.5310 N.3    85  LYS85      -0.1231
     66  CA       -10.3780    9.3210   74.7300 C.3    85  LYS85       0.1693
     67  C         -8.9960    9.9410   74.6360 C.2    85  LYS85       0.2591
     68  O         -8.7750   11.0430   75.1590 O.2    85  LYS85      -0.2718
     69  CB       -10.4730    8.4570   76.0020 C.3    85  LYS85       0.0285
     70  CG       -11.8190    7.9290   76.3090 C.3    85  LYS85       0.0035
     71  CD       -11.8330    7.2880   77.6960 C.3    85  LYS85       0.0206
     72  CE       -13.2120    6.8490   78.1190 C.3    85  LYS85       0.1093
     73  NZ       -13.2210    5.9950   79.3820 N.3    85  LYS85      -0.1314
     74  N         -8.0330    9.2460   74.0250 N.am   86  ARG86      -0.1980
     75  CA        -6.7330    9.8350   73.8280 C.3    86  ARG86       0.1597
     76  C         -6.8550   11.0650   72.9270 C.2    86  ARG86       0.2287
     77  O         -6.1840   12.0610   73.1600 O.2    86  ARG86      -0.2864
     78  CB        -5.7110    8.8400   73.2320 C.3    86  ARG86       0.0334
     79  CG        -4.2820    9.4070   73.0630 C.3    86  ARG86       0.0492
     80  CD        -3.6970    9.7840   74.4320 C.3    86  ARG86       0.2205
     81  NE        -2.4910   10.5980   74.3930 N.pl3  86  ARG86      -0.0865
     82  CZ        -2.4520   11.9280   74.4470 C.cat  86  ARG86       0.5346
     83  NH1       -3.5500   12.6500   74.4440 N.pl3  86  ARG86       0.1354
     84  NH2       -1.2860   12.5430   74.5250 N.pl3  86  ARG86       0.1354
     85  N         -9.6560   12.9480   72.6670 N.3    88  GLN88      -0.1231
     86  CA       -10.3190   13.8950   73.5840 C.3    88  GLN88       0.1698
     87  C         -9.2570   14.6440   74.4050 C.2    88  GLN88       0.2592
     88  O         -9.2970   15.8610   74.5170 O.2    88  GLN88      -0.2718
     89  CB       -11.3180   13.1640   74.5040 C.3    88  GLN88       0.0381
     90  CG       -12.1380   14.0720   75.4410 C.3    88  GLN88       0.0905
     91  CD       -13.1560   13.3150   76.2820 C.2    88  GLN88       0.2608
     92  OE1      -14.3040   13.7540   76.4240 O.2    88  GLN88      -0.2717
     93  NE2      -12.7580   12.1730   76.8310 N.am   88  GLN88      -0.0878
     94  N         -8.3020   13.8930   74.9440 N.am   89  SER89      -0.1952
     95  CA        -7.1720   14.4410   75.7050 C.3    89  SER89       0.1924
     96  C         -6.3330   15.4190   74.8550 C.2    89  SER89       0.2314
     97  O         -6.0260   16.5270   75.3110 O.2    89  SER89      -0.2863
     98  CB        -6.3010   13.2940   76.2590 C.3    89  SER89       0.2116
     99  OG        -5.2660   13.8010   77.0870 O.3    89  SER89      -0.2180
    100  N         -7.7150   18.8680   74.5680 N.3    92  CYS92      -0.1235
    101  CA        -7.4200   19.7750   75.6860 C.3    92  CYS92       0.1677
    102  C         -6.2210   20.6910   75.4320 C.2    92  CYS92       0.2270
    103  O         -5.9880   21.5980   76.2190 O.2    92  CYS92      -0.2867
    104  CB        -7.1350   18.9640   76.9520 C.3    92  CYS92       0.0956
    105  SG        -8.5180   18.0110   77.5440 S.3    92  CYS92      -0.0801
    106  N         -3.5100   24.4200   82.5020 N.3   102  THR102     -0.1203
    107  CA        -4.3270   23.2510   82.8730 C.3   102  THR102      0.1994
    108  C         -4.2630   22.0850   81.8930 C.2   102  THR102      0.2618
    109  O         -4.7250   20.9660   82.2050 O.2   102  THR102     -0.2717
    110  CB        -5.8030   23.6680   83.0990 C.3   102  THR102      0.1784
    111  OG1       -6.2980   24.3040   81.9170 O.3   102  THR102     -0.2211
    112  CG2       -5.9340   24.6460   84.3300 C.3   102  THR102      0.0376
    113  N         -3.6650   22.3090   80.7200 N.am  103  CYS103     -0.1955
    114  CA        -3.4090   21.1980   79.7990 C.3   103  CYS103      0.1843
    115  C         -1.9640   20.7650   79.8830 C.2   103  CYS103      0.2626
    116  O         -1.1050   21.5090   80.3510 O.2   103  CYS103     -0.2714
    117  CB        -3.7590   21.5610   78.3510 C.3   103  CYS103      0.0997
    118  SG        -2.6800   22.7990   77.6030 S.3   103  CYS103     -0.0797
    119  N         -1.6880   19.5560   79.4310 N.am  104  SER104     -0.1950
    120  CA        -0.2960   19.1030   79.3540 C.3   104  SER104      0.1924
    121  C          0.4210   19.8230   78.2440 C.2   104  SER104      0.2314
    122  O         -0.1770   20.1940   77.2390 O.2   104  SER104     -0.2863
    123  CB        -0.1830   17.6080   79.1590 C.3   104  SER104      0.2116
    124  OG        -0.8020   17.1500   77.9770 O.3   104  SER104     -0.2180
    125  N          2.4210   18.4210   76.2570 N.3   106  THR106     -0.1203
    126  CA         2.3050   17.4560   75.1780 C.3   106  THR106      0.1994
    127  C          1.0260   17.6780   74.3430 C.2   106  THR106      0.2617
    128  O          1.0780   17.7880   73.1110 O.2   106  THR106     -0.2717
    129  CB         2.2430   16.0220   75.7700 C.3   106  THR106      0.1784
    130  OG1        3.4830   15.7070   76.3890 O.3   106  THR106     -0.2211
    131  CG2        1.9040   14.9760   74.7000 C.3   106  THR106      0.0376
    132  N         -0.1180   17.7760   75.0200 N.am  107  ASN107     -0.1974
    133  CA        -1.3660   17.9400   74.3060 C.3   107  ASN107      0.1688
    134  C         -1.4160   19.2660   73.5310 C.2   107  ASN107      0.2292
    135  O         -1.8900   19.3070   72.3880 O.2   107  ASN107     -0.2864
    136  CB        -2.5690   17.7490   75.2210 C.3   107  ASN107      0.1181
    137  CG        -2.8390   16.2560   75.5550 C.2   107  ASN107      0.2629
    138  OD1       -2.4530   15.3560   74.8090 O.2   107  ASN107     -0.2716
    139  ND2       -3.5180   16.0180   76.6570 N.am  107  ASN107     -0.0877
    140  N         -4.9230   -1.6040   82.7110 N.3   144  PHE144     -0.1241
    141  CA        -4.3090   -0.7920   83.7730 C.3   144  PHE144      0.1605
    142  C         -3.0430   -1.4470   84.2750 C.2   144  PHE144      0.2264
    143  O         -2.9670   -2.6800   84.3420 O.2   144  PHE144     -0.2867
    144  CB        -5.2370   -0.7020   84.9860 C.3   144  PHE144      0.0534
    145  CG        -6.3480    0.2780   84.8610 C.ar  144  PHE144     -0.0203
    146  CD1       -6.8920    0.6240   83.6280 C.ar  144  PHE144     -0.0042
    147  CD2       -6.8960    0.8270   86.0100 C.ar  144  PHE144     -0.0042
    148  CE1       -7.9390    1.5390   83.5490 C.ar  144  PHE144     -0.0003
    149  CE2       -7.9460    1.7390   85.9410 C.ar  144  PHE144     -0.0003
    150  CZ        -8.4680    2.0890   84.7060 C.ar  144  PHE144     -0.0000
    151  N         -2.1950    1.0410   89.4120 N.3   148  LYS148     -0.1245
    152  CA        -3.3430    1.8960   89.1110 C.3   148  LYS148      0.1561
    153  C         -4.6580    1.1680   89.4320 C.2   148  LYS148      0.2260
    154  O         -5.5590    1.7470   90.0450 O.2   148  LYS148     -0.2867
    155  CB        -3.3320    2.3800   87.6720 C.3   148  LYS148      0.0271
    156  CG        -4.4740    3.3650   87.3940 C.3   148  LYS148      0.0035
    157  CD        -4.4000    3.9470   86.0090 C.3   148  LYS148      0.0206
    158  CE        -5.7020    4.6630   85.6310 C.3   148  LYS148      0.1093
    159  NZ        -5.7000    6.0450   86.1100 N.3   148  LYS148     -0.1314
    160  N         -9.8420   15.0230   92.0680 N.3   171  GLN171     -0.1231
    161  CA       -10.7480   14.6070   91.0130 C.3   171  GLN171      0.1698
    162  C        -11.9520   13.9020   91.5890 C.2   171  GLN171      0.2592
    163  O        -11.8190   13.1190   92.5430 O.2   171  GLN171     -0.2718
    164  CB       -10.0450   13.6070   90.1010 C.3   171  GLN171      0.0381
    165  CG       -10.7210   13.3830   88.7480 C.3   171  GLN171      0.0905
    166  CD        -9.7660   12.6770   87.8210 C.2   171  GLN171      0.2608
    167  OE1       -9.2080   13.2670   86.8750 O.2   171  GLN171     -0.2717
    168  NE2       -9.5010   11.4350   88.1390 N.am  171  GLN171     -0.0878
    169  N        -13.1130   14.1610   90.9900 N.am  172  THR172     -0.1953
    170  CA       -14.3570   13.5180   91.3990 C.3   172  THR172      0.1897
    171  C        -14.3850   12.0440   90.9840 C.2   172  THR172      0.2313
    172  O        -13.5920   11.5660   90.1700 O.2   172  THR172     -0.2863
    173  CB       -15.5750   14.2090   90.7630 C.3   172  THR172      0.1794
    174  OG1      -15.5530   15.6100   91.0940 O.3   172  THR172     -0.2208
    175  CG2      -16.8520   13.5850   91.2680 C.3   172  THR172      0.0378
@<TRIPOS>BOND
     1    13    14    1
     2    16    15    2
     3    14    15    1
     4    14    17    1
     5    29    27    1
     6    15    22   am
     7    27    26    1
     8    17    18    1
     9     3     4    2
    10     3     2    1
    11    22    23    1
    12     2     5    1
    13     2     1    1
    14     5     6    1
    15    26    23    1
    16    26    28    1
    17    23    24    1
    18     7     6   ar
    19     7     9   ar
    20    18    19    1
    21     6     8   ar
    22     9    11   ar
    23    19    20    1
    24    24    30   am
    25    24    25    2
    26    30    31    1
    27     8    10   ar
    28    11    10   ar
    29    11    12    1
    30    20    21    1
    31    33    32    2
    32    31    32    1
    33    32    34   am
    34   135   134    2
    35    85    86    1
    36    76    77    2
    37    76    75    1
    38    79    78    1
    39    79    80    1
    40   128   127    2
    41    78    75    1
    42    34    35    1
    43    65    66    1
    44   134   133    1
    45    86    87    1
    46    86    89    1
    47    75    74    1
    48    35    38    1
    49    35    36    1
    50    74    67   am
    51   133   132    1
    52   133   136    1
    53   127   132   am
    54   127   126    1
    55    81    80    1
    56    81    82    2
    57    87    88    2
    58    87    94   am
    59    83    82    1
    60    82    84    1
    61    89    90    1
    62   100   101    1
    63    67    66    1
    64    67    68    2
    65   131   129    1
    66    38    39    1
    67    66    69    1
    68    36    44   am
    69    36    37    2
    70   138   137    2
    71    96    97    2
    72    96    95    1
    73    94    95    1
    74    61    60    2
    75    44    45    1
    76    48    45    1
    77    48    49    1
    78   126   129    1
    79   126   125    1
    80   136   137    1
    81   102   101    1
    82   102   103    2
    83    90    91    1
    84   137   139   am
    85    60    59    1
    86   101   104    1
    87    95    98    1
    88   129   130    1
    89    47    46    2
    90    45    46    1
    91    69    70    1
    92    39    40   ar
    93    39    41   ar
    94    98    99    1
    95    91    92    2
    96    91    93   am
    97    70    71    1
    98    63    62    1
    99    40    42   ar
   100    46    50   am
   101   104   105    1
   102    59    62    1
   103    59    58    1
   104   122   121    2
   105    41    43   ar
   106    62    64    1
   107    58    52   am
   108   118   117    1
   109    71    72    1
   110    42    43   ar
   111    50    51    1
   112   124   123    1
   113    72    73    1
   114    52    51    1
   115    52    53    2
   116   121   120    1
   117   117   114    1
   118    51    54    1
   119   123   120    1
   120   120   119    1
   121   119   115   am
   122   114   115    1
   123   114   113    1
   124   115   116    2
   125    54    56    1
   126    54    55    1
   127    55    57    1
   128   113   108   am
   129   108   109    2
   130   108   107    1
   131   111   110    1
   132   106   107    1
   133   140   141    1
   134   107   110    1
   135   110   112    1
   136   148   146   ar
   137   148   150   ar
   138   146   145   ar
   139   141   142    1
   140   141   144    1
   141   142   143    2
   142   150   149   ar
   143   145   144    1
   144   145   147   ar
   145   158   157    1
   146   158   159    1
   147   149   147   ar
   148   157   156    1
   149   167   166    2
   150   156   155    1
   151   155   152    1
   152   166   168   am
   153   166   165    1
   154   165   164    1
   155   152   151    1
   156   152   153    1
   157   153   154    2
   158   164   161    1
   159   172   171    2
   160   173   174    1
   161   173   175    1
   162   173   170    1
   163   171   170    1
   164   169   170    1
   165   169   162   am
   166   161   162    1
   167   161   160    1
   168   162   163    2
