@<TRIPOS>MOLECULE
tmp/3or3A02.pdb
 184 176 0 0 0
SMALL
GASTEIGER

@<TRIPOS>ATOM
      1  N          0.1620    4.4490   97.4990 N.3    65  TYR65      -0.1241
      2  CA         0.6080    5.1370   98.7230 C.3    65  TYR65       0.1605
      3  C         -0.5070    5.9290   99.3850 C.2    65  TYR65       0.2264
      4  O         -1.4850    6.3280   98.7410 O.2    65  TYR65      -0.2867
      5  CB         1.8270    6.0500   98.4480 C.3    65  TYR65       0.0534
      6  CG         1.4930    7.2180   97.5590 C.ar   65  TYR65      -0.0201
      7  CD1        0.8780    8.3480   98.0790 C.ar   65  TYR65      -0.0009
      8  CD2        1.7500    7.1830   96.1970 C.ar   65  TYR65      -0.0009
      9  CE1        0.5180    9.4090   97.2710 C.ar   65  TYR65       0.0417
     10  CE2        1.3920    8.2650   95.3500 C.ar   65  TYR65       0.0417
     11  CZ         0.7740    9.3730   95.8970 C.ar   65  TYR65       0.1957
     12  OH         0.3640   10.4560   95.1100 O.3    65  TYR65      -0.2866
     13  N         -4.1410   12.0140  101.2630 N.3    75  LYS75      -0.1231
     14  CA        -4.2300   11.5610   99.9080 C.3    75  LYS75       0.1693
     15  C         -3.8920   10.0740   99.7830 C.2    75  LYS75       0.2592
     16  O         -3.0650    9.5480  100.5230 O.2    75  LYS75      -0.2718
     17  CB        -3.2900   12.3890   99.0030 C.3    75  LYS75       0.0285
     18  CG        -3.3020   11.8930   97.5590 C.3    75  LYS75       0.0035
     19  CD        -2.6820   12.8850   96.5800 C.3    75  LYS75       0.0206
     20  CE        -2.7100   12.3330   95.1440 C.3    75  LYS75       0.1093
     21  NZ        -2.1190   13.2810   94.1610 N.3    75  LYS75      -0.1314
     22  N         -4.5430    9.4330   98.8070 N.am   76  ILE76      -0.1966
     23  CA        -4.1860    8.1120   98.3090 C.3    76  ILE76       0.1727
     24  C         -3.8010    8.2730   96.8300 C.2    76  ILE76       0.2617
     25  O         -4.4920    8.9390   96.0610 O.2    76  ILE76      -0.2715
     26  CB        -5.3410    7.1130   98.4470 C.3    76  ILE76       0.0290
     27  CG1       -5.6990    6.9030   99.9290 C.3    76  ILE76       0.0022
     28  CG2       -4.9720    5.7720   97.7780 C.3    76  ILE76       0.0023
     29  CD1       -7.1180    6.3490  100.1960 C.3    76  ILE76       0.0001
     30  N         -2.6770    7.7030   96.4340 N.am   77  GLY77      -0.1940
     31  CA        -2.2650    7.7300   95.0310 C.3    77  GLY77       0.2014
     32  C         -1.4570    6.5210   94.6450 C.2    77  GLY77       0.2639
     33  O         -1.3890    5.5890   95.3950 O.2    77  GLY77      -0.2714
     34  N         -0.8440    6.5450   93.4710 N.am   78  HIS78      -0.1959
     35  CA        -0.0390    5.4390   93.0060 C.3    78  HIS78       0.1787
     36  C          1.1160    5.9070   92.1010 C.2    78  HIS78       0.2621
     37  O          1.1260    7.0230   91.5820 O.2    78  HIS78      -0.2715
     38  CB        -0.8960    4.4110   92.2300 C.3    78  HIS78       0.0785
     39  CG        -1.1150    4.8030   90.8050 C.ar   78  HIS78       0.0821
     40  ND1       -1.9600    5.8260   90.4350 N.ar   78  HIS78      -0.2267
     41  CD2       -0.5380    4.3630   89.6630 C.ar   78  HIS78       0.1154
     42  CE1       -1.8860    6.0070   89.1300 C.ar   78  HIS78       0.1986
     43  NE2       -1.0330    5.1310   88.6360 N.ar   78  HIS78      -0.2212
     44  N          2.0870    5.0250   91.9300 N.am   79  SER79      -0.1936
     45  CA         3.2070    5.2440   91.0000 C.3    79  SER79       0.2055
     46  C          3.6900    3.9210   90.4320 C.2    79  SER79       0.2643
     47  O          3.8000    2.9190   91.1560 O.2    79  SER79      -0.2714
     48  CB         4.3750    5.9580   91.6850 C.3    79  SER79       0.2130
     49  OG         5.4270    6.3070   90.7580 O.3    79  SER79      -0.2179
     50  N          4.0250    3.9190   89.1510 N.am   80  ILE80      -0.1963
     51  CA         4.7630    2.8000   88.5440 C.3    80  ILE80       0.1727
     52  C          6.2880    2.9450   88.7570 C.2    80  ILE80       0.2616
     53  O          7.0640    2.0380   88.4350 O.2    80  ILE80      -0.2715
     54  CB         4.4600    2.6340   87.0390 C.3    80  ILE80       0.0290
     55  CG1        5.1950    3.7010   86.2190 C.3    80  ILE80       0.0022
     56  CG2        2.9440    2.6100   86.8230 C.3    80  ILE80       0.0023
     57  CD1        4.9700    3.6640   84.7460 C.3    80  ILE80       0.0001
     58  N          6.6950    4.0640   89.3420 N.am   81  THR81      -0.1951
     59  CA         8.0950    4.2950   89.7290 C.3    81  THR81       0.1897
     60  C          8.2940    4.0890   91.2450 C.2    81  THR81       0.2313
     61  O          7.3350    3.8120   91.9710 O.2    81  THR81      -0.2863
     62  CB         8.5100    5.7510   89.3260 C.3    81  THR81       0.1794
     63  OG1        7.9700    6.6880   90.2480 O.3    81  THR81      -0.2208
     64  CG2        8.0340    6.0790   87.9310 C.3    81  THR81       0.0378
     65  N         10.9260    8.9250   93.0540 N.3    85  LYS85      -0.1231
     66  CA        10.6140    9.5780   91.8070 C.3    85  LYS85       0.1693
     67  C          9.2450   10.2420   91.8670 C.2    85  LYS85       0.2591
     68  O          9.0660   11.3390   91.3270 O.2    85  LYS85      -0.2718
     69  CB        10.7140    8.6010   90.6210 C.3    85  LYS85       0.0285
     70  CG        12.1020    8.1630   90.2860 C.3    85  LYS85       0.0035
     71  CD        12.0940    7.3350   89.0060 C.3    85  LYS85       0.0206
     72  CE        13.4560    7.0450   88.4810 C.3    85  LYS85       0.1093
     73  NZ        13.4280    5.9630   87.4180 N.3    85  LYS85      -0.1314
     74  N          8.2740    9.6210   92.5370 N.am   86  ARG86      -0.1980
     75  CA         6.9790   10.2580   92.7220 C.3    86  ARG86       0.1597
     76  C          7.1260   11.5200   93.5540 C.2    86  ARG86       0.2287
     77  O          6.5020   12.5410   93.2600 O.2    86  ARG86      -0.2864
     78  CB         5.9500    9.3090   93.3450 C.3    86  ARG86       0.0334
     79  CG         4.5270    9.9170   93.4870 C.3    86  ARG86       0.0492
     80  CD         3.9190   10.2450   92.1000 C.3    86  ARG86       0.2205
     81  NE         2.6880   11.0520   92.0920 N.pl3  86  ARG86      -0.0865
     82  CZ         2.6580   12.3790   91.9900 C.cat  86  ARG86       0.5346
     83  NH1        3.7670   13.0790   91.9810 N.pl3  86  ARG86       0.1354
     84  NH2        1.5020   13.0210   91.9070 N.pl3  86  ARG86       0.1354
     85  N          9.9190   13.4100   93.7300 N.3    88  GLN88      -0.1231
     86  CA        10.5440   14.4250   92.8910 C.3    88  GLN88       0.1698
     87  C          9.5240   15.0250   91.9290 C.2    88  GLN88       0.2592
     88  O          9.5560   16.2220   91.6590 O.2    88  GLN88      -0.2718
     89  CB        11.7450   13.9190   92.1100 C.3    88  GLN88       0.0381
     90  CG        12.5110   15.0550   91.4000 C.3    88  GLN88       0.0905
     91  CD        12.8160   16.2810   92.3230 C.2    88  GLN88       0.2608
     92  OE1       13.0620   16.1420   93.5260 O.2    88  GLN88      -0.2717
     93  NE2       12.8150   17.4720   91.7380 N.am   88  GLN88      -0.0878
     94  N          8.6080   14.2050   91.4340 N.am   89  SER89      -0.1952
     95  CA         7.5040   14.7410   90.6380 C.3    89  SER89       0.1924
     96  C          6.6640   15.7490   91.4470 C.2    89  SER89       0.2314
     97  O          6.3600   16.8490   90.9710 O.2    89  SER89      -0.2863
     98  CB         6.6680   13.5920   90.0740 C.3    89  SER89       0.2116
     99  OG         5.6140   14.0710   89.2590 O.3    89  SER89      -0.2180
    100  N          8.0170   19.1620   91.5450 N.3    92  CYS92      -0.1235
    101  CA         7.6920   19.9930   90.3840 C.3    92  CYS92       0.1677
    102  C          6.5230   20.9640   90.6140 C.2    92  CYS92       0.2270
    103  O          6.3050   21.8350   89.8080 O.2    92  CYS92      -0.2867
    104  CB         7.3810   19.0980   89.1640 C.3    92  CYS92       0.0956
    105  SG         8.8430   18.2070   88.5950 S.3    92  CYS92      -0.0801
    106  N          3.9230   24.4330   83.2940 N.3   102  THR102     -0.1203
    107  CA         4.7210   23.2330   82.9910 C.3   102  THR102      0.1994
    108  C          4.6260   22.1280   84.0280 C.2   102  THR102      0.2618
    109  O          5.0290   20.9920   83.7590 O.2   102  THR102     -0.2717
    110  CB         6.2220   23.6140   82.7920 C.3   102  THR102      0.1784
    111  OG1        6.6710   24.3170   83.9500 O.3   102  THR102     -0.2211
    112  CG2        6.4170   24.4820   81.5410 C.3   102  THR102      0.0376
    113  N          4.0620   22.4090   85.2000 N.am  103  CYS103     -0.1955
    114  CA         3.7820   21.3490   86.1510 C.3   103  CYS103      0.1843
    115  C          2.3130   20.9230   86.0860 C.2   103  CYS103      0.2626
    116  O          1.4470   21.6800   85.6160 O.2   103  CYS103     -0.2714
    117  CB         4.1730   21.7890   87.5700 C.3   103  CYS103      0.0997
    118  SG         3.0570   23.0250   88.2830 S.3   103  CYS103     -0.0797
    119  N          2.0240   19.7090   86.5390 N.am  104  SER104     -0.1950
    120  CA         0.6360   19.2940   86.6870 C.3   104  SER104      0.1924
    121  C         -0.0580   20.0990   87.7810 C.2   104  SER104      0.2314
    122  O          0.5700   20.5050   88.7690 O.2   104  SER104     -0.2863
    123  CB         0.5100   17.8120   86.9970 C.3   104  SER104      0.2116
    124  OG         1.1060   17.4890   88.2330 O.3   104  SER104     -0.2180
    125  N         -2.0700   18.8550   89.8580 N.3   106  THR106     -0.1203
    126  CA        -1.9590   17.9510   90.9820 C.3   106  THR106      0.1994
    127  C         -0.6920   18.2010   91.8010 C.2   106  THR106      0.2617
    128  O         -0.7430   18.3120   93.0410 O.2   106  THR106     -0.2717
    129  CB        -1.8960   16.4800   90.4740 C.3   106  THR106      0.1784
    130  OG1       -3.1290   16.1450   89.8520 O.3   106  THR106     -0.2211
    131  CG2       -1.6250   15.5030   91.5930 C.3   106  THR106      0.0376
    132  N          0.4520   18.2140   91.1260 N.am  107  ASN107     -0.1974
    133  CA         1.6930   18.4140   91.8460 C.3   107  ASN107      0.1688
    134  C          1.7420   19.7800   92.5500 C.2   107  ASN107      0.2292
    135  O          2.2470   19.9030   93.6640 O.2   107  ASN107     -0.2864
    136  CB         2.9020   18.1680   90.9390 C.3   107  ASN107      0.1181
    137  CG         3.1300   16.6800   90.6710 C.2   107  ASN107      0.2629
    138  OD1        2.7430   15.8090   91.4850 O.2   107  ASN107     -0.2716
    139  ND2        3.8170   16.3770   89.5730 N.am  107  ASN107     -0.0877
    140  N          4.7510   -1.5720   84.7110 N.3   144  PHE144     -0.1241
    141  CA         4.1100   -0.8680   83.5780 C.3   144  PHE144      0.1605
    142  C          2.8580   -1.5760   83.1090 C.2   144  PHE144      0.2264
    143  O          2.7730   -2.8020   83.1900 O.2   144  PHE144     -0.2867
    144  CB         5.0450   -0.8650   82.3690 C.3   144  PHE144      0.0534
    145  CG         6.1620    0.1140   82.4480 C.ar  144  PHE144     -0.0203
    146  CD1        6.6830    0.5410   83.6680 C.ar  144  PHE144     -0.0042
    147  CD2        6.7540    0.5620   81.2750 C.ar  144  PHE144     -0.0042
    148  CE1        7.7370    1.4560   83.7100 C.ar  144  PHE144     -0.0003
    149  CE2        7.8100    1.4730   81.3070 C.ar  144  PHE144     -0.0003
    150  CZ         8.3020    1.9200   82.5230 C.ar  144  PHE144     -0.0000
    151  N          2.0810    0.6340   77.8420 N.3   148  LYS148     -0.1245
    152  CA         3.2690    1.4450   78.1150 C.3   148  LYS148      0.1561
    153  C          4.5650    0.6540   77.8710 C.2   148  LYS148      0.2260
    154  O          5.4650    1.1640   77.2240 O.2   148  LYS148     -0.2867
    155  CB         3.2330    2.0530   79.5100 C.3   148  LYS148      0.0271
    156  CG         4.3280    3.1010   79.6900 C.3   148  LYS148      0.0035
    157  CD         4.3720    3.6540   81.0800 C.3   148  LYS148      0.0206
    158  CE         5.7040    4.4010   81.3380 C.3   148  LYS148      0.1093
    159  NZ         5.7290    5.7260   80.7000 N.3   148  LYS148     -0.1314
    160  N         14.0870    9.6910   67.7770 N.3   165  LYS165     -0.1245
    161  CA        12.6710    9.4620   67.9450 C.3   165  LYS165      0.1561
    162  C         11.9090   10.2960   66.9070 C.2   165  LYS165      0.2260
    163  O         12.4500   11.2480   66.3650 O.2   165  LYS165     -0.2867
    164  CB        12.2030    9.8930   69.3250 C.3   165  LYS165      0.0271
    165  CG        12.7240    9.1230   70.5110 C.3   165  LYS165      0.0035
    166  CD        12.1090    9.7830   71.7750 C.3   165  LYS165      0.0206
    167  CE        12.2700    8.9310   72.9860 C.3   165  LYS165      0.1093
    168  NZ        11.7530    9.6140   74.1960 N.3   165  LYS165     -0.1314
    169  N         10.1410   14.3620   74.2500 N.3   171  GLN171     -0.1231
    170  CA        11.0280   13.9800   75.3420 C.3   171  GLN171      0.1698
    171  C         12.2700   13.2560   74.8370 C.2   171  GLN171      0.2592
    172  O         12.1600   12.3980   73.9550 O.2   171  GLN171     -0.2718
    173  CB        10.3040   13.0420   76.2890 C.3   171  GLN171      0.0381
    174  CG        10.9630   12.9030   77.6560 C.3   171  GLN171      0.0905
    175  CD        10.0270   12.2110   78.6150 C.2   171  GLN171      0.2608
    176  OE1        9.7120   11.0300   78.4340 O.2   171  GLN171     -0.2717
    177  NE2        9.5290   12.9540   79.6130 N.am  171  GLN171     -0.0878
    178  N         13.4280   13.5970   75.4190 N.am  172  THR172     -0.1953
    179  CA        14.6960   12.8790   75.1670 C.3   172  THR172      0.1897
    180  C         14.5920   11.4340   75.6490 C.2   172  THR172      0.2313
    181  O         13.7900   11.1280   76.5460 O.2   172  THR172     -0.2863
    182  CB        15.8800   13.5470   75.8940 C.3   172  THR172      0.1794
    183  OG1       15.9170   14.9410   75.5620 O.3   172  THR172     -0.2208
    184  CG2       17.2140   12.8960   75.5200 C.3   172  THR172      0.0378
@<TRIPOS>BOND
     1   163   162    2
     2   162   161    1
     3   160   161    1
     4   161   164    1
     5   164   165    1
     6   165   166    1
     7   166   167    1
     8   167   168    1
     9   172   171    2
    10   169   170    1
    11   171   170    1
    12   171   178   am
    13   179   178    1
    14   179   180    1
    15   179   182    1
    16   170   173    1
    17   184   182    1
    18   183   182    1
    19   180   181    2
    20   173   174    1
    21   154   153    2
    22   174   175    1
    23   151   152    1
    24   153   152    1
    25   152   155    1
    26   176   175    2
    27   175   177   am
    28   155   156    1
    29   156   157    1
    30   159   158    1
    31   157   158    1
    32   147   149   ar
    33   147   145   ar
    34   149   150   ar
    35   112   110    1
    36   144   145    1
    37   144   141    1
    38   145   146   ar
    39   150   148   ar
    40   110   107    1
    41   110   111    1
    42   107   106    1
    43   107   108    1
    44   142   143    2
    45   142   141    1
    46   141   140    1
    47   146   148   ar
    48   109   108    2
    49   108   113   am
    50    57    55    1
    51   113   114    1
    52   116   115    2
    53   115   114    1
    54   115   119   am
    55   114   117    1
    56    55    54    1
    57   119   120    1
    58   120   123    1
    59   120   121    1
    60    56    54    1
    61   123   124    1
    62    54    51    1
    63    73    72    1
    64   117   118    1
    65   121   122    2
    66    64    62    1
    67    53    52    2
    68    72    71    1
    69    51    52    1
    70    51    50    1
    71   105   104    1
    72    43    42   ar
    73    43    41   ar
    74    52    58   am
    75    71    70    1
    76    42    40   ar
    77    50    46   am
    78   104   101    1
    79    99    98    1
    80    62    59    1
    81    62    63    1
    82    58    59    1
    83   139   137   am
    84    41    39   ar
    85    59    60    1
    86   103   102    2
    87   130   129    1
    88   125   126    1
    89    98    95    1
    90    70    69    1
    91   101   102    1
    92   101   100    1
    93    46    45    1
    94    46    47    2
    95    40    39   ar
    96   129   126    1
    97   129   131    1
    98    69    66    1
    99    95    94    1
   100    95    96    1
   101   137   136    1
   102   137   138    2
   103    49    48    1
   104    39    38    1
   105   136   133    1
   106    97    96    2
   107   126   127    1
   108    45    48    1
   109    45    44    1
   110   132   127   am
   111   132   133    1
   112    60    61    2
   113    68    67    2
   114    90    89    1
   115    90    91    1
   116    94    87   am
   117    37    36    2
   118    88    87    2
   119    93    91   am
   120   127   128    2
   121    66    67    1
   122    66    65    1
   123   133   134    1
   124    67    74   am
   125    84    82    1
   126    87    86    1
   127    44    36   am
   128    83    82    1
   129    82    81    2
   130    81    80    1
   131    80    79    1
   132    36    35    1
   133    89    86    1
   134    38    35    1
   135    91    92    2
   136    74    75    1
   137   134   135    2
   138    75    78    1
   139    75    76    1
   140    86    85    1
   141    35    34    1
   142    77    76    2
   143    78    79    1
   144    34    32   am
   145    21    20    1
   146    32    31    1
   147    32    33    2
   148    31    30    1
   149    12    11    1
   150    20    19    1
   151    10    11   ar
   152    10     8   ar
   153    11     9   ar
   154    25    24    2
   155     8     6   ar
   156    30    24   am
   157    19    18    1
   158    24    23    1
   159     9     7   ar
   160     1     2    1
   161     6     7   ar
   162     6     5    1
   163    18    17    1
   164    28    26    1
   165    23    26    1
   166    23    22    1
   167    26    27    1
   168     5     2    1
   169     2     3    1
   170     4     3    2
   171    22    15   am
   172    17    14    1
   173    15    14    1
   174    15    16    2
   175    14    13    1
   176    27    29    1
