@<TRIPOS>MOLECULE
tmp/3orfC00.pdb
 198 187 0 0 0
SMALL
GASTEIGER

@<TRIPOS>ATOM
      1  N          1.5220  -48.2520    4.8210 N.3     7  LEU7       -0.1231
      2  CA         1.7310  -49.3010    5.7850 C.3     7  LEU7        0.1693
      3  C          0.4610  -49.2550    6.6510 C.2     7  LEU7        0.2592
      4  O         -0.0530  -48.1800    6.9450 O.2     7  LEU7       -0.2718
      5  CB         3.0190  -49.0570    6.5620 C.3     7  LEU7        0.0284
      6  CG         3.2800  -50.0290    7.7350 C.3     7  LEU7        0.0019
      7  CD1        3.5560  -51.4790    7.2450 C.3     7  LEU7        0.0001
      8  CD2        4.3760  -49.5460    8.6850 C.3     7  LEU7        0.0001
      9  N         -0.1200  -50.3990    7.0290 N.am    8  GLY8       -0.1957
     10  CA        -1.4270  -50.3220    7.7630 C.3     8  GLY8        0.1869
     11  C         -2.5640  -50.1370    6.7830 C.2     8  GLY8        0.2309
     12  O         -3.6840  -49.7460    7.1460 O.2     8  GLY8       -0.2863
     13  N         -6.1930  -51.0370    7.5530 N.3    11  GLY11      -0.1210
     14  CA        -6.9550  -50.5080    8.6930 C.3    11  GLY11       0.1956
     15  C         -8.0350  -49.5380    8.2300 C.2    11  GLY11       0.2612
     16  O         -8.2720  -49.3670    7.0460 O.2    11  GLY11      -0.2717
     17  N         -8.7240  -48.8860    9.1480 N.am   12  ALA12      -0.1965
     18  CA        -9.8450  -48.0250    8.6780 C.3    12  ALA12       0.1728
     19  C         -9.3150  -46.7850    7.8640 C.2    12  ALA12       0.2616
     20  O         -9.7840  -46.5150    6.7850 O.2    12  ALA12      -0.2715
     21  CB       -10.7040  -47.6050    9.8520 C.3    12  ALA12       0.0334
     22  N         -8.3420  -46.0450    8.3960 N.am   13  LEU13      -0.1963
     23  CA        -7.7450  -44.9320    7.7060 C.3    13  LEU13       0.1728
     24  C         -6.9900  -45.4290    6.5050 C.2    13  LEU13       0.2616
     25  O         -7.1850  -44.8690    5.4140 O.2    13  LEU13      -0.2715
     26  CB        -6.7380  -44.1600    8.5730 C.3    13  LEU13       0.0311
     27  CG        -6.0790  -42.9530    7.9370 C.3    13  LEU13       0.0022
     28  CD1       -7.0380  -41.9210    7.2860 C.3    13  LEU13       0.0001
     29  CD2       -5.1790  -42.2180    8.9390 C.3    13  LEU13       0.0001
     30  N         -6.0790  -46.4130    6.7230 N.am   14  GLY14      -0.1955
     31  CA        -5.2650  -46.9030    5.6040 C.3    14  GLY14       0.1869
     32  C         -6.0970  -47.3640    4.3840 C.2    14  GLY14       0.2309
     33  O         -5.7290  -47.0090    3.2860 O.2    14  GLY14      -0.2863
     34  N          0.1550  -54.8160    5.3370 N.3    32  ASP32      -0.1225
     35  CA        -0.5600  -54.9710    6.5950 C.3    32  ASP32       0.1805
     36  C         -0.4230  -56.4250    7.0980 C.2    32  ASP32       0.2598
     37  O          0.3710  -57.1930    6.5480 O.2    32  ASP32      -0.2718
     38  CB        -2.0300  -54.4980    6.4760 C.3    32  ASP32       0.1424
     39  CG        -2.5970  -54.0130    7.8190 C.2    32  ASP32       0.3668
     40  OD1       -2.3940  -54.7050    8.8660 O.co2  32  ASP32      -0.2456
     41  OD2       -3.3170  -52.9700    7.8380 O.co2  32  ASP32      -0.2456
     42  N         -1.1080  -56.7620    8.1830 N.am   33  PHE33      -0.1962
     43  CA        -1.1090  -58.1310    8.6640 C.3    33  PHE33       0.1771
     44  C         -2.1770  -58.9890    7.9710 C.2    33  PHE33       0.2619
     45  O         -2.2640  -60.1750    8.2630 O.2    33  PHE33      -0.2715
     46  CB        -1.3350  -58.2160   10.1660 C.3    33  PHE33       0.0574
     47  CG        -0.2810  -57.5270   10.9900 C.ar   33  PHE33      -0.0200
     48  CD1       -0.6170  -56.9550   12.2260 C.ar   33  PHE33      -0.0042
     49  CD2        1.0350  -57.4130   10.5420 C.ar   33  PHE33      -0.0042
     50  CE1        0.3520  -56.3270   13.0140 C.ar   33  PHE33      -0.0003
     51  CE2        2.0000  -56.7780   11.3330 C.ar   33  PHE33      -0.0003
     52  CZ         1.6880  -56.2520   12.5410 C.ar   33  PHE33      -0.0000
     53  N         -2.9500  -58.3890    7.0630 N.am   34  ARG34      -0.1977
     54  CA        -4.0370  -59.0670    6.3220 C.3    34  ARG34       0.1597
     55  C         -4.0560  -58.3690    4.9580 C.2    34  ARG34       0.2287
     56  O         -3.5350  -57.2590    4.8500 O.2    34  ARG34      -0.2864
     57  CB        -5.3480  -58.9670    7.1100 C.3    34  ARG34       0.0334
     58  CG        -6.1500  -57.6700    6.9690 C.3    34  ARG34       0.0492
     59  CD        -7.3130  -57.5600    8.0240 C.3    34  ARG34       0.2205
     60  NE        -6.6380  -57.7090    9.3040 N.pl3  34  ARG34      -0.0865
     61  CZ        -6.1200  -56.6790    9.9740 C.cat  34  ARG34       0.5346
     62  NH1       -6.3310  -55.4240    9.5670 N.pl3  34  ARG34       0.1354
     63  NH2       -5.4600  -56.9160   11.0830 N.pl3  34  ARG34       0.1354
     64  N          2.4790  -59.0120    5.8470 N.3    45  ILE45      -0.1245
     65  CA         3.6160  -59.3060    6.7650 C.3    45  ILE45       0.1561
     66  C          3.1540  -60.0650    7.9830 C.2    45  ILE45       0.2260
     67  O          2.0210  -59.8930    8.4430 O.2    45  ILE45      -0.2867
     68  CB         4.4410  -58.0130    7.2320 C.3    45  ILE45       0.0252
     69  CG1        3.5330  -56.9060    7.7840 C.3    45  ILE45       0.0019
     70  CG2        5.2760  -57.4920    6.1060 C.3    45  ILE45       0.0019
     71  CD1        4.3430  -55.7790    8.7050 C.3    45  ILE45       0.0001
     72  N          6.2870  -56.9690   12.2730 N.3    48  SER48      -0.1217
     73  CA         6.9740  -55.7670   11.9580 C.3    48  SER48       0.1889
     74  C          8.4830  -55.8990   12.2990 C.2    48  SER48       0.2288
     75  O          9.1720  -54.8890   12.3010 O.2    48  SER48      -0.2866
     76  CB         6.3690  -54.6690   12.8140 C.3    48  SER48       0.2089
     77  OG         6.0710  -53.5690   12.0090 O.3    48  SER48      -0.2183
     78  N         -0.3930  -45.6690    8.2890 N.3    73  ALA73      -0.1231
     79  CA        -1.6650  -45.5510    9.0330 C.3    73  ALA73       0.1694
     80  C         -1.7870  -46.7200    9.9870 C.2    73  ALA73       0.2592
     81  O         -2.8890  -47.0630   10.4360 O.2    73  ALA73      -0.2718
     82  CB        -2.8750  -45.5560    8.0080 C.3    73  ALA73       0.0304
     83  N         -0.6790  -47.4260   10.2000 N.am   74  ALA74      -0.1966
     84  CA        -0.6280  -48.4710   11.2200 C.3    74  ALA74       0.1728
     85  C         -0.7700  -47.8730   12.6200 C.2    74  ALA74       0.2617
     86  O         -0.3540  -46.7440   12.8970 O.2    74  ALA74      -0.2715
     87  CB         0.7010  -49.2780   11.1270 C.3    74  ALA74       0.0334
     88  N         -1.4020  -48.6010   13.5110 N.am   75  GLY75      -0.1940
     89  CA        -1.2280  -48.2850   14.9530 C.3    75  GLY75       0.2014
     90  C         -2.3630  -48.8800   15.7620 C.2    75  GLY75       0.2636
     91  O         -3.1210  -49.7180   15.2620 O.2    75  GLY75      -0.2714
     92  N         -2.4860  -48.4670   17.0150 N.am   76  GLY76      -0.2011
     93  CA        -3.5230  -49.0420   17.8820 C.3    76  GLY76       0.1506
     94  C         -3.4550  -48.3390   19.2390 C.3    76  GLY76       0.2054
     95  O         -2.4690  -47.5680   19.5340 O.3    76  GLY76      -0.2184
     96  N          4.3560  -52.7700   19.7360 N.3    96  ASP96      -0.1225
     97  CA         4.2900  -53.5830   18.4940 C.3    96  ASP96       0.1805
     98  C          3.4610  -52.8330   17.3980 C.2    96  ASP96       0.2597
     99  O          3.7970  -52.8180   16.2360 O.2    96  ASP96      -0.2718
    100  CB         3.7270  -54.9960   18.8310 C.3    96  ASP96       0.1424
    101  CG         4.7950  -55.9330   19.5850 C.2    96  ASP96       0.3668
    102  OD1        5.9770  -55.5560   19.7260 O.co2  96  ASP96      -0.2456
    103  OD2        4.4630  -57.0800   20.0190 O.co2  96  ASP96      -0.2456
    104  N          2.3530  -52.2140   17.8140 N.am   97  MET97      -0.1979
    105  CA         1.4570  -51.5650   16.9130 C.3    97  MET97       0.1605
    106  C          1.9410  -50.2200   16.5160 C.2    97  MET97       0.2287
    107  O          1.7840  -49.8250   15.3380 O.2    97  MET97      -0.2864
    108  CB         0.0710  -51.4170   17.5960 C.3    97  MET97       0.0413
    109  CG        -0.6260  -52.7620   17.6930 C.3    97  MET97       0.0598
    110  SD        -2.3800  -52.6040   18.1360 S.3    97  MET97      -0.1393
    111  CE        -2.3880  -52.6140   19.8980 C.3    97  MET97       0.0692
    112  N          5.9250  -50.0880   13.9470 N.3   101  SER101     -0.1217
    113  CA         5.5170  -49.6160   12.6160 C.3   101  SER101      0.1889
    114  C          6.1200  -48.3060   12.2570 C.2   101  SER101      0.2288
    115  O          6.4180  -48.0660   11.0660 O.2   101  SER101     -0.2866
    116  CB         3.9690  -49.5070   12.4680 C.3   101  SER101      0.2089
    117  OG         3.4470  -48.8270   13.5900 O.3   101  SER101     -0.2183
    118  N          1.2750  -41.3970   11.1190 N.3   122  THR122     -0.1203
    119  CA         0.1760  -40.9920   11.9750 C.3   122  THR122      0.1994
    120  C          0.5830  -41.0230   13.4810 C.2   122  THR122      0.2618
    121  O          0.9580  -42.0810   14.0300 O.2   122  THR122     -0.2717
    122  CB        -1.0480  -41.9500   11.7540 C.3   122  THR122      0.1784
    123  OG1       -1.3390  -42.0070   10.3540 O.3   122  THR122     -0.2211
    124  CG2       -2.2870  -41.4210   12.4280 C.3   122  THR122      0.0376
    125  N          0.5660  -39.8650   14.1390 N.am  123  GLY123     -0.1942
    126  CA         0.8430  -39.7470   15.5750 C.3   123  GLY123      0.2014
    127  C         -0.4600  -39.7730   16.3460 C.2   123  GLY123      0.2638
    128  O         -1.3130  -40.5570   16.0380 O.2   123  GLY123     -0.2714
    129  N         -0.5500  -38.9720   17.3960 N.am  124  ALA124     -0.1977
    130  CA        -1.7150  -38.8130   18.2090 C.3   124  ALA124      0.1597
    131  C         -1.5980  -37.4610   18.8790 C.2   124  ALA124      0.2287
    132  O         -0.5710  -37.1240   19.5590 O.2   124  ALA124     -0.2864
    133  CB        -1.8360  -39.8880   19.2670 C.3   124  ALA124      0.0319
    134  N          0.6120  -45.8550   25.3910 N.3   137  TYR137     -0.1241
    135  CA         0.1870  -45.2160   24.1600 C.3   137  TYR137      0.1605
    136  C          0.8540  -43.8660   23.9580 C.2   137  TYR137      0.2264
    137  O          1.4040  -43.5740   22.8920 O.2   137  TYR137     -0.2867
    138  CB        -1.3190  -45.0020   24.2240 C.3   137  TYR137      0.0534
    139  CG        -1.9320  -44.2230   23.0500 C.ar  137  TYR137     -0.0201
    140  CD1       -2.0520  -44.8200   21.7730 C.ar  137  TYR137     -0.0009
    141  CD2       -2.4800  -42.9680   23.2370 C.ar  137  TYR137     -0.0009
    142  CE1       -2.6430  -44.2180   20.7520 C.ar  137  TYR137      0.0417
    143  CE2       -3.1290  -42.2850   22.1530 C.ar  137  TYR137      0.0417
    144  CZ        -3.1910  -42.9320   20.9170 C.ar  137  TYR137      0.1957
    145  OH        -3.8130  -42.3480   19.8210 O.3   137  TYR137     -0.2866
    146  N          3.5330  -43.0500   20.9750 N.3   141  LYS141     -0.1245
    147  CA         3.1920  -41.9480   20.0730 C.3   141  LYS141      0.1561
    148  C          4.2060  -40.8190   20.2300 C.2   141  LYS141      0.2260
    149  O          4.5790  -40.2490   19.2070 O.2   141  LYS141     -0.2867
    150  CB         1.7210  -41.4460   20.2260 C.3   141  LYS141      0.0271
    151  CG         0.7020  -42.5400   19.7700 C.3   141  LYS141      0.0035
    152  CD         0.8340  -42.7530   18.1970 C.3   141  LYS141      0.0206
    153  CE        -0.3250  -43.4670   17.6790 C.3   141  LYS141      0.1093
    154  NZ        -0.4120  -43.6580   16.1800 N.3   141  LYS141     -0.1314
    155  N         -4.3080  -37.1190   14.7800 N.3   169  PRO169     -0.2102
    156  CA        -5.7310  -37.1060   14.9220 C.3   169  PRO169      0.1504
    157  C         -6.1140  -36.8990   16.3720 C.2   169  PRO169      0.2576
    158  O         -5.3020  -37.1790   17.2780 O.2   169  PRO169     -0.2718
    159  CB        -6.1860  -38.5440   14.4810 C.3   169  PRO169      0.0282
    160  CG        -4.9700  -39.2120   13.9090 C.3   169  PRO169      0.0208
    161  CD        -3.7680  -38.4540   14.4390 C.3   169  PRO169      0.0893
    162  N         -7.3460  -36.4230   16.5640 N.am  170  VAL170     -0.1966
    163  CA        -7.9890  -36.3240   17.8640 C.3   170  VAL170      0.1727
    164  C         -8.9980  -37.5000   17.8170 C.2   170  VAL170      0.2617
    165  O         -8.7910  -38.5030   18.4980 O.2   170  VAL170     -0.2715
    166  CB        -8.7040  -34.9310   18.0440 C.3   170  VAL170      0.0290
    167  CG1       -9.7000  -34.8440   19.3050 C.3   170  VAL170      0.0023
    168  CG2       -7.6750  -33.7560   18.0350 C.3   170  VAL170      0.0023
    169  N        -10.0260  -37.4110   16.9780 N.am  171  THR171     -0.1937
    170  CA       -10.9620  -38.5220   16.8300 C.3   171  THR171      0.2028
    171  C        -11.3300  -38.7540   15.3710 C.2   171  THR171      0.2642
    172  O        -11.7370  -37.8440   14.6360 O.2   171  THR171     -0.2714
    173  CB       -12.2670  -38.2940   17.6180 C.3   171  THR171      0.1808
    174  OG1      -11.9250  -38.0080   18.9870 O.3   171  THR171     -0.2208
    175  CG2      -13.0820  -39.6390   17.5990 C.3   171  THR171      0.0379
    176  N        -11.2000  -39.9810   14.9230 N.am  172  LEU172     -0.1977
    177  CA       -11.5450  -40.2000   13.5540 C.3   172  LEU172      0.1596
    178  C        -12.9500  -40.8340   13.4820 C.2   172  LEU172      0.2287
    179  O        -13.3090  -41.6000   14.3860 O.2   172  LEU172     -0.2864
    180  CB       -10.5450  -41.2070   13.0380 C.3   172  LEU172      0.0297
    181  CG        -9.3200  -40.8640   12.1720 C.3   172  LEU172      0.0022
    182  CD1       -8.9650  -39.4110   12.1020 C.3   172  LEU172      0.0001
    183  CD2       -8.2110  -41.8660   12.3820 C.3   172  LEU172      0.0001
    184  N        -14.4580  -43.7640   12.3840 N.3   174  THR174     -0.1218
    185  CA       -14.2480  -45.1560   11.9310 C.3   174  THR174      0.1862
    186  C        -15.4770  -46.0630   12.2070 C.2   174  THR174      0.2287
    187  O        -16.2720  -45.7710   13.1350 O.2   174  THR174     -0.2866
    188  CB       -13.0460  -45.7750   12.5880 C.3   174  THR174      0.1770
    189  OG1      -13.3310  -45.9510   13.9740 O.3   174  THR174     -0.2211
    190  CG2      -11.7880  -44.8620   12.4340 C.3   174  THR174      0.0375
    191  N        -15.5660  -46.6570   15.9480 N.3   177  ASN177     -0.1240
    192  CA       -16.1300  -45.6090   16.7810 C.3   177  ASN177      0.1653
    193  C        -17.6470  -45.4600   16.6270 C.2   177  ASN177      0.2266
    194  O        -18.2980  -45.1960   17.6210 O.2   177  ASN177     -0.2867
    195  CB       -15.4390  -44.2740   16.5990 C.3   177  ASN177      0.1155
    196  CG       -14.0460  -44.2720   17.2110 C.2   177  ASN177      0.2627
    197  OD1      -13.7640  -45.0840   18.1200 O.2   177  ASN177     -0.2716
    198  ND2      -13.1440  -43.4120   16.6840 N.am  177  ASN177     -0.0877
@<TRIPOS>BOND
     1    33    32    2
     2    32    31    1
     3     1     2    1
     4    56    55    2
     5    55    54    1
     6    34    35    1
     7    25    24    2
     8    31    30    1
     9     2     5    1
    10     2     3    1
    11    64    65    1
    12    70    68    1
    13    54    53    1
    14    54    57    1
    15    38    35    1
    16    38    39    1
    17    24    30   am
    18    24    23    1
    19    37    36    2
    20     5     6    1
    21    35    36    1
    22     3     4    2
    23     3     9   am
    24    65    68    1
    25    65    66    1
    26    11    12    2
    27    11    10    1
    28    20    19    2
    29    58    57    1
    30    58    59    1
    31     9    10    1
    32    16    15    2
    33    53    44   am
    34    36    42   am
    35    68    69    1
    36     7     6    1
    37    28    27    1
    38    13    14    1
    39    23    22    1
    40    23    26    1
    41     6     8    1
    42    69    71    1
    43    39    41   ar
    44    39    40   ar
    45    19    22   am
    46    19    18    1
    47    27    26    1
    48    27    29    1
    49    44    45    2
    50    44    43    1
    51    66    67    2
    52    82    79    1
    53    59    60    1
    54    42    43    1
    55    15    14    1
    56    15    17   am
    57    78    79    1
    58    43    46    1
    59    18    17    1
    60    18    21    1
    61    79    80    1
    62    60    61    2
    63    62    61    1
    64    61    63    1
    65    80    83   am
    66    80    81    2
    67    46    47    1
    68    83    84    1
    69   123   122    1
    70    49    47   ar
    71    49    51   ar
    72    47    48   ar
    73   115   114    2
    74   118   119    1
    75    87    84    1
    76    84    85    1
    77    51    52   ar
    78   122   119    1
    79   122   124    1
    80   185   186    1
    81   185   184    1
    82   185   188    1
    83    73    72    1
    84    73    74    1
    85    73    76    1
    86   119   120    1
    87    77    76    1
    88   182   181    1
    89   181   183    1
    90   181   180    1
    91   186   187    2
    92    48    50   ar
    93   114   113    1
    94    74    75    2
    95   190   188    1
    96   116   113    1
    97   116   117    1
    98    52    50   ar
    99   188   189    1
   100   113   112    1
   101    85    86    2
   102    85    88   am
   103   180   177    1
   104   120   121    2
   105   120   125   am
   106   178   177    1
   107   178   179    2
   108    88    89    1
   109   177   176    1
   110   160   161    1
   111   160   159    1
   112   125   126    1
   113   161   155    1
   114   159   156    1
   115   172   171    2
   116   155   156    1
   117   156   157    1
   118   176   171   am
   119    89    90    1
   120    91    90    2
   121   107   106    2
   122   171   170    1
   123   126   127    1
   124    90    92   am
   125   191   192    1
   126   128   127    2
   127   154   153    1
   128    99    98    2
   129   127   129   am
   130   157   162   am
   131   157   158    2
   132   106   105    1
   133   162   163    1
   134   195   192    1
   135   195   196    1
   136   193   192    1
   137   193   194    2
   138   198   196   am
   139   170   169    1
   140   170   173    1
   141   105   108    1
   142   105   104    1
   143   169   164   am
   144    92    93    1
   145   196   197    2
   146   129   130    1
   147    98   104   am
   148    98    97    1
   149   108   109    1
   150   175   173    1
   151   173   174    1
   152   153   152    1
   153   109   110    1
   154   164   163    1
   155   164   165    2
   156   163   166    1
   157    93    94    1
   158   168   166    1
   159   166   167    1
   160   110   111    1
   161   152   151    1
   162   130   131    1
   163   130   133    1
   164    97   100    1
   165    97    96    1
   166   100   101    1
   167   131   132    2
   168   149   148    2
   169    94    95    1
   170   101   102   ar
   171   101   103   ar
   172   151   150    1
   173   145   144    1
   174   147   150    1
   175   147   148    1
   176   147   146    1
   177   142   144   ar
   178   142   140   ar
   179   144   143   ar
   180   140   139   ar
   181   143   141   ar
   182   137   136    2
   183   139   141   ar
   184   139   138    1
   185   136   135    1
   186   135   138    1
   187   135   134    1
