@<TRIPOS>MOLECULE
tmp/3orhC00.pdb
 230 224 0 0 0
SMALL
GASTEIGER

@<TRIPOS>ATOM
      1  N         13.3670   78.3670    0.6020 N.3    14  TRP14      -0.1241
      2  CA        13.7740   79.7800    0.5290 C.3    14  TRP14       0.1605
      3  C         12.9110   80.7500    1.3710 C.2    14  TRP14       0.2264
      4  O         13.4670   81.6410    2.0140 O.2    14  TRP14      -0.2867
      5  CB        13.8150   80.2610   -0.9160 C.3    14  TRP14       0.0550
      6  CG        14.7150   81.4450   -1.1160 C.ar   14  TRP14       0.0003
      7  CD1       14.3580   82.7580   -1.1090 C.ar   14  TRP14       0.0946
      8  CD2       16.1470   81.4180   -1.2180 C.ar   14  TRP14       0.0152
      9  NE1       15.4750   83.5540   -1.2420 N.ar   14  TRP14      -0.2442
     10  CE2       16.5830   82.7540   -1.3430 C.ar   14  TRP14       0.0810
     11  CE3       17.1060   80.3870   -1.2360 C.ar   14  TRP14       0.0012
     12  CZ2       17.9380   83.0900   -1.4990 C.ar   14  TRP14       0.0191
     13  CZ3       18.4420   80.7200   -1.4050 C.ar   14  TRP14       0.0001
     14  CH2       18.8450   82.0540   -1.5420 C.ar   14  TRP14       0.0015
     15  N         24.5080   89.8680    2.4430 N.3    28  LEU28      -0.1245
     16  CA        23.2630   89.1450    2.7200 C.3    28  LEU28       0.1561
     17  C         23.5090   87.6860    2.3150 C.2    28  LEU28       0.2260
     18  O         23.8950   87.4180    1.1800 O.2    28  LEU28      -0.2867
     19  CB        22.0370   89.7120    1.9470 C.3    28  LEU28       0.0270
     20  CG        20.7870   88.8100    1.8480 C.3    28  LEU28       0.0019
     21  CD1       20.1820   88.4780    3.2210 C.3    28  LEU28       0.0001
     22  CD2       19.7130   89.4590    0.9880 C.3    28  LEU28       0.0001
     23  N         21.6950   83.6970    2.5850 N.3    30  ILE30      -0.1245
     24  CA        20.4860   82.9100    2.8350 C.3    30  ILE30       0.1561
     25  C         20.8980   81.4750    2.5420 C.2    30  ILE30       0.2260
     26  O         21.5170   81.2240    1.5020 O.2    30  ILE30      -0.2867
     27  CB        19.2470   83.3820    1.9990 C.3    30  ILE30       0.0252
     28  CG1       18.9000   84.8620    2.2960 C.3    30  ILE30       0.0019
     29  CG2       18.0170   82.4850    2.2840 C.3    30  ILE30       0.0019
     30  CD1       17.8430   85.5520    1.3190 C.3    30  ILE30       0.0001
     31  N         24.1540   85.7750   -1.4480 N.3    35  VAL35      -0.1231
     32  CA        23.0350   86.3350   -2.2170 C.3    35  VAL35       0.1692
     33  C         23.2950   87.7670   -2.7030 C.2    35  VAL35       0.2591
     34  O         23.0550   88.0570   -3.8780 O.2    35  VAL35      -0.2718
     35  CB        21.7000   86.1930   -1.4270 C.3    35  VAL35       0.0266
     36  CG1       20.5290   86.8380   -2.1600 C.3    35  VAL35       0.0020
     37  CG2       21.3910   84.7210   -1.1460 C.3    35  VAL35       0.0020
     38  N         23.7690   88.6640   -1.8240 N.am   36  MET36      -0.1979
     39  CA        24.0060   90.0580   -2.1860 C.3    36  MET36       0.1605
     40  C         25.1760   90.6420   -1.3930 C.2    36  MET36       0.2287
     41  O         25.3750   90.2720   -0.2320 O.2    36  MET36      -0.2864
     42  CB        22.7100   90.8840   -1.9710 C.3    36  MET36       0.0413
     43  CG        22.7800   92.3130   -2.4830 C.3    36  MET36       0.0598
     44  SD        23.3930   92.4470   -4.1740 S.3    36  MET36      -0.1393
     45  CE        23.5360   94.2160   -4.3020 C.3    36  MET36       0.0692
     46  N         24.2290   97.9510   -9.3510 N.3    44  MET44      -0.1245
     47  CA        22.8140   98.0210   -8.9510 C.3    44  MET44       0.1570
     48  C         22.2060   99.3650   -9.3510 C.2    44  MET44       0.2261
     49  O         21.0370   99.4100   -9.7540 O.2    44  MET44      -0.2867
     50  CB        22.6450   97.7670   -7.4390 C.3    44  MET44       0.0387
     51  CG        23.0050   96.3720   -7.0040 C.3    44  MET44       0.0595
     52  SD        21.9570   95.1070   -7.7850 S.3    44  MET44      -0.1393
     53  CE        23.1250   94.3480   -8.9030 C.3    44  MET44       0.0692
     54  N         10.0250   95.4930   -9.5440 N.3    60  GLU60      -0.1231
     55  CA        11.3460   95.0080   -9.1240 C.3    60  GLU60       0.1699
     56  C         11.1650   93.6110   -8.5110 C.2    60  GLU60       0.2592
     57  O         10.2840   93.4110   -7.6690 O.2    60  GLU60      -0.2718
     58  CB        11.9870   95.9850   -8.1320 C.3    60  GLU60       0.0402
     59  CG        13.4260   95.6260   -7.7990 C.3    60  GLU60       0.1161
     60  CD        14.1970   96.6460   -6.9850 C.2    60  GLU60       0.3649
     61  OE1       13.7280   97.8020   -6.8650 O.co2  60  GLU60      -0.2457
     62  OE2       15.2930   96.2920   -6.4950 O.co2  60  GLU60      -0.2457
     63  N         11.9380   92.6360   -9.0040 N.am   61  VAL61      -0.1966
     64  CA        11.8580   91.2550   -8.5300 C.3    61  VAL61       0.1727
     65  C         13.1500   90.9520   -7.7470 C.2    61  VAL61       0.2617
     66  O         14.2280   90.8860   -8.3320 O.2    61  VAL61      -0.2715
     67  CB        11.5570   90.2300   -9.6610 C.3    61  VAL61       0.0290
     68  CG1       11.1960   88.8770   -9.0770 C.3    61  VAL61       0.0023
     69  CG2       10.4310   90.7220  -10.5640 C.3    61  VAL61       0.0023
     70  N         13.0020   90.7890   -6.4370 N.am   62  GLY62      -0.1940
     71  CA        14.0980   90.5460   -5.5050 C.3    62  GLY62       0.2014
     72  C         14.4750   91.8530   -4.8340 C.2    62  GLY62       0.2639
     73  O         14.9040   92.7920   -5.5000 O.2    62  GLY62      -0.2714
     74  N         14.2860   91.9420   -3.5230 N.am   63  PHE63      -0.1959
     75  CA        14.5710   93.1730   -2.7750 C.3    63  PHE63       0.1771
     76  C         16.0110   93.2490   -2.2430 C.2    63  PHE63       0.2620
     77  O         16.6030   94.3330   -2.2600 O.2    63  PHE63      -0.2715
     78  CB        13.5610   93.3390   -1.6380 C.3    63  PHE63       0.0574
     79  CG        13.6910   94.6220   -0.8420 C.ar   63  PHE63      -0.0200
     80  CD1       13.3890   95.8530   -1.4210 C.ar   63  PHE63      -0.0042
     81  CD2       14.1250   94.6000    0.4800 C.ar   63  PHE63      -0.0042
     82  CE1       13.4870   97.0390   -0.6770 C.ar   63  PHE63      -0.0003
     83  CE2       14.2410   95.7880    1.2170 C.ar   63  PHE63      -0.0003
     84  CZ        13.8820   96.9920    0.6430 C.ar   63  PHE63      -0.0000
     85  N         16.5360   92.1220   -1.7550 N.am   64  GLY64      -0.1940
     86  CA        17.8910   91.9900   -1.2230 C.3    64  GLY64       0.2014
     87  C         18.2910   92.9910   -0.1540 C.2    64  GLY64       0.2639
     88  O         17.7390   92.9920    0.9540 O.2    64  GLY64      -0.2714
     89  N         19.2610   93.8480   -0.4850 N.am   65  MET65      -0.1963
     90  CA        19.7750   94.8670    0.4450 C.3    65  MET65       0.1736
     91  C         19.2190   96.2580    0.1530 C.2    65  MET65       0.2616
     92  O         19.7720   97.2450    0.6430 O.2    65  MET65      -0.2715
     93  CB        21.3210   94.8830    0.4240 C.3    65  MET65       0.0427
     94  CG        21.9460   93.6340    1.0150 C.3    65  MET65       0.0599
     95  SD        23.7730   93.6180    0.9560 S.3    65  MET65      -0.1393
     96  CE        24.1620   94.7300    2.2650 C.3    65  MET65       0.0692
     97  N         18.1350   96.3470   -0.6610 N.am   66  ALA66      -0.1963
     98  CA        17.4700   97.6190   -1.0440 C.3    66  ALA66       0.1728
     99  C         18.3860   98.5950   -1.8110 C.2    66  ALA66       0.2616
    100  O         18.0770   99.7860   -1.8830 O.2    66  ALA66      -0.2715
    101  CB        16.8940   98.3120    0.2050 C.3    66  ALA66       0.0334
    102  N         19.5060   98.1120   -2.3910 N.am   67  ILE67      -0.1963
    103  CA        20.4430   99.0150   -3.0830 C.3    67  ILE67       0.1727
    104  C         19.8210   99.5330   -4.4010 C.2    67  ILE67       0.2616
    105  O         19.7070  100.7420   -4.5830 O.2    67  ILE67      -0.2715
    106  CB        21.8510   98.3830   -3.2480 C.3    67  ILE67       0.0290
    107  CG1       22.4500   98.0580   -1.8400 C.3    67  ILE67       0.0022
    108  CG2       22.7750   99.3250   -4.0490 C.3    67  ILE67       0.0023
    109  CD1       23.5410   97.0290   -1.7670 C.3    67  ILE67       0.0001
    110  N         19.3830   98.6200   -5.3000 N.am   68  ALA68      -0.1977
    111  CA        18.7130   98.9930   -6.5490 C.3    68  ALA68       0.1597
    112  C         17.3950   99.7220   -6.2440 C.2    68  ALA68       0.2287
    113  O         17.0830  100.7250   -6.8910 O.2    68  ALA68      -0.2864
    114  CB        18.4330   97.7540   -7.3890 C.3    68  ALA68       0.0319
    115  N          8.5080   92.3400   -5.5780 N.3    83  ILE83      -0.1231
    116  CA         8.2270   90.9350   -5.2560 C.3    83  ILE83       0.1692
    117  C          9.4440   90.3710   -4.5030 C.2    83  ILE83       0.2592
    118  O         10.5830   90.4850   -4.9760 O.2    83  ILE83      -0.2718
    119  CB         7.8780   90.0820   -6.5110 C.3    83  ILE83       0.0266
    120  CG1        6.6450   90.6710   -7.2640 C.3    83  ILE83       0.0019
    121  CG2        7.6480   88.5860   -6.1430 C.3    83  ILE83       0.0020
    122  CD1        6.3790   89.9760   -8.6400 C.3    83  ILE83       0.0001
    123  N          9.1880   89.7280   -3.3710 N.am   84  GLU84      -0.1966
    124  CA        10.2320   89.1440   -2.5340 C.3    84  GLU84       0.1733
    125  C          9.7480   87.8430   -1.8920 C.2    84  GLU84       0.2616
    126  O          8.7160   87.8350   -1.2200 O.2    84  GLU84      -0.2715
    127  CB        10.7210   90.1650   -1.4860 C.3    84  GLU84       0.0429
    128  CG        11.7240   89.5990   -0.4950 C.3    84  GLU84       0.1163
    129  CD        12.9610   88.9890   -1.1320 C.2    84  GLU84       0.3649
    130  OE1       13.5960   89.6610   -1.9790 O.co2  84  GLU84      -0.2457
    131  OE2       13.3180   87.8540   -0.7450 O.co2  84  GLU84      -0.2457
    132  N         10.5140   86.7450   -2.0930 N.am   85  CYS85      -0.1954
    133  CA        10.1730   85.4210   -1.5540 C.3    85  CYS85       0.1843
    134  C         10.4960   85.2700   -0.0650 C.2    85  CYS85       0.2625
    135  O          9.6710   84.7680    0.6870 O.2    85  CYS85      -0.2714
    136  CB        10.8370   84.3090   -2.3670 C.3    85  CYS85       0.0997
    137  SG        10.7040   82.6620   -1.6120 S.3    85  CYS85      -0.0797
    138  N         11.7090   85.6380    0.3360 N.am   86  ASN86      -0.1972
    139  CA        12.2080   85.4020    1.6900 C.3    86  ASN86       0.1688
    140  C         11.4710   86.2240    2.7660 C.2    86  ASN86       0.2292
    141  O         11.4090   87.4380    2.6640 O.2    86  ASN86      -0.2864
    142  CB        13.7140   85.6290    1.7210 C.3    86  ASN86       0.1181
    143  CG        14.3320   85.2230    3.0220 C.2    86  ASN86       0.2629
    144  OD1       14.4820   86.0400    3.9210 O.2    86  ASN86      -0.2716
    145  ND2       14.6250   83.9510    3.1710 N.am   86  ASN86      -0.0877
    146  N         13.7700   88.9100    4.3870 N.3    89  VAL89      -0.1245
    147  CA        14.0060   90.0480    3.4850 C.3    89  VAL89       0.1561
    148  C         12.6790   90.8390    3.3410 C.2    89  VAL89       0.2260
    149  O         12.7090   92.0760    3.3060 O.2    89  VAL89      -0.2867
    150  CB        14.5600   89.6010    2.0990 C.3    89  VAL89       0.0252
    151  CG1       14.8430   90.8080    1.1990 C.3    89  VAL89       0.0019
    152  CG2       15.8070   88.7310    2.2450 C.3    89  VAL89       0.0019
    153  N          6.3420   86.3420   -1.8680 N.3   109  GLY109     -0.1210
    154  CA         6.3780   85.0200   -2.4770 C.3   109  GLY109      0.1956
    155  C          7.3600   84.8670   -3.6150 C.2   109  GLY109      0.2612
    156  O          8.0290   85.8310   -4.0110 O.2   109  GLY109     -0.2717
    157  N          7.4660   83.6330   -4.1370 N.am  110  LEU110     -0.1965
    158  CA         8.2940   83.3410   -5.3070 C.3   110  LEU110      0.1728
    159  C          7.6450   84.0590   -6.4820 C.2   110  LEU110      0.2616
    160  O          6.4130   84.0640   -6.5650 O.2   110  LEU110     -0.2715
    161  CB         8.2840   81.8300   -5.6100 C.3   110  LEU110      0.0311
    162  CG         9.0320   80.9140   -4.6180 C.3   110  LEU110      0.0022
    163  CD1        8.6250   79.4380   -4.8200 C.3   110  LEU110      0.0001
    164  CD2       10.5080   81.0540   -4.7750 C.3   110  LEU110      0.0001
    165  N          8.4420   84.6610   -7.3910 N.am  111  TRP111     -0.1960
    166  CA         7.8420   85.2930   -8.5700 C.3   111  TRP111      0.1771
    167  C          7.0420   84.2370   -9.3640 C.2   111  TRP111      0.2619
    168  O          6.0620   84.5750  -10.0220 O.2   111  TRP111     -0.2715
    169  CB         8.8840   85.9860   -9.4680 C.3   111  TRP111      0.0590
    170  CG         9.9430   85.0990  -10.0560 C.ar  111  TRP111      0.0006
    171  CD1       11.2460   85.0120   -9.6640 C.ar  111  TRP111      0.0946
    172  CD2        9.8050   84.2320  -11.1910 C.ar  111  TRP111      0.0152
    173  NE1       11.9200   84.1170  -10.4630 N.ar  111  TRP111     -0.2442
    174  CE2       11.0560   83.6110  -11.3980 C.ar  111  TRP111      0.0810
    175  CE3        8.7460   83.9290  -12.0660 C.ar  111  TRP111      0.0012
    176  CZ2       11.2720   82.6810  -12.4290 C.ar  111  TRP111      0.0191
    177  CZ3        8.9490   82.9830  -13.0680 C.ar  111  TRP111      0.0001
    178  CH2       10.1980   82.3650  -13.2330 C.ar  111  TRP111      0.0015
    179  N          7.4470   82.9430   -9.2510 N.am  112  GLU112     -0.1977
    180  CA         6.7870   81.8200   -9.9460 C.3   112  GLU112      0.1602
    181  C          5.3060   81.7490   -9.5680 C.2   112  GLU112      0.2287
    182  O          4.4750   81.4620  -10.4280 O.2   112  GLU112     -0.2864
    183  CB         7.5100   80.4910   -9.6460 C.3   112  GLU112      0.0415
    184  CG         8.9170   80.3890  -10.2210 C.3   112  GLU112      0.1163
    185  CD        10.0750   80.8970   -9.3700 C.2   112  GLU112      0.3649
    186  OE1        9.9030   81.8590   -8.5850 O.co2 112  GLU112     -0.2457
    187  OE2       11.1890   80.3630   -9.5520 O.co2 112  GLU112     -0.2457
    188  N         12.8400   95.3450  -13.3110 N.3   127  LEU127     -0.1245
    189  CA        14.1950   95.0410  -12.8490 C.3   127  LEU127      0.1561
    190  C         14.1230   93.6280  -12.2340 C.2   127  LEU127      0.2260
    191  O         13.5230   93.4600  -11.1670 O.2   127  LEU127     -0.2867
    192  CB        14.6950   96.0440  -11.7840 C.3   127  LEU127      0.0270
    193  CG        16.2270   96.1400  -11.5550 C.3   127  LEU127      0.0019
    194  CD1       16.5830   97.3680  -10.7280 C.3   127  LEU127      0.0001
    195  CD2       16.7860   94.9280  -10.8480 C.3   127  LEU127      0.0001
    196  N         16.2740   90.7700  -10.5220 N.3   129  ASP129     -0.1225
    197  CA        17.5360   90.4050   -9.8650 C.3   129  ASP129      0.1805
    198  C         17.2270   89.5390   -8.6670 C.2   129  ASP129      0.2598
    199  O         17.1380   90.0260   -7.5300 O.2   129  ASP129     -0.2718
    200  CB        18.4190   91.6200   -9.4840 C.3   129  ASP129      0.1424
    201  CG        19.7430   91.2360   -8.8110 C.2   129  ASP129      0.3668
    202  OD1       20.2290   90.0880   -9.0380 O.co2 129  ASP129     -0.2456
    203  OD2       20.2940   92.0740   -8.0660 O.co2 129  ASP129     -0.2456
    204  N         17.0270   88.2500   -8.9270 N.am  130  THR130     -0.1939
    205  CA        16.7490   87.3260   -7.8320 C.3   130  THR130      0.2028
    206  C         18.0430   86.5370   -7.5690 C.2   130  THR130      0.2642
    207  O         19.1400   87.1120   -7.5200 O.2   130  THR130     -0.2714
    208  CB        15.4740   86.4720   -8.0770 C.3   130  THR130      0.1808
    209  OG1       15.6840   85.5550   -9.1670 O.3   130  THR130     -0.2208
    210  CG2       14.2690   87.3060   -8.3740 C.3   130  THR130      0.0379
    211  N         17.9090   85.2460   -7.3700 N.am  131  TYR131     -0.1973
    212  CA        19.0130   84.3370   -7.1100 C.3   131  TYR131      0.1639
    213  C         18.6070   82.9560   -7.6220 C.2   131  TYR131      0.2290
    214  O         17.4280   82.6290   -7.5260 O.2   131  TYR131     -0.2864
    215  CB        19.2920   84.2870   -5.5950 C.3   131  TYR131      0.0560
    216  CG        20.6820   83.8020   -5.2700 C.ar  131  TYR131     -0.0198
    217  CD1       21.8000   84.5790   -5.5630 C.ar  131  TYR131     -0.0009
    218  CD2       20.8890   82.5390   -4.7300 C.ar  131  TYR131     -0.0009
    219  CE1       23.0910   84.1130   -5.3120 C.ar  131  TYR131      0.0417
    220  CE2       22.1760   82.0550   -4.4920 C.ar  131  TYR131      0.0417
    221  CZ        23.2720   82.8470   -4.7820 C.ar  131  TYR131      0.1957
    222  OH        24.5350   82.3590   -4.5590 O.3   131  TYR131     -0.2866
    223  N         17.5960   79.2230   -7.5060 N.3   133  LEU133     -0.1245
    224  CA        17.1200   78.4210   -6.3770 C.3   133  LEU133      0.1561
    225  C         17.4280   76.9290   -6.5200 C.2   133  LEU133      0.2260
    226  O         17.0770   76.1300   -5.6460 O.2   133  LEU133     -0.2867
    227  CB        15.6310   78.6560   -6.1260 C.3   133  LEU133      0.0270
    228  CG        15.2320   80.0850   -5.7600 C.3   133  LEU133      0.0019
    229  CD1       13.8010   80.1470   -5.3750 C.3   133  LEU133      0.0001
    230  CD2       16.0280   80.6000   -4.6050 C.3   133  LEU133      0.0001
@<TRIPOS>BOND
     1   188   189    1
     2   178   177   ar
     3   178   176   ar
     4   177   175   ar
     5   189   190    1
     6   189   192    1
     7   176   174   ar
     8   190   191    2
     9   175   172   ar
    10   192   193    1
    11   193   195    1
    12   193   194    1
    13   174   172   ar
    14   174   173   ar
    15   172   170   ar
    16    69    67    1
    17   196   197    1
    18   173   171   ar
    19   182   181    2
    20   184   183    1
    21   184   185    1
    22   170   171   ar
    23   170   169    1
    24   168   167    2
    25   180   183    1
    26   180   181    1
    27   180   179    1
    28   197   200    1
    29   197   198    1
    30    49    48    2
    31    67    68    1
    32    67    64    1
    33   187   185   ar
    34    54    55    1
    35   200   201    1
    36   169   166    1
    37   185   186   ar
    38   167   179   am
    39   167   166    1
    40    48    47    1
    41    46    47    1
    42   209   208    1
    43    55    56    1
    44    55    58    1
    45   202   201   ar
    46    63    64    1
    47    63    56   am
    48    47    50    1
    49   204   198   am
    50   204   205    1
    51    53    52    1
    52   201   203   ar
    53   198   199    2
    54   122   120    1
    55   166   165    1
    56    64    65    1
    57    56    57    2
    58   210   208    1
    59    66    65    2
    60    58    59    1
    61   208   205    1
    62   205   206    1
    63    59    60    1
    64    52    51    1
    65    65    70   am
    66   213   214    2
    67   213   212    1
    68   206   207    2
    69   206   211   am
    70   223   224    1
    71    50    51    1
    72   165   159   am
    73   114   111    1
    74   211   212    1
    75   120   119    1
    76   212   215    1
    77    60    61   ar
    78    60    62   ar
    79   113   112    2
    80   160   159    2
    81   111   112    1
    82   111   110    1
    83   225   224    1
    84   225   226    2
    85   119   121    1
    86   119   116    1
    87   159   158    1
    88    70    71    1
    89   224   227    1
    90   227   228    1
    91   228   229    1
    92   228   230    1
    93   161   158    1
    94   161   162    1
    95   215   216    1
    96   115   116    1
    97   217   219   ar
    98   217   216   ar
    99    71    72    1
   100    73    72    2
   101   219   221   ar
   102   158   157    1
   103   110   104   am
   104   216   218   ar
   105   116   117    1
   106   118   117    2
   107    72    74   am
   108   163   162    1
   109   221   222    1
   110   221   220   ar
   111   164   162    1
   112   218   220   ar
   113   105   104    2
   114   117   123   am
   115   104   103    1
   116    45    44    1
   117    44    43    1
   118   157   155   am
   119   108   106    1
   120   156   155    2
   121    34    33    2
   122   155   154    1
   123    74    75    1
   124   123   124    1
   125   106   103    1
   126   106   107    1
   127   103   102    1
   128    75    76    1
   129    75    78    1
   130    33    32    1
   131    33    38   am
   132   124   125    1
   133   124   127    1
   134    43    42    1
   135   154   153    1
   136   102    99   am
   137   136   137    1
   138   136   133    1
   139    77    76    2
   140    76    85   am
   141    32    31    1
   142    32    35    1
   143    39    42    1
   144    39    38    1
   145    39    40    1
   146    36    35    1
   147   132   125   am
   148   132   133    1
   149   130   129   ar
   150   125   126    2
   151   100    99    2
   152   107   109    1
   153    99    98    1
   154    85    86    1
   155    78    79    1
   156   133   134    1
   157    14    12   ar
   158    14    13   ar
   159    12    10   ar
   160   127   128    1
   161    35    37    1
   162    80    79   ar
   163    80    82   ar
   164    13    11   ar
   165    40    41    2
   166    10     9   ar
   167    10     8   ar
   168     9     7   ar
   169    11     8   ar
   170    86    87    1
   171     8     6   ar
   172   129   131   ar
   173   129   128    1
   174     6     7   ar
   175     6     5    1
   176    98    97    1
   177    98   101    1
   178     5     2    1
   179    79    81   ar
   180    82    84   ar
   181    97    91   am
   182    89    87   am
   183    89    90    1
   184    87    88    2
   185   134   138   am
   186   134   135    2
   187    91    90    1
   188    91    92    2
   189   138   139    1
   190    93    90    1
   191    93    94    1
   192    81    83   ar
   193     2     1    1
   194     2     3    1
   195    84    83   ar
   196    95    94    1
   197    95    96    1
   198    22    20    1
   199    18    17    2
   200   151   150    1
   201    30    28    1
   202     3     4    2
   203    26    25    2
   204   139   142    1
   205   139   140    1
   206   142   143    1
   207    20    19    1
   208    20    21    1
   209    19    16    1
   210    27    29    1
   211    27    28    1
   212    27    24    1
   213   150   152    1
   214   150   147    1
   215    17    16    1
   216    15    16    1
   217    25    24    1
   218    23    24    1
   219   141   140    2
   220   143   145   am
   221   143   144    2
   222   149   148    2
   223   148   147    1
   224   147   146    1
