@<TRIPOS>MOLECULE
tmp/3orlA00.pdb
 201 190 0 0 0
SMALL
GASTEIGER

@<TRIPOS>ATOM
      1  N         27.4080   46.7690    7.6320 N.3    15  LEU15      -0.1231
      2  CA        28.2960   46.3430    8.7100 C.3    15  LEU15       0.1693
      3  C         29.0360   45.0660    8.3140 C.2    15  LEU15       0.2593
      4  O         30.1700   44.8410    8.7360 O.2    15  LEU15      -0.2718
      5  CB        27.5080   46.1390   10.0110 C.3    15  LEU15       0.0284
      6  CG        26.8430   47.3690   10.6550 C.3    15  LEU15       0.0019
      7  CD1       25.6220   46.9600   11.4710 C.3    15  LEU15       0.0001
      8  CD2       27.8250   48.1620   11.5160 C.3    15  LEU15       0.0001
      9  N         28.3840   44.2400    7.4940 N.am   16  GLY16      -0.1942
     10  CA        28.9890   43.0160    6.9850 C.3    16  GLY16       0.2014
     11  C         28.0150   42.0880    6.2780 C.2    16  GLY16       0.2639
     12  O         26.7940   42.2320    6.4040 O.2    16  GLY16      -0.2714
     13  N         28.5730   41.1330    5.5350 N.am   17  PHE17      -0.1959
     14  CA        27.7990   40.1230    4.8120 C.3    17  PHE17       0.1771
     15  C         27.8970   38.7730    5.5000 C.2    17  PHE17       0.2620
     16  O         28.9880   38.3310    5.8830 O.2    17  PHE17      -0.2715
     17  CB        28.2910   39.9790    3.3670 C.3    17  PHE17       0.0574
     18  CG        28.0640   41.1990    2.5250 C.ar   17  PHE17      -0.0200
     19  CD1       29.0030   42.2320    2.5020 C.ar   17  PHE17      -0.0042
     20  CD2       26.9090   41.3180    1.7520 C.ar   17  PHE17      -0.0042
     21  CE1       28.7980   43.3690    1.7250 C.ar   17  PHE17      -0.0003
     22  CE2       26.6910   42.4510    0.9680 C.ar   17  PHE17      -0.0003
     23  CZ        27.6390   43.4780    0.9530 C.ar   17  PHE17      -0.0000
     24  N         26.7450   38.1280    5.6560 N.am   18  GLY18      -0.1940
     25  CA        26.7000   36.7590    6.1410 C.3    18  GLY18       0.2014
     26  C         26.3590   35.8480    4.9840 C.2    18  GLY18       0.2639
     27  O         26.1220   36.3180    3.8640 O.2    18  GLY18      -0.2714
     28  N         26.3250   34.5470    5.2560 N.am   19  GLY19      -0.1939
     29  CA        26.0860   33.5260    4.2320 C.3    19  GLY19       0.2014
     30  C         24.9040   33.7750    3.3070 C.2    19  GLY19       0.2639
     31  O         24.9370   33.3870    2.1330 O.2    19  GLY19      -0.2714
     32  N         23.8590   34.4210    3.8330 N.am   20  MET20      -0.1963
     33  CA        22.6760   34.7340    3.0340 C.3    20  MET20       0.1736
     34  C         21.9660   36.0380    3.4310 C.2    20  MET20       0.2617
     35  O         20.7320   36.0950    3.4650 O.2    20  MET20      -0.2715
     36  CB        21.6940   33.5520    3.0320 C.3    20  MET20       0.0427
     37  CG        21.1350   33.2020    4.4150 C.3    20  MET20       0.0599
     38  SD        19.4320   32.6390    4.2760 S.3    20  MET20      -0.1393
     39  CE        19.1200   32.0860    5.9800 C.3    20  MET20       0.0692
     40  N         22.7430   37.0820    3.7130 N.am   21  SER21      -0.1950
     41  CA        22.1770   38.3770    4.0990 C.3    21  SER21       0.1924
     42  C         23.2400   39.4650    4.1880 C.2    21  SER21       0.2314
     43  O         24.4340   39.1860    4.5440 O.2    21  SER21      -0.2863
     44  CB        21.4670   38.2630    5.4680 C.3    21  SER21       0.2116
     45  OG        22.4170   38.2830    6.5400 O.3    21  SER21      -0.2180
     46  N         23.9080   42.8140    6.4060 N.3    23  VAL23      -0.1245
     47  CA        23.4820   43.4530    7.6500 C.3    23  VAL23       0.1561
     48  C         23.8680   44.9340    7.6480 C.2    23  VAL23       0.2260
     49  O         25.0540   45.2820    7.6210 O.2    23  VAL23      -0.2867
     50  CB        24.0460   42.7340    8.9010 C.3    23  VAL23       0.0252
     51  CG1       23.3490   43.2330   10.1650 C.3    23  VAL23       0.0019
     52  CG2       23.8870   41.2150    8.7690 C.3    23  VAL23       0.0019
     53  N         20.3650   47.6320   14.1940 N.3    36  ALA36      -0.1245
     54  CA        20.9370   46.7990   13.1340 C.3    36  ALA36       0.1562
     55  C         19.8310   46.0730   12.3790 C.2    36  ALA36       0.2260
     56  O         18.8910   45.5510   12.9890 O.2    36  ALA36      -0.2867
     57  CB        21.9430   45.8120   13.7000 C.3    36  ALA36       0.0290
     58  N         19.1320   43.1010    9.4950 N.3    38  LYS38      -0.1245
     59  CA        19.6030   42.0030    8.6590 C.3    38  LYS38       0.1561
     60  C         18.6270   41.7630    7.4990 C.2    38  LYS38       0.2260
     61  O         17.5110   41.2800    7.7070 O.2    38  LYS38      -0.2867
     62  CB        19.8100   40.7340    9.4940 C.3    38  LYS38       0.0271
     63  CG        20.4780   39.5870    8.7410 C.3    38  LYS38       0.0035
     64  CD        20.5320   38.3200    9.5840 C.3    38  LYS38       0.0206
     65  CE        21.5720   38.4280   10.6960 C.3    38  LYS38       0.1093
     66  NZ        21.6350   37.1690   11.5080 N.3    38  LYS38      -0.1314
     67  N         13.6690   31.6730    9.4760 N.3    57  GLU57      -0.1245
     68  CA        14.6530   32.0800   10.4860 C.3    57  GLU57       0.1567
     69  C         14.4830   33.5230   10.9670 C.2    57  GLU57       0.2260
     70  O         15.2480   33.9840   11.8180 O.2    57  GLU57      -0.2867
     71  CB        16.0790   31.8920    9.9530 C.3    57  GLU57       0.0388
     72  CG        16.4680   30.4420    9.6380 C.3    57  GLU57       0.1160
     73  CD        17.9830   30.2520    9.4540 C.2    57  GLU57       0.3649
     74  OE1       18.7310   31.2740    9.4460 O.co2  57  GLU57      -0.2457
     75  OE2       18.4250   29.0780    9.3180 O.co2  57  GLU57      -0.2457
     76  N         21.5160   39.2960   22.0550 N.3    70  VAL70      -0.1245
     77  CA        21.1180   40.3190   21.0900 C.3    70  VAL70       0.1561
     78  C         19.5960   40.3640   21.0050 C.2    70  VAL70       0.2260
     79  O         18.9570   39.3780   20.6210 O.2    70  VAL70      -0.2867
     80  CB        21.7290   40.0420   19.6890 C.3    70  VAL70       0.0252
     81  CG1       21.2360   41.0620   18.6580 C.3    70  VAL70       0.0019
     82  CG2       23.2460   40.0580   19.7590 C.3    70  VAL70       0.0019
     83  N         17.2890   44.3270   14.9260 N.3    90  MET90      -0.1230
     84  CA        17.8390   43.8660   16.1960 C.3    90  MET90       0.1702
     85  C         18.8150   44.8470   16.8330 C.2    90  MET90       0.2592
     86  O         19.1740   45.8620   16.2310 O.2    90  MET90      -0.2718
     87  CB        18.5040   42.4980   16.0260 C.3    90  MET90       0.0401
     88  CG        19.3170   42.3640   14.7030 C.3    90  MET90       0.0596
     89  SD        20.4020   40.8710   14.8270 S.3    90  MET90      -0.1393
     90  CE        19.2490   39.5650   15.3750 C.3    90  MET90       0.0692
     91  N         19.2350   44.5300   18.0580 N.am   91  GLU91      -0.1966
     92  CA        20.1870   45.3450   18.8060 C.3    91  GLU91       0.1733
     93  C         21.4880   45.5320   18.0360 C.2    91  GLU91       0.2616
     94  O         22.0960   44.5610   17.5740 O.2    91  GLU91      -0.2715
     95  CB        20.4770   44.7080   20.1620 C.3    91  GLU91       0.0429
     96  CG        21.3450   45.5640   21.0490 C.3    91  GLU91       0.1163
     97  CD        21.9250   44.7920   22.2120 C.2    91  GLU91       0.3649
     98  OE1       21.1730   44.0210   22.8540 O.co2  91  GLU91      -0.2457
     99  OE2       23.1360   44.9620   22.4860 O.co2  91  GLU91      -0.2457
    100  N         21.9040   46.7870   17.8910 N.am   92  TYR92      -0.1960
    101  CA        23.1390   47.0960   17.1900 C.3    92  TYR92       0.1771
    102  C         24.3440   46.7640   18.0650 C.2    92  TYR92       0.2619
    103  O         24.5470   47.3690   19.1200 O.2    92  TYR92      -0.2715
    104  CB        23.1660   48.5730   16.7700 C.3    92  TYR92       0.0574
    105  CG        24.5290   49.0390   16.3170 C.ar   92  TYR92      -0.0198
    106  CD1       25.1510   48.4640   15.2060 C.ar   92  TYR92      -0.0009
    107  CD2       25.2000   50.0540   16.9980 C.ar   92  TYR92      -0.0009
    108  CE1       26.4060   48.8880   14.7900 C.ar   92  TYR92       0.0417
    109  CE2       26.4560   50.4890   16.5860 C.ar   92  TYR92       0.0417
    110  CZ        27.0500   49.9010   15.4840 C.ar   92  TYR92       0.1957
    111  OH        28.2860   50.3230   15.0700 O.3    92  TYR92      -0.2866
    112  N         25.1330   45.7900   17.6220 N.am   93  VAL93      -0.1977
    113  CA        26.3590   45.4200   18.3140 C.3    93  VAL93       0.1596
    114  C         27.5440   46.0260   17.5610 C.2    93  VAL93       0.2287
    115  O         27.8790   45.5860   16.4600 O.2    93  VAL93      -0.2864
    116  CB        26.5120   43.8740   18.4310 C.3    93  VAL93       0.0276
    117  CG1       27.6970   43.5060   19.3290 C.3    93  VAL93       0.0022
    118  CG2       25.2310   43.2420   18.9610 C.3    93  VAL93       0.0022
    119  N         30.8380   45.8300   16.8910 N.3    95  GLY95      -0.1210
    120  CA        31.9390   44.8890   17.0280 C.3    95  GLY95       0.1956
    121  C         31.9080   43.8410   15.9420 C.2    95  GLY95       0.2612
    122  O         31.3970   44.0900   14.8490 O.2    95  GLY95      -0.2717
    123  N         32.4540   42.6660   16.2500 N.am   96  VAL96      -0.1965
    124  CA        32.5610   41.5740   15.2800 C.3    96  VAL96       0.1727
    125  C         32.0830   40.2360   15.8610 C.2    96  VAL96       0.2616
    126  O         31.9360   40.0980   17.0810 O.2    96  VAL96      -0.2715
    127  CB        34.0100   41.4320   14.7350 C.3    96  VAL96       0.0290
    128  CG1       34.4930   42.7610   14.1220 C.3    96  VAL96       0.0023
    129  CG2       34.9570   40.9780   15.8370 C.3    96  VAL96       0.0023
    130  N         31.8310   39.2580   14.9800 N.am   97  THR97      -0.1951
    131  CA        31.4880   37.9070   15.4220 C.3    97  THR97       0.1897
    132  C         32.7680   37.1080   15.5600 C.2    97  THR97       0.2313
    133  O         33.7920   37.4650   14.9710 O.2    97  THR97      -0.2863
    134  CB        30.5710   37.1510   14.4280 C.3    97  THR97       0.1794
    135  OG1       31.3490   36.6610   13.3260 O.3    97  THR97      -0.2208
    136  CG2       29.4410   38.0350   13.9190 C.3    97  THR97       0.0378
    137  N         33.5120   34.4490   14.1720 N.3    99  ARG99      -0.1231
    138  CA        33.9510   34.0440   12.8350 C.3    99  ARG99       0.1694
    139  C         34.9350   35.0620   12.2660 C.2    99  ARG99       0.2592
    140  O         36.0500   34.6930   11.8830 O.2    99  ARG99      -0.2718
    141  CB        32.7690   33.8390   11.8840 C.3    99  ARG99       0.0321
    142  CG        33.1910   33.3900   10.4860 C.3    99  ARG99       0.0489
    143  CD        31.9970   33.0150    9.6310 C.3    99  ARG99       0.2205
    144  NE        31.1210   34.1560    9.3770 N.pl3  99  ARG99      -0.0865
    145  CZ        29.9730   34.0900    8.7060 C.cat  99  ARG99       0.5346
    146  NH1       29.5480   32.9320    8.2080 N.pl3  99  ARG99       0.1354
    147  NH2       29.2460   35.1880    8.5340 N.pl3  99  ARG99       0.1354
    148  N         34.5260   36.3350   12.2430 N.am  100  ASP100     -0.1974
    149  CA        35.3760   37.4360   11.7770 C.3   100  ASP100      0.1709
    150  C         36.7620   37.3760   12.4180 C.2   100  ASP100      0.2293
    151  O         37.7730   37.4680   11.7170 O.2   100  ASP100     -0.2864
    152  CB        34.7310   38.8010   12.0640 C.3   100  ASP100      0.1436
    153  CG        33.2670   38.8690   11.6250 C.2   100  ASP100      0.3671
    154  OD1       32.8820   38.1760   10.6480 O.co2 100  ASP100     -0.2456
    155  OD2       32.4970   39.6300   12.2580 O.co2 100  ASP100     -0.2456
    156  N         27.3670   28.7680   16.9080 N.3   138  LYS138     -0.1245
    157  CA        28.4990   28.8280   15.9890 C.3   138  LYS138      0.1561
    158  C         29.1800   30.1960   16.1180 C.2   138  LYS138      0.2260
    159  O         28.6020   31.1150   16.7120 O.2   138  LYS138     -0.2867
    160  CB        28.0490   28.5520   14.5470 C.3   138  LYS138      0.0271
    161  CG        26.8520   29.3620   14.0740 C.3   138  LYS138      0.0035
    162  CD        26.3300   28.8030   12.7630 C.3   138  LYS138      0.0206
    163  CE        25.3500   29.7560   12.0980 C.3   138  LYS138      0.1093
    164  NZ        26.0370   31.0100   11.6820 N.3   138  LYS138     -0.1314
    165  N         29.7200   32.6650   14.0470 N.3   140  ALA140     -0.1231
    166  CA        29.0150   33.7940   13.4330 C.3   140  ALA140      0.1694
    167  C         27.8110   34.2670   14.2540 C.2   140  ALA140      0.2592
    168  O         27.2640   35.3390   13.9870 O.2   140  ALA140     -0.2718
    169  CB        28.5950   33.4550   12.0090 C.3   140  ALA140      0.0304
    170  N         27.4100   33.4710   15.2460 N.am  141  ASN141     -0.1974
    171  CA        26.2800   33.8080   16.1170 C.3   141  ASN141      0.1688
    172  C         26.6930   34.2930   17.5060 C.2   141  ASN141      0.2292
    173  O         25.8390   34.4720   18.3800 O.2   141  ASN141     -0.2864
    174  CB        25.3230   32.6170   16.2550 C.3   141  ASN141      0.1181
    175  CG        24.3960   32.4550   15.0570 C.2   141  ASN141      0.2629
    176  OD1       24.0630   33.4230   14.3620 O.2   141  ASN141     -0.2716
    177  ND2       23.9590   31.2210   14.8250 N.am  141  ASN141     -0.0877
    178  N         28.9630   37.3890   19.2820 N.3   143  MET143     -0.1245
    179  CA        29.6100   38.6800   19.0190 C.3   143  MET143      0.1570
    180  C         30.3790   39.2680   20.2090 C.2   143  MET143      0.2261
    181  O         30.1180   38.9400   21.3700 O.2   143  MET143     -0.2867
    182  CB        28.5860   39.6980   18.5100 C.3   143  MET143      0.0387
    183  CG        28.1050   39.4270   17.0970 C.3   143  MET143      0.0595
    184  SD        27.3250   40.8570   16.3270 S.3   143  MET143     -0.1393
    185  CE        28.7480   41.9340   16.0350 C.3   143  MET143      0.0692
    186  N         23.3530   35.7210   19.5300 N.3   153  MET153     -0.1230
    187  CA        22.1600   35.9960   18.7140 C.3   153  MET153      0.1702
    188  C         21.6440   34.7810   17.9430 C.2   153  MET153      0.2592
    189  O         22.3610   33.7940   17.7800 O.2   153  MET153     -0.2718
    190  CB        22.4530   37.1200   17.7220 C.3   153  MET153      0.0401
    191  CG        23.5280   36.7500   16.6860 C.3   153  MET153      0.0596
    192  SD        24.0360   38.1950   15.7500 S.3   153  MET153     -0.1393
    193  CE        25.6320   37.6390   15.0890 C.3   153  MET153      0.0692
    194  N         20.4060   34.8870   17.4530 N.am  154  ASP154     -0.1974
    195  CA        19.7420   33.8450   16.6460 C.3   154  ASP154      0.1709
    196  C         19.2960   32.6090   17.4320 C.2   154  ASP154      0.2293
    197  O         19.3670   31.4830   16.9270 O.2   154  ASP154     -0.2864
    198  CB        20.5980   33.4340   15.4390 C.3   154  ASP154      0.1436
    199  CG        20.7410   34.5420   14.4170 C.2   154  ASP154      0.3671
    200  OD1       20.2550   35.6790   14.6690 O.co2 154  ASP154     -0.2456
    201  OD2       21.3480   34.2680   13.3570 O.co2 154  ASP154     -0.2456
@<TRIPOS>BOND
     1    23    22   ar
     2    23    21   ar
     3    22    20   ar
     4    21    19   ar
     5    20    18   ar
     6    31    30    2
     7    19    18   ar
     8    18    17    1
     9    36    33    1
    10    36    37    1
    11    33    34    1
    12    33    32    1
    13    30    32   am
    14    30    29    1
    15    17    14    1
    16    34    35    2
    17    34    40   am
    18    40    41    1
    19    27    26    2
    20    41    42    1
    21    41    44    1
    22    42    43    2
    23    29    28    1
    24    38    37    1
    25    38    39    1
    26    14    15    1
    27    14    13    1
    28    26    28   am
    29    26    25    1
    30    44    45    1
    31    15    24   am
    32    15    16    2
    33    13    11   am
    34    24    25    1
    35    11    12    2
    36    11    10    1
    37    46    47    1
    38    10     9    1
    39     9     3   am
    40    60    61    2
    41    60    59    1
    42    49    48    2
    43     1     2    1
    44    48    47    1
    45    47    50    1
    46   146   145    1
    47     3     2    1
    48     3     4    2
    49   147   145    1
    50    59    62    1
    51    59    58    1
    52   145   144    2
    53     2     5    1
    54    63    62    1
    55    63    64    1
    56    52    50    1
    57    50    51    1
    58    75    73   ar
    59   144   143    1
    60    74    73   ar
    61    73    72    1
    62    67    68    1
    63    64    65    1
    64   143   142    1
    65    72    71    1
    66    71    68    1
    67     5     6    1
    68    68    69    1
    69   142   141    1
    70   154   153   ar
    71     6     7    1
    72     6     8    1
    73    65    66    1
    74    69    70    2
    75   153   152    1
    76   153   155   ar
    77   164   163    1
    78   151   150    2
    79   149   152    1
    80   149   148    1
    81   149   150    1
    82   140   139    2
    83   141   138    1
    84   169   166    1
    85   163   162    1
    86   148   139   am
    87   139   138    1
    88    55    56    2
    89    55    54    1
    90   162   161    1
    91   138   137    1
    92    54    57    1
    93    54    53    1
    94   135   134    1
    95   201   199   ar
    96   166   165    1
    97   166   167    1
    98   136   134    1
    99   168   167    2
   100   161   160    1
   101   128   127    1
   102   167   170   am
   103   176   175    2
   104   199   200   ar
   105   199   198    1
   106   134   131    1
   107   160   157    1
   108    88    89    1
   109    88    87    1
   110   127   124    1
   111   127   129    1
   112   108   106   ar
   113   108   110   ar
   114   177   175   am
   115    89    90    1
   116   122   121    2
   117    83    84    1
   118   133   132    2
   119   130   131    1
   120   130   125   am
   121   175   174    1
   122   111   110    1
   123   193   192    1
   124   106   105   ar
   125   170   171    1
   126   124   125    1
   127   124   123    1
   128   131   132    1
   129   198   195    1
   130   110   109   ar
   131   192   191    1
   132   125   126    2
   133   121   123   am
   134   121   120    1
   135   157   158    1
   136   157   156    1
   137    87    84    1
   138   185   184    1
   139   171   174    1
   140   171   172    1
   141   158   159    2
   142    84    85    1
   143    86    85    2
   144   105   104    1
   145   105   107   ar
   146   184   183    1
   147   115   114    2
   148   109   107   ar
   149   195   196    1
   150   195   194    1
   151   191   190    1
   152   104   101    1
   153    85    91   am
   154   119   120    1
   155   197   196    2
   156   183   182    1
   157   101   100    1
   158   101   102    1
   159   194   188   am
   160   172   173    2
   161   114   113    1
   162    94    93    2
   163   112   102   am
   164   112   113    1
   165   190   187    1
   166   189   188    2
   167   100    93   am
   168   188   187    1
   169    93    92    1
   170    91    92    1
   171   102   103    2
   172   113   116    1
   173   116   118    1
   174   116   117    1
   175   182   179    1
   176    81    80    1
   177   187   186    1
   178    92    95    1
   179   179   178    1
   180   179   180    1
   181    80    82    1
   182    80    77    1
   183    95    96    1
   184   180   181    2
   185    79    78    2
   186    78    77    1
   187    96    97    1
   188    77    76    1
   189    97    99   ar
   190    97    98   ar
