@<TRIPOS>MOLECULE
tmp/3ornA01.pdb
 200 188 0 0 0
SMALL
GASTEIGER

@<TRIPOS>ATOM
      1  N         55.1380  -12.7930    4.9350 N.3    17  GLY17      -0.1225
      2  CA        54.3280  -12.2870    6.0200 C.3    17  GLY17       0.1811
      3  C         54.0990  -10.8090    5.8100 C.2    17  GLY17       0.2280
      4  O         54.2070  -10.3060    4.6920 O.2    17  GLY17      -0.2866
      5  N         55.9490   -8.2610    7.0000 N.3    19  GLY19      -0.1210
      6  CA        57.1450   -7.4590    6.8170 C.3    19  GLY19       0.1956
      7  C         58.1330   -7.9050    5.7490 C.2    19  GLY19       0.2612
      8  O         59.0660   -7.1650    5.4160 O.2    19  GLY19      -0.2717
      9  N         57.9500   -9.1050    5.2080 N.am   20  GLY20      -0.1956
     10  CA        58.9090   -9.6050    4.2420 C.3    20  GLY20       0.1869
     11  C         58.4570  -10.8330    3.4800 C.2    20  GLY20       0.2309
     12  O         57.3460  -11.3300    3.6650 O.2    20  GLY20      -0.2863
     13  N         65.2310  -14.6780    3.3530 N.3    37  LYS37      -0.1245
     14  CA        64.2330  -13.6820    3.7180 C.3    37  LYS37       0.1561
     15  C         64.6560  -12.2990    3.2100 C.2    37  LYS37       0.2260
     16  O         65.7850  -11.8570    3.4460 O.2    37  LYS37      -0.2867
     17  CB        64.0700  -13.6500    5.2340 C.3    37  LYS37       0.0271
     18  CG        63.3920  -12.4100    5.7410 C.3    37  LYS37       0.0035
     19  CD        63.0180  -12.5600    7.1880 C.3    37  LYS37       0.0206
     20  CE        61.9240  -13.5910    7.3430 C.3    37  LYS37       0.1093
     21  NZ        61.3350  -13.5450    8.7040 N.3    37  LYS37      -0.1314
     22  N         63.7330   -8.2530    3.3560 N.3    39  ILE39      -0.1245
     23  CA        63.0120   -7.2660    4.1410 C.3    39  ILE39       0.1561
     24  C         63.1640   -5.8990    3.4920 C.2    39  ILE39       0.2260
     25  O         64.2770   -5.4500    3.2200 O.2    39  ILE39      -0.2867
     26  CB        63.5420   -7.2350    5.6030 C.3    39  ILE39       0.0252
     27  CG1       63.2920   -8.5970    6.2570 C.3    39  ILE39       0.0019
     28  CG2       62.8690   -6.1260    6.3940 C.3    39  ILE39       0.0019
     29  CD1       63.2740   -8.5730    7.7620 C.3    39  ILE39       0.0001
     30  N         72.8540   -7.6850   12.7800 N.3    55  LEU55      -0.1245
     31  CA        72.4210   -9.0010   12.3370 C.3    55  LEU55       0.1561
     32  C         73.5930   -9.9770   12.2920 C.2    55  LEU55       0.2260
     33  O         73.4050  -11.1940   12.3240 O.2    55  LEU55      -0.2867
     34  CB        71.7620   -8.9060   10.9580 C.3    55  LEU55       0.0270
     35  CG        70.3130   -8.4070   10.9140 C.3    55  LEU55       0.0019
     36  CD1       69.8400   -8.3440    9.4850 C.3    55  LEU55       0.0001
     37  CD2       69.4170   -9.3280   11.7180 C.3    55  LEU55       0.0001
     38  N         73.9240  -13.1040   14.6220 N.3    58  LEU58      -0.1245
     39  CA        73.3140  -14.3850   14.3290 C.3    58  LEU58       0.1561
     40  C         74.3700  -15.4380   13.9880 C.2    58  LEU58       0.2260
     41  O         74.1480  -16.6210   14.1940 O.2    58  LEU58      -0.2867
     42  CB        72.3130  -14.2480   13.1840 C.3    58  LEU58       0.0270
     43  CG        70.9720  -13.5980   13.5310 C.3    58  LEU58       0.0019
     44  CD1       70.0860  -13.5470   12.2960 C.3    58  LEU58       0.0001
     45  CD2       70.2920  -14.3880   14.6270 C.3    58  LEU58       0.0001
     46  N         75.0500  -17.5060   17.0610 N.3    61  CYS61      -0.1235
     47  CA        74.0380  -18.4250   17.5300 C.3    61  CYS61       0.1677
     48  C         74.3440  -19.7990   16.9720 C.2    61  CYS61       0.2270
     49  O         74.6510  -19.9570   15.7870 O.2    61  CYS61      -0.2867
     50  CB        72.6630  -17.9550   17.0890 C.3    61  CYS61       0.0956
     51  SG        72.2220  -16.4150   17.9070 S.3    61  CYS61      -0.0801
     52  N         67.6820  -23.4960   17.5540 N.3    66  ILE66      -0.1231
     53  CA        67.6620  -22.2130   16.8770 C.3    66  ILE66       0.1692
     54  C         68.0120  -22.4260   15.4230 C.2    66  ILE66       0.2592
     55  O         68.9740  -23.1330   15.1260 O.2    66  ILE66      -0.2718
     56  CB        68.7040  -21.2480   17.4700 C.3    66  ILE66       0.0266
     57  CG1       68.4220  -21.0250   18.9620 C.3    66  ILE66       0.0019
     58  CG2       68.7110  -19.9450   16.6760 C.3    66  ILE66       0.0020
     59  CD1       67.0290  -20.5310   19.2630 C.3    66  ILE66       0.0001
     60  N         67.2460  -21.8090   14.5240 N.am   67  VAL67      -0.1966
     61  CA        67.4680  -21.9810   13.0950 C.3    67  VAL67       0.1727
     62  C         68.8650  -21.5390   12.6680 C.2    67  VAL67       0.2617
     63  O         69.4660  -20.6530   13.2680 O.2    67  VAL67      -0.2715
     64  CB        66.4350  -21.2010   12.2730 C.3    67  VAL67       0.0290
     65  CG1       66.6760  -21.4260   10.7890 C.3    67  VAL67       0.0023
     66  CG2       65.0450  -21.6560   12.6360 C.3    67  VAL67       0.0023
     67  N         69.3870  -22.1700   11.6300 N.am   68  GLY68      -0.1940
     68  CA        70.7430  -21.8780   11.2220 C.3    68  GLY68       0.2014
     69  C         70.8450  -20.5840   10.4490 C.2    68  GLY68       0.2638
     70  O         69.9570  -20.2500    9.6680 O.2    68  GLY68      -0.2714
     71  N         71.9410  -19.8660   10.6740 N.am   69  PHE69      -0.1973
     72  CA        72.2130  -18.5910   10.0190 C.3    69  PHE69       0.1639
     73  C         73.4270  -18.7190    9.1010 C.2    69  PHE69       0.2290
     74  O         74.3940  -19.3930    9.4360 O.2    69  PHE69      -0.2864
     75  CB        72.4700  -17.5280   11.0840 C.3    69  PHE69       0.0560
     76  CG        72.7850  -16.1680   10.5300 C.ar   69  PHE69      -0.0200
     77  CD1       74.0350  -15.6020   10.7220 C.ar   69  PHE69      -0.0042
     78  CD2       71.8270  -15.4490    9.8320 C.ar   69  PHE69      -0.0042
     79  CE1       74.3210  -14.3520   10.2330 C.ar   69  PHE69      -0.0003
     80  CE2       72.1090  -14.1960    9.3400 C.ar   69  PHE69      -0.0003
     81  CZ        73.3570  -13.6460    9.5400 C.ar   69  PHE69      -0.0000
     82  N         68.3240  -11.8650    4.8350 N.3    81  ILE81      -0.1245
     83  CA        68.7360  -12.7590    5.9000 C.3    81  ILE81       0.1561
     84  C         68.6950  -14.1920    5.3860 C.2    81  ILE81       0.2260
     85  O         67.6450  -14.6870    4.9800 O.2    81  ILE81      -0.2867
     86  CB        67.8170  -12.6290    7.1090 C.3    81  ILE81       0.0252
     87  CG1       67.8690  -11.2060    7.6420 C.3    81  ILE81       0.0019
     88  CG2       68.2550  -13.5750    8.1850 C.3    81  ILE81       0.0019
     89  CD1       66.9810  -10.9970    8.8300 C.3    81  ILE81       0.0001
     90  N         69.1850  -18.1950    5.7090 N.3    83  MET83      -0.1245
     91  CA        68.9910  -19.1550    6.7750 C.3    83  MET83       0.1570
     92  C         69.1670  -20.5780    6.3020 C.2    83  MET83       0.2261
     93  O         69.1100  -20.8630    5.1080 O.2    83  MET83      -0.2867
     94  CB        67.5840  -19.0350    7.3350 C.3    83  MET83       0.0387
     95  CG        67.3190  -17.8300    8.1640 C.3    83  MET83       0.0595
     96  SD        65.5570  -17.7910    8.4460 S.3    83  MET83      -0.1393
     97  CE        64.9750  -17.3420    6.7810 C.3    83  MET83       0.0692
     98  N         63.3350  -13.2550   22.8630 N.3   128  HIS128     -0.1226
     99  CA        62.9340  -13.6100   21.5120 C.3   128  HIS128      0.1752
    100  C         62.0800  -12.5140   20.9110 C.2   128  HIS128      0.2596
    101  O         62.3510  -12.0470   19.8080 O.2   128  HIS128     -0.2718
    102  CB        62.1550  -14.9290   21.5050 C.3   128  HIS128      0.0759
    103  CG        61.8880  -15.4520   20.1270 C.ar  128  HIS128      0.0818
    104  ND1       61.0290  -14.8260   19.2490 N.ar  128  HIS128     -0.2268
    105  CD2       62.4200  -16.4980   19.4510 C.ar  128  HIS128      0.1154
    106  CE1       61.0480  -15.4600   18.0900 C.ar  128  HIS128      0.1986
    107  NE2       61.8850  -16.4780   18.1860 N.ar  128  HIS128     -0.2212
    108  N         61.0460  -12.1220   21.6540 N.am  129  ARG129     -0.1966
    109  CA        60.1840  -10.9860   21.3250 C.3   129  ARG129      0.1729
    110  C         59.1750  -11.2430   20.2120 C.2   129  ARG129      0.2616
    111  O         58.3870  -10.3630   19.8890 O.2   129  ARG129     -0.2715
    112  CB        61.0170   -9.7580   20.9590 C.3   129  ARG129      0.0348
    113  CG        61.5540   -8.9760   22.1230 C.3   129  ARG129      0.0492
    114  CD        62.3860   -7.8280   21.6050 C.3   129  ARG129      0.2205
    115  NE        63.1950   -7.2110   22.6530 N.pl3 129  ARG129     -0.0865
    116  CZ        62.8910   -6.0630   23.2480 C.cat 129  ARG129      0.5346
    117  NH1       61.7930   -5.4030   22.8990 N.pl3 129  ARG129      0.1354
    118  NH2       63.6840   -5.5780   24.1890 N.pl3 129  ARG129      0.1354
    119  N         59.2010  -12.4330   19.6210 N.am  130  ASP130     -0.1971
    120  CA        58.1710  -12.8140   18.6640 C.3   130  ASP130      0.1709
    121  C         57.9440  -14.3250   18.5870 C.2   130  ASP130      0.2293
    122  O         58.0600  -14.9300   17.5290 O.2   130  ASP130     -0.2864
    123  CB        58.5160  -12.2720   17.2820 C.3   130  ASP130      0.1436
    124  CG        57.2840  -11.9650   16.4570 C.2   130  ASP130      0.3671
    125  OD1       56.1770  -11.9070   17.0380 O.co2 130  ASP130     -0.2456
    126  OD2       57.4150  -11.7790   15.2290 O.co2 130  ASP130     -0.2456
    127  N         63.0280  -19.0830   15.1440 N.3   147  CYS147     -0.1221
    128  CA        63.6890  -18.0520   14.3510 C.3   147  CYS147      0.1808
    129  C         63.0280  -16.6880   14.5770 C.2   147  CYS147      0.2601
    130  O         62.1790  -16.5370   15.4590 O.2   147  CYS147     -0.2717
    131  CB        63.6470  -18.4100   12.8640 C.3   147  CYS147      0.0970
    132  SG        61.9910  -18.4170   12.1950 S.3   147  CYS147     -0.0800
    133  N         63.4370  -15.7040   13.7790 N.am  148  ASP148     -0.1959
    134  CA        62.8680  -14.3600   13.8310 C.3   148  ASP148      0.1840
    135  C         62.8350  -13.7530   15.2410 C.2   148  ASP148      0.2622
    136  O         61.8370  -13.1600   15.6350 O.2   148  ASP148     -0.2715
    137  CB        61.4600  -14.3720   13.2240 C.3   148  ASP148      0.1450
    138  CG        61.4730  -14.6730   11.7230 C.2   148  ASP148      0.3671
    139  OD1       62.5740  -14.8700   11.1710 O.co2 148  ASP148     -0.2456
    140  OD2       60.3920  -14.7150   11.0880 O.co2 148  ASP148     -0.2456
    141  N         63.9240  -13.9000   15.9960 N.am  149  PHE149     -0.1960
    142  CA        64.0230  -13.2780   17.3150 C.3   149  PHE149      0.1771
    143  C         64.7270  -11.9250   17.2550 C.2   149  PHE149      0.2620
    144  O         65.3490  -11.5870   16.2560 O.2   149  PHE149     -0.2715
    145  CB        64.7480  -14.2000   18.3000 C.3   149  PHE149      0.0574
    146  CG        65.9300  -14.9270   17.7120 C.ar  149  PHE149     -0.0200
    147  CD1       65.7560  -16.1080   17.0030 C.ar  149  PHE149     -0.0042
    148  CD2       67.2230  -14.4570   17.9020 C.ar  149  PHE149     -0.0042
    149  CE1       66.8510  -16.8070   16.4980 C.ar  149  PHE149     -0.0003
    150  CE2       68.3120  -15.1540   17.3970 C.ar  149  PHE149     -0.0003
    151  CZ        68.1210  -16.3280   16.6960 C.ar  149  PHE149     -0.0000
    152  N         64.6190  -11.1480   18.3260 N.am  150  GLY150     -0.1940
    153  CA        65.0900   -9.7710   18.2820 C.3   150  GLY150      0.2014
    154  C         66.5810   -9.5840   18.5160 C.2   150  GLY150      0.2639
    155  O         67.0060   -9.1100   19.5670 O.2   150  GLY150     -0.2714
    156  N         67.3850   -9.9430   17.5290 N.am  151  VAL151     -0.1963
    157  CA        68.8160   -9.8660   17.6900 C.3   151  VAL151      0.1727
    158  C         69.2800   -8.4270   17.4530 C.2   151  VAL151      0.2616
    159  O         70.2850   -7.9800   18.0060 O.2   151  VAL151     -0.2715
    160  CB        69.5170  -10.8260   16.7060 C.3   151  VAL151      0.0290
    161  CG1       69.3500  -10.3310   15.2850 C.3   151  VAL151      0.0023
    162  CG2       70.9800  -10.9650   17.0640 C.3   151  VAL151      0.0023
    163  N         68.5370   -7.6970   16.6320 N.am  152  SER152     -0.1950
    164  CA        68.9120   -6.3370   16.2570 C.3   152  SER152      0.1924
    165  C         67.9340   -5.3440   16.8540 C.2   152  SER152      0.2314
    166  O         66.7460   -5.3760   16.5390 O.2   152  SER152     -0.2863
    167  CB        68.9140   -6.1950   14.7310 C.3   152  SER152      0.2116
    168  OG        68.7020   -4.8510   14.3310 O.3   152  SER152     -0.2180
    169  N         66.5270   -3.1140   14.1050 N.3   155  LEU155     -0.1231
    170  CA        65.5760   -3.7620   13.2190 C.3   155  LEU155      0.1693
    171  C         64.2000   -3.7930   13.8830 C.2   155  LEU155      0.2591
    172  O         63.1810   -3.5470   13.2250 O.2   155  LEU155     -0.2718
    173  CB        66.0530   -5.1780   12.8700 C.3   155  LEU155      0.0284
    174  CG        65.2440   -5.9790   11.8370 C.3   155  LEU155      0.0019
    175  CD1       64.7510   -5.0750   10.7270 C.3   155  LEU155      0.0001
    176  CD2       66.1130   -7.0930   11.2630 C.3   155  LEU155      0.0001
    177  N         64.1710   -4.0680   15.1880 N.am  156  ILE156     -0.1980
    178  CA        62.9130   -4.0300   15.9250 C.3   156  ILE156      0.1595
    179  C         62.2430   -2.6690   15.7750 C.2   156  ILE156      0.2287
    180  O         61.0540   -2.5850   15.4780 O.2   156  ILE156     -0.2864
    181  CB        63.1090   -4.2630   17.4240 C.3   156  ILE156      0.0276
    182  CG1       63.8470   -5.5720   17.6720 C.3   156  ILE156      0.0022
    183  CG2       61.7620   -4.2950   18.1030 C.3   156  ILE156      0.0022
    184  CD1       64.1760   -5.8080   19.1370 C.3   156  ILE156      0.0001
    185  N         60.6820   -1.8900   12.2820 N.3   159  MET159     -0.1245
    186  CA        59.5780   -2.6920   11.7830 C.3   159  MET159      0.1570
    187  C         58.2480   -2.3440   12.4520 C.2   159  MET159      0.2261
    188  O         57.1800   -2.7100   11.9570 O.2   159  MET159     -0.2867
    189  CB        59.9060   -4.1740   11.9610 C.3   159  MET159      0.0387
    190  CG        61.2020   -4.5850   11.2780 C.3   159  MET159      0.0595
    191  SD        61.1220   -6.1950   10.4580 S.3   159  MET159     -0.1393
    192  CE        59.9250   -5.8470    9.1630 C.3   159  MET159      0.0692
    193  N         56.5840   -3.4860   14.5640 N.3   161  ASN161     -0.1240
    194  CA        55.7960   -4.7040   14.6930 C.3   161  ASN161      0.1653
    195  C         54.3960   -4.5320   15.3160 C.2   161  ASN161      0.2266
    196  O         53.4120   -5.0660   14.8080 O.2   161  ASN161     -0.2867
    197  CB        56.6050   -5.6990   15.5270 C.3   161  ASN161      0.1155
    198  CG        56.1460   -7.1160   15.3430 C.2   161  ASN161      0.2627
    199  OD1       56.3310   -7.9620   16.2230 O.2   161  ASN161     -0.2716
    200  ND2       55.5430   -7.3930   14.1930 N.am  161  ASN161     -0.0877
@<TRIPOS>BOND
     1    15    16    2
     2    15    14    1
     3    25    24    2
     4    13    14    1
     5    22    23    1
     6    11    12    2
     7    11    10    1
     8    24    23    1
     9    14    17    1
    10    23    26    1
    11    10     9    1
    12     4     3    2
    13    82    83    1
    14     1     2    1
    15    85    84    2
    16    93    92    2
    17     9     7   am
    18    17    18    1
    19    84    83    1
    20     8     7    2
    21    26    27    1
    22    26    28    1
    23    90    91    1
    24    18    19    1
    25     7     6    1
    26     3     2    1
    27    83    86    1
    28    27    29    1
    29    92    91    1
    30    91    94    1
    31    97    96    1
    32     6     5    1
    33    86    87    1
    34    86    88    1
    35    19    20    1
    36    94    95    1
    37    20    21    1
    38    87    89    1
    39    95    96    1
    40    73    74    2
    41    73    72    1
    42   192   191    1
    43    80    81   ar
    44    80    78   ar
    45    36    35    1
    46    81    79   ar
    47    70    69    2
    48    78    76   ar
    49    72    71    1
    50    72    75    1
    51    79    77   ar
    52    69    71   am
    53    69    68    1
    54   191   190    1
    55    76    77   ar
    56    76    75    1
    57   175   174    1
    58    65    64    1
    59    35    34    1
    60    35    37    1
    61    34    31    1
    62   140   138   ar
    63   139   138   ar
    64    68    67    1
    65   176   174    1
    66   190   189    1
    67    67    62   am
    68   138   137    1
    69   186   189    1
    70   186   185    1
    71   186   187    1
    72   174   173    1
    73   188   187    2
    74   132   131    1
    75    64    66    1
    76    64    61    1
    77    32    33    2
    78    32    31    1
    79    44    43    1
    80    31    30    1
    81    62    61    1
    82    62    63    2
    83   131   128    1
    84   173   170    1
    85    61    60    1
    86    42    43    1
    87    42    39    1
    88   170   171    1
    89   170   169    1
    90   137   134    1
    91   172   171    2
    92    43    45    1
    93   133   134    1
    94   133   129   am
    95   134   135    1
    96   171   177   am
    97    40    41    2
    98    40    39    1
    99   200   198   am
   100    39    38    1
   101   168   167    1
   102   128   129    1
   103   128   127    1
   104    60    54   am
   105   193   194    1
   106   129   130    2
   107   194   195    1
   108   194   197    1
   109   167   164    1
   110   196   195    2
   111    55    54    2
   112   177   178    1
   113   126   124   ar
   114   135   136    2
   115   135   141   am
   116   161   160    1
   117   198   197    1
   118   198   199    2
   119    54    53    1
   120   180   179    2
   121   179   178    1
   122    49    48    2
   123   178   181    1
   124   141   142    1
   125   144   143    2
   126   164   163    1
   127   164   165    1
   128   124   125   ar
   129   124   123    1
   130   149   151   ar
   131   149   147   ar
   132   166   165    2
   133   163   158   am
   134    58    56    1
   135   151   150   ar
   136   160   162    1
   137   160   157    1
   138    53    56    1
   139    53    52    1
   140    48    47    1
   141   147   146   ar
   142    46    47    1
   143    50    47    1
   144    50    51    1
   145   143   142    1
   146   143   152   am
   147   123   120    1
   148   142   145    1
   149   150   148   ar
   150   181   182    1
   151   181   183    1
   152   158   157    1
   153   158   159    2
   154    56    57    1
   155   156   157    1
   156   156   154   am
   157   122   121    2
   158   182   184    1
   159   146   148   ar
   160   146   145    1
   161   106   107   ar
   162   106   104   ar
   163   107   105   ar
   164   153   152    1
   165   153   154    1
   166   154   155    2
   167   121   120    1
   168   120   119    1
   169    57    59    1
   170   104   103   ar
   171   105   103   ar
   172   119   110   am
   173   101   100    2
   174   111   110    2
   175   103   102    1
   176   110   109    1
   177   100    99    1
   178   100   108   am
   179   112   109    1
   180   112   113    1
   181   109   108    1
   182   102    99    1
   183    99    98    1
   184   114   113    1
   185   114   115    1
   186   115   116    2
   187   117   116    1
   188   116   118    1
