@<TRIPOS>MOLECULE
tmp/3ornA02.pdb
 86 81 0 0 0
SMALL
GASTEIGER

@<TRIPOS>ATOM
      1  N         74.3750   -5.3430   13.2440 N.3    54  GLU54      -0.1245
      2  CA        73.7780   -6.0670   14.3640 C.3    54  GLU54       0.1567
      3  C         73.3570   -7.4990   13.9970 C.2    54  GLU54       0.2260
      4  O         73.4930   -8.4200   14.8040 O.2    54  GLU54      -0.2867
      5  CB        72.5700   -5.2970   14.9010 C.3    54  GLU54       0.0388
      6  CG        72.9220   -3.9890   15.5960 C.3    54  GLU54       0.1160
      7  CD        71.6880   -3.1720   15.9530 C.2    54  GLU54       0.3649
      8  OE1       71.7850   -2.2470   16.7940 O.co2  54  GLU54      -0.2457
      9  OE2       70.6140   -3.4610   15.3850 O.co2  54  GLU54      -0.2457
     10  N         73.2480  -15.2690   25.0070 N.3   124  HIS124     -0.1226
     11  CA        73.2750  -14.0240   24.2460 C.3   124  HIS124      0.1752
     12  C         72.4820  -12.9140   24.9290 C.2   124  HIS124      0.2596
     13  O         72.4090  -11.7930   24.4310 O.2   124  HIS124     -0.2718
     14  CB        72.7380  -14.2730   22.8370 C.3   124  HIS124      0.0759
     15  CG        73.4560  -15.3670   22.1160 C.ar  124  HIS124      0.0818
     16  ND1       74.7460  -15.2280   21.6540 N.ar  124  HIS124     -0.2268
     17  CD2       73.0880  -16.6390   21.8290 C.ar  124  HIS124      0.1154
     18  CE1       75.1440  -16.3680   21.1170 C.ar  124  HIS124      0.1986
     19  NE2       74.1570  -17.2410   21.2100 N.ar  124  HIS124     -0.2212
     20  N         71.8930  -13.2390   26.0720 N.am  125  LYS125     -0.1966
     21  CA        71.1250  -12.2820   26.8540 C.3   125  LYS125      0.1728
     22  C         70.1190  -11.5040   26.0220 C.2   125  LYS125      0.2616
     23  O         69.8170  -10.3550   26.3290 O.2   125  LYS125     -0.2715
     24  CB        72.0640  -11.3140   27.5690 C.3   125  LYS125      0.0311
     25  CG        72.8410  -11.9610   28.6910 C.3   125  LYS125      0.0038
     26  CD        74.1170  -11.1980   28.9880 C.3   125  LYS125      0.0206
     27  CE        73.8240   -9.7990   29.5370 C.3   125  LYS125      0.1093
     28  NZ        75.0690   -8.9780   29.6920 N.3   125  LYS125     -0.1314
     29  N         69.6040  -12.1280   24.9670 N.am  126  ILE126     -0.1963
     30  CA        68.4980  -11.5420   24.2200 C.3   126  ILE126      0.1727
     31  C         67.1920  -12.3020   24.4260 C.2   126  ILE126      0.2616
     32  O         67.1870  -13.5190   24.5960 O.2   126  ILE126     -0.2715
     33  CB        68.7900  -11.5020   22.7200 C.3   126  ILE126      0.0290
     34  CG1       69.0380  -12.9140   22.2070 C.3   126  ILE126      0.0022
     35  CG2       69.9820  -10.6080   22.4490 C.3   126  ILE126      0.0023
     36  CD1       69.0350  -13.0020   20.7110 C.3   126  ILE126      0.0001
     37  N         66.0820  -11.5730   24.4250 N.am  127  MET127     -0.1977
     38  CA        64.7770  -12.2050   24.4860 C.3   127  MET127      0.1605
     39  C         64.2890  -12.3580   23.0720 C.2   127  MET127      0.2287
     40  O         64.7800  -11.6800   22.1790 O.2   127  MET127     -0.2864
     41  CB        63.8040  -11.3510   25.2850 C.3   127  MET127      0.0413
     42  CG        64.0650  -11.3800   26.7700 C.3   127  MET127      0.0598
     43  SD        63.8500   -9.7490   27.4730 S.3   127  MET127     -0.1393
     44  CE        64.8340   -8.7500   26.2970 C.3   127  MET127      0.0692
     45  N         61.0460  -12.1220   21.6540 N.3   129  ARG129     -0.1245
     46  CA        60.1840  -10.9860   21.3250 C.3   129  ARG129      0.1563
     47  C         59.1750  -11.2430   20.2120 C.2   129  ARG129      0.2260
     48  O         58.3870  -10.3630   19.8890 O.2   129  ARG129     -0.2867
     49  CB        61.0170   -9.7580   20.9590 C.3   129  ARG129      0.0307
     50  CG        61.5540   -8.9760   22.1230 C.3   129  ARG129      0.0489
     51  CD        62.3860   -7.8280   21.6050 C.3   129  ARG129      0.2205
     52  NE        63.1950   -7.2110   22.6530 N.pl3 129  ARG129     -0.0865
     53  CZ        62.8910   -6.0630   23.2480 C.cat 129  ARG129      0.5346
     54  NH1       61.7930   -5.4030   22.8990 N.pl3 129  ARG129      0.1354
     55  NH2       63.6840   -5.5780   24.1890 N.pl3 129  ARG129      0.1354
     56  N         64.6190  -11.1480   18.3260 N.3   150  GLY150     -0.1210
     57  CA        65.0900   -9.7710   18.2820 C.3   150  GLY150      0.1956
     58  C         66.5810   -9.5840   18.5160 C.2   150  GLY150      0.2611
     59  O         67.0060   -9.1100   19.5670 O.2   150  GLY150     -0.2717
     60  N         67.3850   -9.9430   17.5290 N.am  151  VAL151     -0.1979
     61  CA        68.8160   -9.8660   17.6900 C.3   151  VAL151      0.1595
     62  C         69.2800   -8.4270   17.4530 C.2   151  VAL151      0.2287
     63  O         70.2850   -7.9800   18.0060 O.2   151  VAL151     -0.2864
     64  CB        69.5170  -10.8260   16.7060 C.3   151  VAL151      0.0276
     65  CG1       69.3500  -10.3310   15.2850 C.3   151  VAL151      0.0022
     66  CG2       70.9800  -10.9650   17.0640 C.3   151  VAL151      0.0022
     67  N         68.4330   -4.4560   17.7080 N.3   153  GLY153     -0.1225
     68  CA        67.5740   -3.4450   18.3020 C.3   153  GLY153      0.1811
     69  C         67.0860   -2.4320   17.2850 C.2   153  GLY153      0.2280
     70  O         65.9910   -1.8890   17.4030 O.2   153  GLY153     -0.2866
     71  N         64.1710   -4.0680   15.1880 N.3   156  ILE156     -0.1231
     72  CA        62.9130   -4.0300   15.9250 C.3   156  ILE156      0.1692
     73  C         62.2430   -2.6690   15.7750 C.2   156  ILE156      0.2592
     74  O         61.0540   -2.5850   15.4780 O.2   156  ILE156     -0.2718
     75  CB        63.1090   -4.2630   17.4240 C.3   156  ILE156      0.0266
     76  CG1       63.8470   -5.5720   17.6720 C.3   156  ILE156      0.0019
     77  CG2       61.7620   -4.2950   18.1030 C.3   156  ILE156      0.0020
     78  CD1       64.1760   -5.8080   19.1370 C.3   156  ILE156      0.0001
     79  N         63.0110   -1.6030   15.9880 N.am  157  ASP157     -0.1974
     80  CA        62.4610   -0.2600   15.9760 C.3   157  ASP157      0.1709
     81  C         61.9330    0.1140   14.6030 C.2   157  ASP157      0.2293
     82  O         60.9720    0.8730   14.4890 O.2   157  ASP157     -0.2864
     83  CB        63.5190    0.7500   16.3910 C.3   157  ASP157      0.1436
     84  CG        62.9690    2.1630   16.4700 C.2   157  ASP157      0.3671
     85  OD1       62.0690    2.3990   17.3000 O.co2 157  ASP157     -0.2456
     86  OD2       63.4230    3.0400   15.7010 O.co2 157  ASP157     -0.2456
@<TRIPOS>BOND
     1     1     2    1
     2     3     2    1
     3     3     4    2
     4     2     5    1
     5    82    81    2
     6    81    80    1
     7     5     6    1
     8    71    72    1
     9    65    64    1
    10     9     7   ar
    11    74    73    2
    12     6     7    1
    13    86    84   ar
    14    73    72    1
    15    73    79   am
    16    72    75    1
    17     7     8   ar
    18    80    79    1
    19    80    83    1
    20    83    84    1
    21    84    85   ar
    22    64    66    1
    23    64    61    1
    24    69    70    2
    25    69    68    1
    26    75    76    1
    27    75    77    1
    28    62    61    1
    29    62    63    2
    30    60    61    1
    31    60    58   am
    32    76    78    1
    33    67    68    1
    34    57    56    1
    35    57    58    1
    36    58    59    2
    37    48    47    2
    38    47    46    1
    39    36    34    1
    40    49    46    1
    41    49    50    1
    42    18    19   ar
    43    18    16   ar
    44    19    17   ar
    45    46    45    1
    46    51    50    1
    47    51    52    1
    48    16    15   ar
    49    17    15   ar
    50    15    14    1
    51    40    39    2
    52    34    33    1
    53    35    33    1
    54    52    53    2
    55    33    30    1
    56    14    11    1
    57    54    53    1
    58    39    38    1
    59    53    55    1
    60    30    31    1
    61    30    29    1
    62    11    12    1
    63    11    10    1
    64    37    31   am
    65    37    38    1
    66    31    32    2
    67    13    12    2
    68    38    41    1
    69    12    20   am
    70    29    22   am
    71    41    42    1
    72    22    23    2
    73    22    21    1
    74    20    21    1
    75    44    43    1
    76    42    43    1
    77    21    24    1
    78    24    25    1
    79    25    26    1
    80    26    27    1
    81    27    28    1
