@<TRIPOS>MOLECULE
tmp/3orqA01.pdb
 94 89 0 0 0
SMALL
GASTEIGER

@<TRIPOS>ATOM
      1  N         23.6000    4.9560   37.8240 N.3    20  GLN20      -0.1245
      2  CA        24.4200    4.1130   37.0330 C.3    20  GLN20       0.1566
      3  C         23.6010    3.4010   35.9710 C.2    20  GLN20       0.2260
      4  O         24.1580    2.9740   34.9550 O.2    20  GLN20      -0.2867
      5  CB        25.1470    3.0790   37.8920 C.3    20  GLN20       0.0367
      6  CG        24.2640    2.0790   38.5850 C.3    20  GLN20       0.0905
      7  CD        23.7960    2.5740   39.9950 C.2    20  GLN20       0.2608
      8  OE1       23.8730    3.7680   40.3090 O.2    20  GLN20      -0.2717
      9  NE2       23.3240    1.6490   40.8250 N.am   20  GLN20      -0.0878
     10  N         26.4780    9.9810   37.8370 N.3    43  PRO43      -0.2116
     11  CA        27.3260    9.1290   37.0010 C.3    43  PRO43       0.1372
     12  C         27.0640    9.2440   35.4840 C.2    43  PRO43       0.2244
     13  O         27.9580    8.9610   34.7030 O.2    43  PRO43      -0.2868
     14  CB        26.9720    7.7050   37.4580 C.3    43  PRO43       0.0268
     15  CG        26.3560    7.8720   38.8680 C.3    43  PRO43       0.0207
     16  CD        25.7450    9.2470   38.8900 C.3    43  PRO43       0.0892
     17  N         14.6380    5.1990   36.8570 N.3    76  PHE76      -0.1241
     18  CA        14.2330    4.7860   38.1960 C.3    76  PHE76       0.1605
     19  C         12.7590    5.1740   38.4410 C.2    76  PHE76       0.2264
     20  O         12.2680    6.1430   37.8860 O.2    76  PHE76      -0.2867
     21  CB        15.1810    5.4210   39.2420 C.3    76  PHE76       0.0534
     22  CG        15.5240    4.5170   40.4410 C.ar   76  PHE76      -0.0203
     23  CD1       16.5510    3.5630   40.3540 C.ar   76  PHE76      -0.0042
     24  CD2       14.8660    4.6770   41.6790 C.ar   76  PHE76      -0.0042
     25  CE1       16.8860    2.7540   41.4660 C.ar   76  PHE76      -0.0003
     26  CE2       15.2010    3.8740   42.8050 C.ar   76  PHE76      -0.0003
     27  CZ        16.2080    2.9150   42.6950 C.ar   76  PHE76      -0.0000
     28  N         13.8300    1.0400   49.0780 N.3   152  TYR152     -0.1227
     29  CA        14.8310    0.3960   48.2160 C.3   152  TYR152      0.1736
     30  C         15.8800   -0.3330   49.0480 C.2   152  TYR152      0.2595
     31  O         16.1060   -0.0030   50.2100 O.2   152  TYR152     -0.2718
     32  CB        15.4510    1.3150   47.1210 C.3   152  TYR152      0.0548
     33  CG        16.0840    2.6560   47.5230 C.ar  152  TYR152     -0.0200
     34  CD1       16.6380    2.8710   48.7930 C.ar  152  TYR152     -0.0009
     35  CD2       16.1660    3.6990   46.5860 C.ar  152  TYR152     -0.0009
     36  CE1       17.2330    4.1070   49.1280 C.ar  152  TYR152      0.0417
     37  CE2       16.7600    4.9340   46.9040 C.ar  152  TYR152      0.0417
     38  CZ        17.2920    5.1320   48.1720 C.ar  152  TYR152      0.1957
     39  OH        17.8670    6.3540   48.4790 O.3   152  TYR152     -0.2866
     40  N         16.4690   -1.3620   48.4470 N.am  153  ASP153     -0.1974
     41  CA        17.5100   -2.1690   49.0840 C.3   153  ASP153      0.1709
     42  C         17.2550   -2.4310   50.5670 C.2   153  ASP153      0.2293
     43  O         17.9980   -1.9710   51.4260 O.2   153  ASP153     -0.2864
     44  CB        18.8710   -1.4910   48.9110 C.3   153  ASP153      0.1436
     45  CG        19.3620   -1.5270   47.4780 C.2   153  ASP153      0.3671
     46  OD1       18.8070   -2.3080   46.6770 O.co2 153  ASP153     -0.2456
     47  OD2       20.2970   -0.8110   47.0610 O.co2 153  ASP153     -0.2456
     48  N         15.6300   -1.3040   52.8830 N.3   155  LYS155     -0.1245
     49  CA        15.1710   -0.1920   53.7480 C.3   155  LYS155      0.1561
     50  C         13.6470   -0.1710   53.9120 C.2   155  LYS155      0.2260
     51  O         12.8960   -0.5520   52.9970 O.2   155  LYS155     -0.2867
     52  CB        15.6810    1.1760   53.2520 C.3   155  LYS155      0.0271
     53  CG        17.1830    1.3950   53.3990 C.3   155  LYS155      0.0035
     54  CD        17.6160    2.7910   52.9310 C.3   155  LYS155      0.0206
     55  CE        19.1040    2.8370   52.6050 C.3   155  LYS155      0.1093
     56  NZ        19.5060    4.0860   51.8910 N.3   155  LYS155     -0.1314
     57  N         30.7140    7.5430   41.1520 N.3   336  LYS336     -0.1245
     58  CA        30.0650    8.3730   42.1600 C.3   336  LYS336      0.1561
     59  C         31.1420    9.0440   43.0690 C.2   336  LYS336      0.2260
     60  O         32.1330    8.4010   43.4650 O.2   336  LYS336     -0.2867
     61  CB        29.1340    7.5400   42.9710 C.3   336  LYS336      0.0271
     62  CG        28.1140    6.8040   42.1330 C.3   336  LYS336      0.0035
     63  CD        27.1840    5.9630   42.9500 C.3   336  LYS336      0.0206
     64  CE        26.1560    5.3570   42.0160 C.3   336  LYS336      0.1093
     65  NZ        25.0870    4.6300   42.7410 N.3   336  LYS336     -0.1314
     66  N         30.0070    5.7400   50.3750 N.3   340  LYS340     -0.1245
     67  CA        29.3750    5.3520   51.6410 C.3   340  LYS340      0.1561
     68  C         29.3020    3.8360   51.6950 C.2   340  LYS340      0.2260
     69  O         29.2300    3.1670   50.6580 O.2   340  LYS340     -0.2867
     70  CB        27.9630    5.9170   51.7970 C.3   340  LYS340      0.0271
     71  CG        27.7710    7.3320   51.3680 C.3   340  LYS340      0.0035
     72  CD        26.3660    7.8380   51.7080 C.3   340  LYS340      0.0206
     73  CE        26.0450    9.1460   50.9320 C.3   340  LYS340      0.1093
     74  NZ        24.7980    9.8600   51.3960 N.3   340  LYS340     -0.1314
     75  N         26.4590    2.2070   49.7810 N.3   343  ARG343     -0.1231
     76  CA        26.1350    2.7560   48.4760 C.3   343  ARG343      0.1694
     77  C         26.7270    1.8200   47.4030 C.2   343  ARG343      0.2591
     78  O         27.8320    1.2890   47.5550 O.2   343  ARG343     -0.2718
     79  CB        26.7220    4.1800   48.3930 C.3   343  ARG343      0.0321
     80  CG        26.2110    4.9670   47.1920 C.3   343  ARG343      0.0489
     81  CD        26.5750    6.4010   47.2090 C.3   343  ARG343      0.2205
     82  NE        25.8660    7.1310   46.1520 N.pl3 343  ARG343     -0.0865
     83  CZ        26.1910    8.3500   45.6980 C.cat 343  ARG343      0.5346
     84  NH1       27.2310    9.0230   46.2220 N.pl3 343  ARG343      0.1354
     85  NH2       25.4630    8.9190   44.7320 N.pl3 343  ARG343      0.1354
     86  N         25.9920    1.6010   46.3270 N.am  344  LYS344     -0.1980
     87  CA        26.4470    0.7530   45.2300 C.3   344  LYS344      0.1596
     88  C         27.3870    1.6020   44.4240 C.2   344  LYS344      0.2287
     89  O         26.9460    2.5700   43.8000 O.2   344  LYS344     -0.2864
     90  CB        25.2650    0.3340   44.3680 C.3   344  LYS344      0.0298
     91  CG        24.3470   -0.6400   45.0400 C.3   344  LYS344      0.0038
     92  CD        23.1020   -0.9140   44.2270 C.3   344  LYS344      0.0206
     93  CE        22.1860   -1.8350   44.9910 C.3   344  LYS344      0.1093
     94  NZ        20.9590   -2.1540   44.1660 N.3   344  LYS344     -0.1314
@<TRIPOS>BOND
     1    13    12    2
     2     4     3    2
     3    12    11    1
     4     3     2    1
     5    17    18    1
     6    11    14    1
     7    11    10    1
     8     2     1    1
     9     2     5    1
    10    14    15    1
    11    10    16    1
    12    20    19    2
    13     5     6    1
    14    18    19    1
    15    18    21    1
    16     6     7    1
    17    15    16    1
    18    21    22    1
    19     7     8    2
    20     7     9   am
    21    23    22   ar
    22    23    25   ar
    23    22    24   ar
    24    57    58    1
    25    25    27   ar
    26    24    26   ar
    27    64    65    1
    28    64    63    1
    29    62    63    1
    30    62    61    1
    31    58    61    1
    32    58    59    1
    33    27    26   ar
    34    59    60    2
    35    89    88    2
    36    94    93    1
    37    92    93    1
    38    92    91    1
    39    90    91    1
    40    90    87    1
    41    88    87    1
    42    85    83    1
    43    87    86    1
    44    83    82    2
    45    83    84    1
    46    82    81    1
    47    86    77   am
    48    35    37   ar
    49    35    33   ar
    50    46    45   ar
    51    37    38   ar
    52    47    45   ar
    53    32    33    1
    54    32    29    1
    55    80    81    1
    56    80    79    1
    57    77    78    2
    58    77    76    1
    59    45    44    1
    60    33    34   ar
    61    38    39    1
    62    38    36   ar
    63    29    30    1
    64    29    28    1
    65    79    76    1
    66    40    30   am
    67    40    41    1
    68    76    75    1
    69    34    36   ar
    70    44    41    1
    71    30    31    2
    72    41    42    1
    73    66    67    1
    74    42    43    2
    75    69    68    2
    76    73    74    1
    77    73    72    1
    78    71    72    1
    79    71    70    1
    80    67    68    1
    81    67    70    1
    82    56    55    1
    83    55    54    1
    84    48    49    1
    85    54    53    1
    86    51    50    2
    87    52    53    1
    88    52    49    1
    89    49    50    1
