@<TRIPOS>MOLECULE
tmp/3orqA00.pdb
 192 182 0 0 0
SMALL
GASTEIGER

@<TRIPOS>ATOM
      1  N          3.7820   -0.5630   46.7500 N.3   106  ARG106     -0.1245
      2  CA         3.7420   -1.9890   47.1220 C.3   106  ARG106      0.1563
      3  C          2.3490   -2.6050   47.2110 C.2   106  ARG106      0.2260
      4  O          2.1560   -3.7430   46.8010 O.2   106  ARG106     -0.2867
      5  CB         4.4490   -2.2230   48.4590 C.3   106  ARG106      0.0307
      6  CG         5.9460   -1.9610   48.4360 C.3   106  ARG106      0.0489
      7  CD         6.6030   -2.7150   49.5500 C.3   106  ARG106      0.2205
      8  NE         8.0060   -2.3570   49.7160 N.pl3 106  ARG106     -0.0865
      9  CZ         9.0190   -2.9800   49.1280 C.cat 106  ARG106      0.5346
     10  NH1        8.7850   -3.9780   48.3000 N.pl3 106  ARG106      0.1354
     11  NH2       10.2690   -2.5890   49.3560 N.pl3 106  ARG106      0.1354
     12  N          2.8740  -13.7870   47.5490 N.3   121  VAL121     -0.1245
     13  CA         2.9170  -14.0610   48.9720 C.3   121  VAL121      0.1561
     14  C          1.7020  -13.4150   49.6150 C.2   121  VAL121      0.2260
     15  O          1.4210  -12.2430   49.3600 O.2   121  VAL121     -0.2867
     16  CB         4.2140  -13.5350   49.6190 C.3   121  VAL121      0.0252
     17  CG1        4.4020  -12.0590   49.3390 C.3   121  VAL121      0.0019
     18  CG2        4.2150  -13.7830   51.1200 C.3   121  VAL121      0.0019
     19  N          6.3780   -9.9090   57.7600 N.3   144  ILE144     -0.1245
     20  CA         7.2240   -8.7360   57.5910 C.3   144  ILE144      0.1561
     21  C          6.4370   -7.5240   57.1140 C.2   144  ILE144      0.2260
     22  O          5.6320   -7.6300   56.2050 O.2   144  ILE144     -0.2867
     23  CB         8.4410   -9.0540   56.6640 C.3   144  ILE144      0.0252
     24  CG1        9.2800   -7.8050   56.4070 C.3   144  ILE144      0.0019
     25  CG2        7.9690   -9.6780   55.3780 C.3   144  ILE144      0.0019
     26  CD1       10.7440   -8.1280   56.0960 C.3   144  ILE144      0.0001
     27  N          6.4960   -3.7920   55.3490 N.3   146  LYS146     -0.1245
     28  CA         7.2600   -2.9280   54.4310 C.3   146  LYS146      0.1561
     29  C          6.5300   -1.6130   54.1940 C.2   146  LYS146      0.2260
     30  O          5.3050   -1.6100   54.0510 O.2   146  LYS146     -0.2867
     31  CB         7.5180   -3.6100   53.0710 C.3   146  LYS146      0.0271
     32  CG         8.0900   -5.0170   53.1490 C.3   146  LYS146      0.0035
     33  CD         8.1100   -5.7210   51.7800 C.3   146  LYS146      0.0206
     34  CE         8.6760   -7.1200   51.9050 C.3   146  LYS146      0.1093
     35  NZ         8.6500   -7.8620   50.5950 N.3   146  LYS146     -0.1314
     36  N         10.7180    2.4320   49.8110 N.3   151  GLY151     -0.1210
     37  CA        11.7330    1.3980   50.0120 C.3   151  GLY151      0.1956
     38  C         12.6480    1.0240   48.8700 C.2   151  GLY151      0.2612
     39  O         12.1960    0.7980   47.7570 O.2   151  GLY151     -0.2717
     40  N         13.8300    1.0400   49.0780 N.am  152  TYR152     -0.1962
     41  CA        14.8310    0.3960   48.2160 C.3   152  TYR152      0.1771
     42  C         15.8800   -0.3330   49.0480 C.2   152  TYR152      0.2620
     43  O         16.1060   -0.0030   50.2100 O.2   152  TYR152     -0.2715
     44  CB        15.4510    1.3150   47.1210 C.3   152  TYR152      0.0574
     45  CG        16.0840    2.6560   47.5230 C.ar  152  TYR152     -0.0198
     46  CD1       16.6380    2.8710   48.7930 C.ar  152  TYR152     -0.0009
     47  CD2       16.1660    3.6990   46.5860 C.ar  152  TYR152     -0.0009
     48  CE1       17.2330    4.1070   49.1280 C.ar  152  TYR152      0.0417
     49  CE2       16.7600    4.9340   46.9040 C.ar  152  TYR152      0.0417
     50  CZ        17.2920    5.1320   48.1720 C.ar  152  TYR152      0.1957
     51  OH        17.8670    6.3540   48.4790 O.3   152  TYR152     -0.2866
     52  N         16.4690   -1.3620   48.4470 N.am  153  ASP153     -0.1957
     53  CA        17.5100   -2.1690   49.0840 C.3   153  ASP153      0.1840
     54  C         17.2550   -2.4310   50.5670 C.2   153  ASP153      0.2623
     55  O         17.9980   -1.9710   51.4260 O.2   153  ASP153     -0.2715
     56  CB        18.8710   -1.4910   48.9110 C.3   153  ASP153      0.1450
     57  CG        19.3620   -1.5270   47.4780 C.2   153  ASP153      0.3671
     58  OD1       18.8070   -2.3080   46.6770 O.co2 153  ASP153     -0.2456
     59  OD2       20.2970   -0.8110   47.0610 O.co2 153  ASP153     -0.2456
     60  N         16.2860   -3.2280   50.9300 N.am  154  GLY154     -0.1940
     61  CA        16.0010   -3.6430   52.2970 C.3   154  GLY154      0.2014
     62  C         15.4640   -2.5850   53.2390 C.2   154  GLY154      0.2638
     63  O         14.9170   -2.9290   54.2870 O.2   154  GLY154     -0.2714
     64  N         15.6300   -1.3040   52.8830 N.am  155  LYS155     -0.1977
     65  CA        15.1710   -0.1920   53.7480 C.3   155  LYS155      0.1596
     66  C         13.6470   -0.1710   53.9120 C.2   155  LYS155      0.2287
     67  O         12.8960   -0.5520   52.9970 O.2   155  LYS155     -0.2864
     68  CB        15.6810    1.1760   53.2520 C.3   155  LYS155      0.0298
     69  CG        17.1830    1.3950   53.3990 C.3   155  LYS155      0.0038
     70  CD        17.6160    2.7910   52.9310 C.3   155  LYS155      0.0206
     71  CE        19.1040    2.8370   52.6050 C.3   155  LYS155      0.1093
     72  NZ        19.5060    4.0860   51.8910 N.3   155  LYS155     -0.1314
     73  N         11.7270   -1.8050   56.1080 N.3   157  GLN157     -0.1245
     74  CA        11.1260   -3.1050   56.4160 C.3   157  GLN157      0.1566
     75  C         11.4320   -3.5030   57.8660 C.2   157  GLN157      0.2260
     76  O         12.5310   -3.2370   58.3630 O.2   157  GLN157     -0.2867
     77  CB        11.6630   -4.1860   55.4700 C.3   157  GLN157      0.0367
     78  CG        11.5770   -3.8550   54.0010 C.3   157  GLN157      0.0905
     79  CD        11.8910   -5.0550   53.1460 C.2   157  GLN157      0.2608
     80  OE1       11.7340   -6.1950   53.5930 O.2   157  GLN157     -0.2717
     81  NE2       12.3700   -4.8150   51.9170 N.am  157  GLN157     -0.0878
     82  N          3.1270   -9.0850   54.8430 N.3   181  GLU181     -0.1231
     83  CA         3.0990  -10.2970   54.0210 C.3   181  GLU181      0.1699
     84  C          3.8090  -11.4180   54.7890 C.2   181  GLU181      0.2592
     85  O          4.6870  -11.1500   55.6140 O.2   181  GLU181     -0.2718
     86  CB         3.7860  -10.0540   52.6590 C.3   181  GLU181      0.0402
     87  CG         5.2050   -9.5310   52.7880 C.3   181  GLU181      0.1161
     88  CD         5.9780   -9.4840   51.4870 C.2   181  GLU181      0.3649
     89  OE1        6.0140   -8.3730   50.8900 O.co2 181  GLU181     -0.2457
     90  OE2        6.5630  -10.5410   51.0740 O.co2 181  GLU181     -0.2457
     91  N          3.4270  -12.6640   54.5350 N.am  182  LYS182     -0.1966
     92  CA         4.0660  -13.8050   55.2020 C.3   182  LYS182      0.1728
     93  C          5.6040  -13.8080   55.0400 C.2   182  LYS182      0.2616
     94  O          6.1430  -13.6600   53.9120 O.2   182  LYS182     -0.2715
     95  CB         3.5030  -15.1260   54.6510 C.3   182  LYS182      0.0311
     96  CG         2.1780  -15.6080   55.2640 C.3   182  LYS182      0.0038
     97  CD         1.7220  -16.9260   54.6040 C.3   182  LYS182      0.0206
     98  CE         0.4570  -17.5310   55.2680 C.3   182  LYS182      0.1093
     99  NZ         0.7500  -18.2170   56.5500 N.3   182  LYS182     -0.1314
    100  N          6.3140  -14.0130   56.1550 N.am  183  TYR183     -0.1960
    101  CA         7.7570  -14.2710   56.0560 C.3   183  TYR183      0.1771
    102  C          7.9840  -15.7630   55.7650 C.2   183  TYR183      0.2619
    103  O          7.6850  -16.6370   56.6080 O.2   183  TYR183     -0.2715
    104  CB         8.5110  -13.8170   57.2970 C.3   183  TYR183      0.0574
    105  CG        10.0140  -13.8050   57.1220 C.ar  183  TYR183     -0.0198
    106  CD1       10.6520  -12.7460   56.4500 C.ar  183  TYR183     -0.0009
    107  CD2       10.8070  -14.8420   57.6430 C.ar  183  TYR183     -0.0009
    108  CE1       12.0480  -12.7250   56.2830 C.ar  183  TYR183      0.0417
    109  CE2       12.2010  -14.8340   57.4870 C.ar  183  TYR183      0.0417
    110  CZ        12.8140  -13.7690   56.8060 C.ar  183  TYR183      0.1957
    111  OH        14.1840  -13.7420   56.6510 O.3   183  TYR183     -0.2866
    112  N          8.4700  -16.0230   54.5480 N.am  184  LEU184     -0.1977
    113  CA         8.6580  -17.3560   54.0230 C.3   184  LEU184      0.1596
    114  C          9.9960  -17.9330   54.3900 C.2   184  LEU184      0.2287
    115  O         10.9270  -17.2050   54.7000 O.2   184  LEU184     -0.2864
    116  CB         8.5760  -17.3380   52.4960 C.3   184  LEU184      0.0297
    117  CG         7.2830  -16.8860   51.8140 C.3   184  LEU184      0.0022
    118  CD1        7.4560  -16.9160   50.2930 C.3   184  LEU184      0.0001
    119  CD2        6.1400  -17.7390   52.2360 C.3   184  LEU184      0.0001
    120  N         12.6810  -19.2060   52.5410 N.3   186  ILE186     -0.1245
    121  CA        13.1700  -19.1680   51.1520 C.3   186  ILE186      0.1561
    122  C         14.4950  -19.9060   50.9680 C.2   186  ILE186      0.2260
    123  O         15.4380  -19.6550   51.7130 O.2   186  ILE186     -0.2867
    124  CB        13.3770  -17.7290   50.7270 C.3   186  ILE186      0.0252
    125  CG1       12.0420  -16.9950   50.7650 C.3   186  ILE186      0.0019
    126  CG2       14.0480  -17.6500   49.3200 C.3   186  ILE186      0.0019
    127  CD1       12.1590  -15.5610   50.3070 C.3   186  ILE186      0.0001
    128  N         16.5100  -17.2920   45.7110 N.3   189  GLU189     -0.1245
    129  CA        15.8600  -16.2160   44.9610 C.3   189  GLU189      0.1567
    130  C         16.3510  -16.1540   43.5300 C.2   189  GLU189      0.2260
    131  O         17.5510  -16.2960   43.2620 O.2   189  GLU189     -0.2867
    132  CB        16.0820  -14.8730   45.6220 C.3   189  GLU189      0.0388
    133  CG        15.4500  -14.7810   47.0060 C.3   189  GLU189      0.1160
    134  CD        15.6420  -13.4460   47.6080 C.2   189  GLU189      0.3649
    135  OE1       16.3940  -13.3580   48.5790 O.co2 189  GLU189     -0.2457
    136  OE2       15.0770  -12.4690   47.0920 O.co2 189  GLU189     -0.2457
    137  N         21.2360  -12.1770   48.4730 N.3   212  HIS212     -0.1241
    138  CA        21.2710  -10.8630   49.1080 C.3   212  HIS212      0.1621
    139  C         22.0790  -10.9330   50.4090 C.2   212  HIS212      0.2264
    140  O         22.1960  -12.0020   51.0290 O.2   212  HIS212     -0.2867
    141  CB        19.8670  -10.3380   49.4040 C.3   212  HIS212      0.0745
    142  CG        19.0450  -10.0670   48.1830 C.ar  212  HIS212      0.0817
    143  ND1       18.4020  -11.0660   47.4840 N.ar  212  HIS212     -0.2268
    144  CD2       18.7280   -8.9050   47.5590 C.ar  212  HIS212      0.1154
    145  CE1       17.7530  -10.5350   46.4620 C.ar  212  HIS212      0.1986
    146  NE2       17.9260   -9.2250   46.4920 N.ar  212  HIS212     -0.2212
    147  N         19.9140   -7.5920   52.9280 N.3   215  GLN215     -0.1245
    148  CA        18.7670   -7.2330   52.0880 C.3   215  GLN215      0.1566
    149  C         19.1310   -6.4430   50.8380 C.2   215  GLN215      0.2260
    150  O         18.2590   -5.9820   50.1030 O.2   215  GLN215     -0.2867
    151  CB        17.6470   -6.5820   52.9220 C.3   215  GLN215      0.0367
    152  CG        16.9730   -7.5750   53.9120 C.3   215  GLN215      0.0905
    153  CD        17.8240   -7.8450   55.1740 C.2   215  GLN215      0.2608
    154  OE1       18.2350   -6.9100   55.8820 O.2   215  GLN215     -0.2717
    155  NE2       18.0960   -9.1270   55.4470 N.am  215  GLN215     -0.0878
    156  N         11.3210  -10.2560   40.1010 N.3   252  GLU252     -0.1245
    157  CA        11.9820  -10.9940   41.1890 C.3   252  GLU252      0.1567
    158  C         11.0700  -12.0490   41.7830 C.2   252  GLU252      0.2260
    159  O          9.9200  -11.7600   42.0610 O.2   252  GLU252     -0.2867
    160  CB        12.3460  -10.0480   42.3310 C.3   252  GLU252      0.0388
    161  CG        13.4690   -9.1000   42.0440 C.3   252  GLU252      0.1160
    162  CD        13.8440   -8.2650   43.2570 C.2   252  GLU252      0.3649
    163  OE1       13.4580   -8.5980   44.4160 O.co2 252  GLU252     -0.2457
    164  OE2       14.5370   -7.2580   43.0680 O.co2 252  GLU252     -0.2457
    165  N         10.5890  -15.5470   44.6610 N.3   254  PHE254     -0.1241
    166  CA        11.0330  -16.3790   45.7540 C.3   254  PHE254      0.1605
    167  C         10.7880  -17.8540   45.4340 C.2   254  PHE254      0.2264
    168  O          9.7580  -18.2220   44.8620 O.2   254  PHE254     -0.2867
    169  CB        10.2780  -16.0210   47.0490 C.3   254  PHE254      0.0534
    170  CG        10.5000  -14.6240   47.5250 C.ar  254  PHE254     -0.0203
    171  CD1       11.6960  -13.9560   47.2590 C.ar  254  PHE254     -0.0042
    172  CD2        9.5120  -13.9670   48.2500 C.ar  254  PHE254     -0.0042
    173  CE1       11.9130  -12.6410   47.7080 C.ar  254  PHE254     -0.0003
    174  CE2        9.7120  -12.6510   48.7100 C.ar  254  PHE254     -0.0003
    175  CZ        10.9320  -11.9920   48.4480 C.ar  254  PHE254     -0.0000
    176  N          7.7610  -11.9800   43.8150 N.3   264  ASN264     -0.1225
    177  CA         7.9970  -10.9660   44.8290 C.3   264  ASN264      0.1785
    178  C          7.6500   -9.5420   44.3870 C.2   264  ASN264      0.2597
    179  O          6.7770   -8.8960   44.9560 O.2   264  ASN264     -0.2718
    180  CB         9.4510  -11.0000   45.3190 C.3   264  ASN264      0.1169
    181  CG         9.7880   -9.8240   46.2930 C.2   264  ASN264      0.2627
    182  OD1        8.9240   -9.3470   47.0470 O.2   264  ASN264     -0.2716
    183  ND2       11.0450   -9.3490   46.2500 N.am  264  ASN264     -0.0877
    184  N          8.3810   -9.0310   43.4030 N.am  265  GLU265     -0.1979
    185  CA         8.1740   -7.6610   42.9460 C.3   265  GLU265      0.1602
    186  C          8.6520   -7.4820   41.5050 C.2   265  GLU265      0.2287
    187  O          9.4090   -8.3140   40.9950 O.2   265  GLU265     -0.2864
    188  CB         8.9080   -6.6780   43.8860 C.3   265  GLU265      0.0415
    189  CG        10.4590   -6.6670   43.7650 C.3   265  GLU265      0.1163
    190  CD        11.1770   -5.8870   44.8820 C.2   265  GLU265      0.3649
    191  OE1       10.4890   -5.3650   45.8180 O.co2 265  GLU265     -0.2457
    192  OE2       12.4480   -5.8200   44.8350 O.co2 265  GLU265     -0.2457
@<TRIPOS>BOND
     1   156   157    1
     2   187   186    2
     3   157   158    1
     4   157   160    1
     5   186   185    1
     6   158   159    2
     7   161   160    1
     8   161   162    1
     9   185   184    1
    10   185   188    1
    11   164   162   ar
    12   162   163   ar
    13   131   130    2
    14   184   178   am
    15   130   129    1
    16   189   188    1
    17   189   190    1
    18   176   177    1
    19   178   177    1
    20   178   179    2
    21   165   166    1
    22   177   180    1
    23   192   190   ar
    24   168   167    2
    25   190   191   ar
    26   129   132    1
    27   129   128    1
    28   180   181    1
    29   167   166    1
    30   132   133    1
    31   166   169    1
    32   183   181   am
    33   181   182    2
    34   145   146   ar
    35   145   143   ar
    36   146   144   ar
    37    47    49   ar
    38    47    45   ar
    39    58    57   ar
    40     1     2    1
    41     4     3    2
    42    49    50   ar
    43   133   134    1
    44   169   170    1
    45    59    57   ar
    46   136   134   ar
    47    44    45    1
    48    44    41    1
    49     2     3    1
    50     2     5    1
    51   171   170   ar
    52   171   173   ar
    53    57    56    1
    54   143   142   ar
    55    45    46   ar
    56   170   172   ar
    57    12    13    1
    58   144   142   ar
    59   134   135   ar
    60   173   175   ar
    61    39    38    2
    62    50    51    1
    63    50    48   ar
    64   142   141    1
    65    41    42    1
    66    41    40    1
    67   172   174   ar
    68    10     9    1
    69     6     5    1
    70     6     7    1
    71    52    42   am
    72    52    53    1
    73   175   174   ar
    74   137   138    1
    75    46    48   ar
    76    38    40   am
    77    38    37    1
    78    56    53    1
    79    13    14    1
    80    13    16    1
    81    42    43    2
    82    53    54    1
    83   138   141    1
    84   138   139    1
    85     9    11    1
    86     9     8    2
    87   126   124    1
    88    17    16    1
    89    15    14    2
    90     7     8    1
    91    16    18    1
    92    36    37    1
    93   150   149    2
    94   118   117    1
    95   127   125    1
    96   139   140    2
    97    54    60   am
    98    54    55    2
    99    35    34    1
   100   124   125    1
   101   124   121    1
   102   149   148    1
   103    89    88   ar
   104    60    61    1
   105   122   121    1
   106   122   123    2
   107    90    88   ar
   108   121   120    1
   109    88    87    1
   110    33    34    1
   111    33    32    1
   112   117   119    1
   113   117   116    1
   114    72    71    1
   115    81    79   am
   116   148   151    1
   117   148   147    1
   118    61    62    1
   119   116   113    1
   120    71    70    1
   121    86    87    1
   122    86    83    1
   123    64    62   am
   124    64    65    1
   125   151   152    1
   126    70    69    1
   127    67    66    2
   128    31    32    1
   129    31    28    1
   130    79    80    2
   131    79    78    1
   132    62    63    2
   133    68    69    1
   134    68    65    1
   135    65    66    1
   136   152   153    1
   137    94    93    2
   138    78    77    1
   139    83    84    1
   140    83    82    1
   141   113   114    1
   142   113   112    1
   143    30    29    2
   144    29    28    1
   145   114   115    2
   146    28    27    1
   147    91    84   am
   148    91    92    1
   149   112   102   am
   150    97    96    1
   151    97    98    1
   152    95    92    1
   153    95    96    1
   154    84    85    2
   155    93    92    1
   156    93   100   am
   157   153   155   am
   158   153   154    2
   159    98    99    1
   160    25    23    1
   161    77    74    1
   162   102   101    1
   163   102   103    2
   164   101   100    1
   165   101   104    1
   166    26    24    1
   167    73    74    1
   168    22    21    2
   169   108   106   ar
   170   108   110   ar
   171    24    23    1
   172    74    75    1
   173   106   105   ar
   174   111   110    1
   175    23    20    1
   176   110   109   ar
   177    21    20    1
   178   105   104    1
   179   105   107   ar
   180   109   107   ar
   181    20    19    1
   182    75    76    2
