@<TRIPOS>MOLECULE
tmp/3ortA01.pdb
 84 80 0 0 0
SMALL
GASTEIGER

@<TRIPOS>ATOM
      1  N          7.1130   45.6100   -8.6940 N.3     1  MET1       -0.1230
      2  CA         5.8840   45.6530   -7.8180 C.3     1  MET1        0.1702
      3  C          6.2270   46.2840   -6.4750 C.2     1  MET1        0.2593
      4  O          6.9800   45.7100   -5.6870 O.2     1  MET1       -0.2718
      5  CB         5.3040   44.2670   -7.5600 C.3     1  MET1        0.0401
      6  CG         5.5570   43.2930   -8.6510 C.3     1  MET1        0.0596
      7  SD         5.8090   41.6770   -7.9510 S.3     1  MET1       -0.1393
      8  CE         4.0980   41.1390   -7.8950 C.3     1  MET1        0.0692
      9  N          5.6800   47.4620   -6.2180 N.am    2  THR2       -0.1939
     10  CA         5.9610   48.1590   -4.9830 C.3     2  THR2        0.2028
     11  C          4.8090   48.0790   -3.9770 C.2     2  THR2        0.2642
     12  O          3.6740   47.6990   -4.3020 O.2     2  THR2       -0.2714
     13  CB         6.2860   49.6410   -5.2310 C.3     2  THR2        0.1808
     14  OG1        5.2640   50.2110   -6.0580 O.3     2  THR2       -0.2208
     15  CG2        7.6500   49.7790   -5.8890 C.3     2  THR2        0.0379
     16  N          5.1590   48.4110   -2.7390 N.am    3  THR3       -0.1950
     17  CA         4.2170   48.7060   -1.6970 C.3     3  THR3        0.1897
     18  C          3.9900   50.2110   -1.8140 C.2     3  THR3        0.2313
     19  O          4.9380   50.9540   -2.0480 O.2     3  THR3       -0.2863
     20  CB         4.8100   48.3170   -0.3210 C.3     3  THR3        0.1794
     21  OG1        4.9380   46.8890   -0.2640 O.3     3  THR3       -0.2208
     22  CG2        3.9260   48.8020    0.8320 C.3     3  THR3        0.0378
     23  N         12.2420   50.1160    4.4830 N.3    16  ILE16      -0.1245
     24  CA        11.8860   48.7250    4.7060 C.3    16  ILE16       0.1561
     25  C         12.7700   48.1430    5.8150 C.2    16  ILE16       0.2260
     26  O         13.9710   48.3610    5.8470 O.2    16  ILE16      -0.2867
     27  CB        11.9570   47.8770    3.3980 C.3    16  ILE16       0.0252
     28  CG1       11.2270   46.5500    3.6030 C.3    16  ILE16       0.0019
     29  CG2       13.4100   47.6640    2.9200 C.3    16  ILE16       0.0019
     30  CD1       10.7800   45.8960    2.3120 C.3    16  ILE16       0.0001
     31  N         11.2250   41.3560    6.1240 N.3    19  PHE19      -0.1241
     32  CA        10.1770   40.5840    5.4810 C.3    19  PHE19       0.1605
     33  C         10.2090   39.1150    5.9540 C.2    19  PHE19       0.2264
     34  O         11.2030   38.6270    6.5170 O.2    19  PHE19      -0.2867
     35  CB        10.2720   40.6760    3.9610 C.3    19  PHE19       0.0534
     36  CG        11.3740   39.8380    3.3630 C.ar   19  PHE19      -0.0203
     37  CD1       11.0970   38.5870    2.7970 C.ar   19  PHE19      -0.0042
     38  CD2       12.6940   40.2970    3.3630 C.ar   19  PHE19      -0.0042
     39  CE1       12.1120   37.8070    2.2380 C.ar   19  PHE19      -0.0003
     40  CE2       13.7170   39.5240    2.8070 C.ar   19  PHE19      -0.0003
     41  CZ        13.4220   38.2680    2.2420 C.ar   19  PHE19      -0.0000
     42  N          5.9680   42.1550    4.5960 N.3    24  GLU24      -0.1245
     43  CA         7.0820   43.0630    4.6090 C.3    24  GLU24       0.1567
     44  C          6.7590   44.1080    5.6720 C.2    24  GLU24       0.2260
     45  O          5.6130   44.5390    5.8170 O.2    24  GLU24      -0.2867
     46  CB         7.3430   43.6900    3.2340 C.3    24  GLU24       0.0388
     47  CG         6.1040   44.0650    2.4690 C.3    24  GLU24       0.1160
     48  CD         6.4150   44.6300    1.1040 C.2    24  GLU24       0.3649
     49  OE1        6.7420   45.8260    1.0420 O.co2  24  GLU24      -0.2457
     50  OE2        6.3520   43.8880    0.1070 O.co2  24  GLU24      -0.2457
     51  N          7.8070   47.8030    7.2860 N.3    26  HIS26      -0.1241
     52  CA         8.3720   49.0990    6.9680 C.3    26  HIS26       0.1621
     53  C          8.3270   50.0040    8.1800 C.2    26  HIS26       0.2264
     54  O          7.3510   49.9950    8.9610 O.2    26  HIS26      -0.2867
     55  CB         7.5470   49.7570    5.8470 C.3    26  HIS26       0.0745
     56  CG         7.5280   48.9700    4.5720 C.ar   26  HIS26       0.0817
     57  ND1        8.3870   49.2290    3.5260 N.ar   26  HIS26      -0.2268
     58  CD2        6.7770   47.9070    4.1900 C.ar   26  HIS26       0.1154
     59  CE1        8.1640   48.3620    2.5540 C.ar   26  HIS26       0.1986
     60  NE2        7.1800   47.5590    2.9260 N.ar   26  HIS26      -0.2212
     61  N          3.1090   41.0640    1.5990 N.3    43  ARG43      -0.1231
     62  CA         4.1790   41.2730    0.6450 C.3    43  ARG43       0.1694
     63  C          3.6580   41.6790   -0.7190 C.2    43  ARG43       0.2592
     64  O          2.6580   41.1480   -1.2010 O.2    43  ARG43      -0.2718
     65  CB         5.0210   40.0250    0.5180 C.3    43  ARG43       0.0321
     66  CG         6.1010   39.9280    1.5500 C.3    43  ARG43       0.0489
     67  CD         6.6810   38.5480    1.6220 C.3    43  ARG43       0.2205
     68  NE         7.2950   38.1670    0.3570 N.pl3  43  ARG43      -0.0865
     69  CZ         8.0860   37.1170    0.1700 C.cat  43  ARG43       0.5346
     70  NH1        8.3770   36.2950    1.1700 N.pl3  43  ARG43       0.1354
     71  NH2        8.5780   36.8830   -1.0420 N.pl3  43  ARG43       0.1354
     72  N          4.3600   42.6060   -1.3530 N.am   44  ALA44      -0.1966
     73  CA         3.9060   43.1700   -2.6300 C.3    44  ALA44       0.1728
     74  C          3.8560   42.1350   -3.7390 C.2    44  ALA44       0.2616
     75  O          3.0250   42.2450   -4.6320 O.2    44  ALA44      -0.2715
     76  CB         4.7760   44.3600   -3.0410 C.3    44  ALA44       0.0334
     77  N          4.7240   41.1280   -3.6750 N.am   45  ASP45      -0.1971
     78  CA         4.7620   40.0780   -4.6970 C.3    45  ASP45       0.1709
     79  C          3.7230   38.9950   -4.4890 C.2    45  ASP45       0.2293
     80  O          3.2270   38.4300   -5.4500 O.2    45  ASP45      -0.2864
     81  CB         6.1680   39.4730   -4.8620 C.3    45  ASP45       0.1436
     82  CG         6.7560   38.9180   -3.5620 C.2    45  ASP45       0.3671
     83  OD1        7.5020   37.9220   -3.6550 O.co2  45  ASP45      -0.2456
     84  OD2        6.5080   39.4640   -2.4660 O.co2  45  ASP45      -0.2456
@<TRIPOS>BOND
     1     1     2    1
     2     6     7    1
     3     6     5    1
     4     7     8    1
     5     2     5    1
     6     2     3    1
     7     3     9   am
     8     3     4    2
     9     9    10    1
    10    14    13    1
    11    15    13    1
    12    80    79    2
    13    13    10    1
    14    10    11    1
    15    81    78    1
    16    81    82    1
    17    78    79    1
    18    78    77    1
    19    75    74    2
    20    12    11    2
    21    11    16   am
    22    74    77   am
    23    74    73    1
    24    83    82   ar
    25    82    84   ar
    26    76    73    1
    27    16    17    1
    28    73    72    1
    29    19    18    2
    30    18    17    1
    31    17    20    1
    32    72    63   am
    33    64    63    2
    34    71    69    1
    35    63    62    1
    36    20    21    1
    37    20    22    1
    38    50    48   ar
    39    69    68    2
    40    69    70    1
    41    68    67    1
    42    65    62    1
    43    65    66    1
    44    62    61    1
    45    49    48   ar
    46    48    47    1
    47    66    67    1
    48    39    41   ar
    49    39    37   ar
    50    41    40   ar
    51    30    28    1
    52    47    46    1
    53    59    60   ar
    54    59    57   ar
    55    37    36   ar
    56    40    38   ar
    57    29    27    1
    58    60    58   ar
    59    46    43    1
    60    36    38   ar
    61    36    35    1
    62    27    28    1
    63    27    24    1
    64    57    56   ar
    65    35    32    1
    66    58    56   ar
    67    23    24    1
    68    56    55    1
    69    42    43    1
    70    43    44    1
    71    24    25    1
    72    32    33    1
    73    32    31    1
    74    44    45    2
    75    25    26    2
    76    55    52    1
    77    33    34    2
    78    52    51    1
    79    52    53    1
    80    53    54    2
