@<TRIPOS>MOLECULE
tmp/3orvF00.pdb
 75 72 0 0 0
SMALL
GASTEIGER

@<TRIPOS>ATOM
      1  N         20.1250   62.1980  -18.3350 N.3   177  THR177     -0.1203
      2  CA        19.9790   63.6080  -18.6490 C.3   177  THR177      0.1994
      3  C         21.1160   64.1470  -19.4760 C.2   177  THR177      0.2617
      4  O         21.0910   65.3110  -19.9580 O.2   177  THR177     -0.2717
      5  CB        19.9110   64.4660  -17.3530 C.3   177  THR177      0.1784
      6  OG1       21.0260   64.1290  -16.4960 O.3   177  THR177     -0.2211
      7  CG2       18.6310   64.1280  -16.6040 C.3   177  THR177      0.0376
      8  N         22.1850   63.3840  -19.5880 N.am  178  ALA178     -0.1979
      9  CA        23.3750   63.9340  -20.2940 C.3   178  ALA178      0.1597
     10  C         24.2130   62.7100  -20.6790 C.2   178  ALA178      0.2287
     11  O         23.8830   61.6000  -20.2310 O.2   178  ALA178     -0.2864
     12  CB        24.1870   64.8820  -19.3510 C.3   178  ALA178      0.0319
     13  N          8.7420   59.7080  -18.6670 N.3   223  TYR223     -0.1241
     14  CA         9.9320   60.5370  -18.6960 C.3   223  TYR223      0.1605
     15  C         10.1550   60.9670  -20.1340 C.2   223  TYR223      0.2264
     16  O         10.2290   60.1380  -21.0160 O.2   223  TYR223     -0.2867
     17  CB        11.1590   59.7590  -18.1480 C.3   223  TYR223      0.0534
     18  CG        12.4250   60.5960  -18.2520 C.ar  223  TYR223     -0.0201
     19  CD1       12.4650   61.9350  -17.7180 C.ar  223  TYR223     -0.0009
     20  CD2       13.5500   60.0990  -18.8790 C.ar  223  TYR223     -0.0009
     21  CE1       13.6430   62.6940  -17.7960 C.ar  223  TYR223      0.0417
     22  CE2       14.7400   60.9010  -18.9730 C.ar  223  TYR223      0.0417
     23  CZ        14.7530   62.1640  -18.4580 C.ar  223  TYR223      0.1957
     24  OH        15.9320   62.9160  -18.5470 O.3   223  TYR223     -0.2866
     25  N         12.7990   62.6110  -22.1020 N.3   225  GLN225     -0.1231
     26  CA        14.2090   63.0270  -22.1470 C.3   225  GLN225      0.1698
     27  C         14.4140   64.3910  -22.8540 C.2   225  GLN225      0.2592
     28  O         15.1980   65.2350  -22.4060 O.2   225  GLN225     -0.2718
     29  CB        15.0370   61.9110  -22.8450 C.3   225  GLN225      0.0381
     30  CG        16.5490   62.1370  -22.6200 C.3   225  GLN225      0.0905
     31  CD        17.3300   60.8630  -23.0540 C.2   225  GLN225      0.2608
     32  OE1       17.3360   60.5130  -24.2200 O.2   225  GLN225     -0.2717
     33  NE2       17.9910   60.2250  -22.1220 N.am  225  GLN225     -0.0878
     34  N         13.6840   64.6180  -23.9410 N.am  226  LYS226     -0.1966
     35  CA        13.8420   65.8990  -24.6710 C.3   226  LYS226      0.1728
     36  C         13.2880   67.0860  -23.9090 C.2   226  LYS226      0.2616
     37  O         13.7480   68.2250  -24.0930 O.2   226  LYS226     -0.2715
     38  CB        13.2020   65.8220  -26.0710 C.3   226  LYS226      0.0311
     39  CG        14.0080   64.8810  -27.0100 C.3   226  LYS226      0.0038
     40  CD        13.6170   65.0710  -28.4630 C.3   226  LYS226      0.0206
     41  CE        14.6370   64.4150  -29.3580 C.3   226  LYS226      0.1093
     42  NZ        14.0970   64.2710  -30.7770 N.3   226  LYS226     -0.1314
     43  N         12.2800   66.8640  -23.0700 N.am  227  ALA227     -0.1963
     44  CA        11.7200   68.0110  -22.2870 C.3   227  ALA227      0.1728
     45  C         12.4260   68.0590  -20.9010 C.2   227  ALA227      0.2616
     46  O         12.1980   69.0140  -20.1060 O.2   227  ALA227     -0.2715
     47  CB        10.2180   67.7910  -22.1040 C.3   227  ALA227      0.0334
     48  N         13.1500   66.9670  -20.5740 N.am  228  GLY228     -0.1955
     49  CA        13.6840   66.7580  -19.2270 C.3   228  GLY228      0.1869
     50  C         12.5660   66.6380  -18.1910 C.2   228  GLY228      0.2309
     51  O         12.7540   67.0840  -17.0940 O.2   228  GLY228     -0.2863
     52  N         14.0300   68.2870  -14.9040 N.3   244  LEU244     -0.1231
     53  CA        15.4770   68.0000  -14.9200 C.3   244  LEU244      0.1693
     54  C         16.1530   68.7470  -16.0620 C.2   244  LEU244      0.2593
     55  O         17.3400   68.4960  -16.3050 O.2   244  LEU244     -0.2718
     56  CB        15.7540   66.5130  -15.1730 C.3   244  LEU244      0.0284
     57  CG        15.1010   65.5480  -14.1610 C.3   244  LEU244      0.0019
     58  CD1       15.3260   64.1250  -14.6420 C.3   244  LEU244      0.0001
     59  CD2       15.7400   65.8060  -12.7750 C.3   244  LEU244      0.0001
     60  N         15.4620   69.6680  -16.7470 N.am  245  SER245     -0.1938
     61  CA        16.0360   70.3210  -17.9460 C.3   245  SER245      0.2055
     62  C         17.2750   71.1950  -17.6800 C.2   245  SER245      0.2644
     63  O         18.0370   71.4480  -18.6020 O.2   245  SER245     -0.2714
     64  CB        14.9560   71.1560  -18.6890 C.3   245  SER245      0.2130
     65  OG        14.4890   72.2280  -17.8800 O.3   245  SER245     -0.2179
     66  N         17.4550   71.6910  -16.4510 N.am  246  SER246     -0.1935
     67  CA        18.6840   72.4180  -16.0640 C.3   246  SER246      0.2055
     68  C         19.9210   71.5320  -15.7840 C.2   246  SER246      0.2643
     69  O         21.0320   72.0700  -15.6080 O.2   246  SER246     -0.2714
     70  CB        18.4750   73.3340  -14.8250 C.3   246  SER246      0.2130
     71  OG        18.4210   72.5390  -13.6110 O.3   246  SER246     -0.2179
     72  N         19.7310   70.2110  -15.6930 N.am  247  GLY247     -0.1954
     73  CA        20.7970   69.2680  -15.3400 C.3   247  GLY247      0.1869
     74  C         20.6820   68.9100  -13.8440 C.2   247  GLY247      0.2309
     75  O         21.3080   67.9740  -13.4080 O.2   247  GLY247     -0.2863
@<TRIPOS>BOND
     1    42    41    1
     2    41    40    1
     3    40    39    1
     4    39    38    1
     5    38    35    1
     6    35    34    1
     7    35    36    1
     8    32    31    2
     9    37    36    2
    10    34    27   am
    11    36    43   am
    12    43    44    1
    13    31    30    1
    14    31    33   am
    15    27    28    2
    16    27    26    1
    17    29    30    1
    18    29    26    1
    19    44    47    1
    20    44    45    1
    21    26    25    1
    22    16    15    2
    23    45    48   am
    24    45    46    2
    25    10     9    1
    26    10    11    2
    27    48    49    1
    28     9     8    1
    29     9    12    1
    30    15    14    1
    31     4     3    2
    32     8     3   am
    33     3     2    1
    34    49    50    1
    35    22    20   ar
    36    22    23   ar
    37    20    18   ar
    38    14    13    1
    39    14    17    1
    40    64    61    1
    41    64    65    1
    42     2     1    1
    43     2     5    1
    44    63    62    2
    45    24    23    1
    46    23    21   ar
    47    18    17    1
    48    18    19   ar
    49    50    51    2
    50    61    62    1
    51    61    60    1
    52    21    19   ar
    53    62    66   am
    54     5     7    1
    55     5     6    1
    56    60    54   am
    57    66    67    1
    58    55    54    2
    59    67    68    1
    60    67    70    1
    61    54    53    1
    62    68    72   am
    63    68    69    2
    64    72    73    1
    65    73    74    1
    66    56    53    1
    67    56    57    1
    68    53    52    1
    69    70    71    1
    70    58    57    1
    71    57    59    1
    72    74    75    2
