@<TRIPOS>MOLECULE
tmp/3orvF03.pdb
 109 108 0 0 0
SMALL
GASTEIGER

@<TRIPOS>ATOM
      1  N         14.4740   49.6380  -25.9950 N.3    74  VAL74      -0.1231
      2  CA        14.6200   51.0740  -26.0490 C.3    74  VAL74       0.1692
      3  C         14.5370   51.4610  -27.5090 C.2    74  VAL74       0.2592
      4  O         14.8070   50.6130  -28.3860 O.2    74  VAL74      -0.2718
      5  CB        15.9730   51.6110  -25.4580 C.3    74  VAL74       0.0266
      6  CG1       15.9800   51.4770  -23.9200 C.3    74  VAL74       0.0020
      7  CG2       17.1970   50.8450  -26.0270 C.3    74  VAL74       0.0020
      8  N         14.1910   52.7220  -27.7620 N.am   75  VAL75      -0.1966
      9  CA        14.0480   53.1970  -29.1350 C.3    75  VAL75       0.1727
     10  C         14.7440   54.5330  -29.1340 C.2    75  VAL75       0.2616
     11  O         14.4450   55.3580  -28.3120 O.2    75  VAL75      -0.2715
     12  CB        12.4420   53.3150  -29.4590 C.3    75  VAL75       0.0290
     13  CG1       12.1570   54.0230  -30.7070 C.3    75  VAL75       0.0023
     14  CG2       11.7340   51.8590  -29.4860 C.3    75  VAL75       0.0023
     15  N         15.6720   54.7740  -30.0470 N.am   76  ALA76      -0.1963
     16  CA        16.3090   56.0740  -30.1260 C.3    76  ALA76       0.1728
     17  C         15.2790   57.1260  -30.5690 C.2    76  ALA76       0.2616
     18  O         14.4840   56.8900  -31.5040 O.2    76  ALA76      -0.2715
     19  CB        17.4670   56.0250  -31.1260 C.3    76  ALA76       0.0334
     20  N         15.3320   58.2950  -29.9360 N.am   77  ASP77      -0.1957
     21  CA        14.3820   59.3390  -30.2260 C.3    77  ASP77       0.1840
     22  C         14.4240   59.8150  -31.6440 C.2    77  ASP77       0.2622
     23  O         13.3720   60.1880  -32.2090 O.2    77  ASP77      -0.2715
     24  CB        14.5440   60.5260  -29.2180 C.3    77  ASP77       0.1450
     25  CG        13.6190   60.3850  -28.0310 C.2    77  ASP77       0.3671
     26  OD1       12.6610   59.5740  -28.1130 O.co2  77  ASP77      -0.2456
     27  OD2       13.8310   61.0780  -26.9980 O.co2  77  ASP77      -0.2456
     28  N         15.5880   59.7840  -32.2730 N.am   78  ASP78      -0.1971
     29  CA        15.7040   60.2450  -33.6430 C.3    78  ASP78       0.1709
     30  C         15.4170   59.1600  -34.7400 C.2    78  ASP78       0.2293
     31  O         15.6300   59.3940  -35.9150 O.2    78  ASP78      -0.2864
     32  CB        17.1130   60.8250  -33.8670 C.3    78  ASP78       0.1436
     33  CG        18.2090   59.7310  -33.8880 C.2    78  ASP78       0.3671
     34  OD1       17.9390   58.5400  -33.5740 O.co2  78  ASP78      -0.2456
     35  OD2       19.3630   60.0590  -34.2610 O.co2  78  ASP78      -0.2456
     36  N         17.0230   56.4330  -35.3600 N.3    80  SER80      -0.1202
     37  CA        18.1870   55.8300  -35.9860 C.3    80  SER80       0.2020
     38  C         18.3820   54.3100  -35.6900 C.2    80  SER80       0.2618
     39  O         19.0410   53.6040  -36.4670 O.2    80  SER80      -0.2717
     40  CB        19.4880   56.6280  -35.7240 C.3    80  SER80       0.2103
     41  OG        19.7980   56.6920  -34.3310 O.3    80  SER80      -0.2182
     42  N         17.8810   53.8160  -34.5660 N.am   81  PHE81      -0.1975
     43  CA        18.0770   52.4090  -34.1930 C.3    81  PHE81       0.1639
     44  C         17.0660   52.0650  -33.0880 C.2    81  PHE81       0.2290
     45  O         16.4240   52.9410  -32.4930 O.2    81  PHE81      -0.2864
     46  CB        19.5580   52.1140  -33.7250 C.3    81  PHE81       0.0560
     47  CG        19.9530   52.7640  -32.3740 C.ar   81  PHE81      -0.0200
     48  CD1       19.7030   52.0920  -31.1370 C.ar   81  PHE81      -0.0042
     49  CD2       20.5150   54.0240  -32.3400 C.ar   81  PHE81      -0.0042
     50  CE1       20.0570   52.7030  -29.8570 C.ar   81  PHE81      -0.0003
     51  CE2       20.9290   54.6480  -31.1130 C.ar   81  PHE81      -0.0003
     52  CZ        20.6570   54.0000  -29.8590 C.ar   81  PHE81      -0.0000
     53  N         11.9220   52.3270  -17.7230 N.3   130  TRP130     -0.1241
     54  CA        13.1020   53.1380  -17.3020 C.3   130  TRP130      0.1605
     55  C         14.0620   52.3490  -16.4090 C.2   130  TRP130      0.2264
     56  O         14.9250   52.9430  -15.6780 O.2   130  TRP130     -0.2867
     57  CB        12.6040   54.4700  -16.6450 C.3   130  TRP130      0.0550
     58  CG        11.9410   55.2800  -17.7600 C.ar  130  TRP130      0.0003
     59  CD1       10.5880   55.3900  -17.9880 C.ar  130  TRP130      0.0946
     60  CD2       12.6000   55.9380  -18.8830 C.ar  130  TRP130      0.0152
     61  NE1       10.3790   56.0890  -19.1440 N.ar  130  TRP130     -0.2442
     62  CE2       11.5860   56.4680  -19.6940 C.ar  130  TRP130      0.0810
     63  CE3       13.9510   56.2110  -19.2110 C.ar  130  TRP130      0.0012
     64  CZ2       11.8550   57.2130  -20.8670 C.ar  130  TRP130      0.0191
     65  CZ3       14.2310   56.9520  -20.3880 C.ar  130  TRP130      0.0001
     66  CH2       13.1730   57.4320  -21.2110 C.ar  130  TRP130      0.0015
     67  N         18.5510   54.9870  -22.7260 N.3   134  LEU134     -0.1231
     68  CA        19.6460   55.5310  -23.5750 C.3   134  LEU134      0.1693
     69  C         20.0150   56.8850  -23.0980 C.2   134  LEU134      0.2593
     70  O         19.1400   57.6200  -22.7340 O.2   134  LEU134     -0.2718
     71  CB        19.1600   55.6600  -25.0250 C.3   134  LEU134      0.0284
     72  CG        18.8830   54.3050  -25.7280 C.3   134  LEU134      0.0019
     73  CD1       18.0770   54.4630  -27.0600 C.3   134  LEU134      0.0001
     74  CD2       20.1630   53.4730  -25.8960 C.3   134  LEU134      0.0001
     75  N         21.2990   57.2460  -23.1080 N.am  135  THR135     -0.1940
     76  CA        21.6780   58.6310  -22.9020 C.3   135  THR135      0.2013
     77  C         21.2020   59.4780  -24.1210 C.2   135  THR135      0.2484
     78  O         20.9260   58.9260  -25.2310 O.2   135  THR135     -0.2729
     79  CB        23.2210   58.7580  -22.7830 C.3   135  THR135      0.1807
     80  OG1       23.8100   58.0940  -23.9020 O.3   135  THR135     -0.2208
     81  CG2       23.6890   58.0070  -21.5410 C.3   135  THR135      0.0379
     82  N         21.0940   60.7940  -23.9420 N.am  136  PRO136     -0.2715
     83  CA        20.4270   61.5550  -25.0370 C.3   136  PRO136      0.1536
     84  C         21.1820   61.6590  -26.3520 C.2   136  PRO136      0.2599
     85  O         20.5510   61.9300  -27.3620 O.2   136  PRO136     -0.2715
     86  CB        20.1940   62.9830  -24.4500 C.3   136  PRO136      0.0310
     87  CG        20.9630   63.0050  -23.1440 C.3   136  PRO136      0.0237
     88  CD        21.2730   61.5800  -22.7060 C.3   136  PRO136      0.0939
     89  N         22.4750   61.3870  -26.3480 N.am  137  ASP137     -0.1958
     90  CA        23.2700   61.2510  -27.5790 C.3   137  ASP137      0.1840
     91  C         23.0680   59.8620  -28.2330 C.2   137  ASP137      0.2622
     92  O         23.5050   59.6540  -29.3250 O.2   137  ASP137     -0.2715
     93  CB        24.7690   61.4910  -27.2990 C.3   137  ASP137      0.1450
     94  CG        25.3580   60.5270  -26.1920 C.2   137  ASP137      0.3671
     95  OD1       24.7100   59.5290  -25.7880 O.co2 137  ASP137     -0.2456
     96  OD2       26.4980   60.7870  -25.7120 O.co2 137  ASP137     -0.2456
     97  N         22.4080   58.9300  -27.5470 N.am  138  GLY138     -0.1954
     98  CA        22.2280   57.5540  -28.0260 C.3   138  GLY138      0.1869
     99  C         23.4750   56.7010  -28.1690 C.2   138  GLY138      0.2309
    100  O         23.4250   55.6270  -28.7770 O.2   138  GLY138     -0.2863
    101  N         12.7990   62.6110  -22.1020 N.3   225  GLN225     -0.1245
    102  CA        14.2090   63.0270  -22.1470 C.3   225  GLN225      0.1566
    103  C         14.4140   64.3910  -22.8540 C.2   225  GLN225      0.2260
    104  O         15.1980   65.2350  -22.4060 O.2   225  GLN225     -0.2867
    105  CB        15.0370   61.9110  -22.8450 C.3   225  GLN225      0.0367
    106  CG        16.5490   62.1370  -22.6200 C.3   225  GLN225      0.0905
    107  CD        17.3300   60.8630  -23.0540 C.2   225  GLN225      0.2608
    108  OE1       17.3360   60.5130  -24.2200 O.2   225  GLN225     -0.2717
    109  NE2       17.9910   60.2250  -22.1220 N.am  225  GLN225     -0.0878
@<TRIPOS>BOND
     1    39    38    2
     2    37    40    1
     3    37    38    1
     4    37    36    1
     5    31    30    2
     6    40    41    1
     7    38    42   am
     8    30    29    1
     9    42    43    1
    10    35    33   ar
    11    43    46    1
    12    43    44    1
    13    33    32    1
    14    33    34   ar
    15    32    29    1
    16    46    47    1
    17    29    28    1
    18    44    45    2
    19    47    49   ar
    20    47    48   ar
    21    49    51   ar
    22    28    22   am
    23    23    22    2
    24    22    21    1
    25    18    17    2
    26    48    50   ar
    27    19    16    1
    28    51    52   ar
    29    13    12    1
    30    17    16    1
    31    17    20   am
    32    21    20    1
    33    21    24    1
    34    16    15    1
    35    15    10   am
    36    52    50   ar
    37    14    12    1
    38    12     9    1
    39    92    91    2
    40    24    25    1
    41     9    10    1
    42     9     8    1
    43    10    11    2
    44   100    99    2
    45     4     3    2
    46    91    90    1
    47    91    97   am
    48    99    98    1
    49    26    25   ar
    50    25    27   ar
    51    98    97    1
    52     8     3   am
    53    90    93    1
    54    90    89    1
    55     3     2    1
    56    85    84    2
    57    93    94    1
    58    73    72    1
    59    84    89   am
    60    84    83    1
    61    94    95   ar
    62    94    96   ar
    63     2     1    1
    64     2     5    1
    65     7     5    1
    66    74    72    1
    67    72    71    1
    68     5     6    1
    69    78    77    2
    70    83    86    1
    71    83    82    1
    72    71    68    1
    73    86    87    1
    74   108   107    2
    75    77    82   am
    76    77    76    1
    77    82    88    1
    78    80    79    1
    79    68    69    1
    80    68    67    1
    81    87    88    1
    82    75    69   am
    83    75    76    1
    84    69    70    2
    85   107   106    1
    86   107   109   am
    87    76    79    1
    88   103   104    2
    89   103   102    1
    90   105   106    1
    91   105   102    1
    92    79    81    1
    93   102   101    1
    94    66    64   ar
    95    66    65   ar
    96    64    62   ar
    97    65    63   ar
    98    62    61   ar
    99    62    60   ar
   100    63    60   ar
   101    61    59   ar
   102    60    58   ar
   103    59    58   ar
   104    58    57    1
   105    53    54    1
   106    54    57    1
   107    54    55    1
   108    55    56    2
