@<TRIPOS>MOLECULE
tmp/3orxD00.pdb
 111 104 0 0 0
SMALL
GASTEIGER

@<TRIPOS>ATOM
      1  N        -26.8180    6.8310   46.2040 N.3     1  LYS1       -0.1245
      2  CA       -26.0850    7.8010   47.0120 C.3     1  LYS1        0.1561
      3  C        -24.6980    7.3040   47.4040 C.2     1  LYS1        0.2260
      4  O        -24.4380    6.0970   47.4570 O.2     1  LYS1       -0.2867
      5  CB       -26.8790    8.1860   48.2630 C.3     1  LYS1        0.0271
      6  CG       -27.9120    9.2730   48.0290 C.3     1  LYS1        0.0035
      7  CD       -27.4990   10.5750   48.6860 C.3     1  LYS1        0.0206
      8  CE       -28.5190   11.6770   48.4360 C.3     1  LYS1        0.1093
      9  NZ       -28.1790   12.9380   49.1610 N.3     1  LYS1       -0.1314
     10  N        -21.1360   17.8930   62.2180 N.3    40  LYS40      -0.1245
     11  CA       -22.4830   18.3720   62.5170 C.3    40  LYS40       0.1561
     12  C        -22.5400   18.9500   63.9250 C.2    40  LYS40       0.2260
     13  O        -23.1030   20.0220   64.1480 O.2    40  LYS40      -0.2867
     14  CB       -23.5150   17.2510   62.3840 C.3    40  LYS40       0.0271
     15  CG       -23.3040   16.3200   61.2090 C.3    40  LYS40       0.0035
     16  CD       -24.5410   15.4730   60.9870 C.3    40  LYS40       0.0206
     17  CE       -24.2460   14.2630   60.1350 C.3    40  LYS40       0.1093
     18  NZ       -25.5140   13.5710   59.7900 N.3    40  LYS40      -0.1314
     19  N        -22.0560   22.4550   64.0690 N.3    43  ILE43      -0.1231
     20  CA       -23.1070   23.1740   63.3540 C.3    43  ILE43       0.1692
     21  C        -24.3930   23.1640   64.1730 C.2    43  ILE43       0.2591
     22  O        -25.0670   24.1930   64.3250 O.2    43  ILE43      -0.2718
     23  CB       -23.3810   22.5340   61.9810 C.3    43  ILE43       0.0266
     24  CG1      -22.1140   22.5550   61.1250 C.3    43  ILE43       0.0019
     25  CG2      -24.5260   23.2420   61.2730 C.3    43  ILE43       0.0020
     26  CD1      -22.0680   21.4480   60.0930 C.3    43  ILE43       0.0001
     27  N        -24.7250   21.9900   64.7000 N.am   44  ILE44      -0.1980
     28  CA       -25.8850   21.8380   65.5650 C.3    44  ILE44       0.1595
     29  C        -25.7470   22.7650   66.7720 C.2    44  ILE44       0.2287
     30  O        -26.6230   23.5930   67.0400 O.2    44  ILE44      -0.2864
     31  CB       -26.0300   20.3840   66.0570 C.3    44  ILE44       0.0276
     32  CG1      -25.8830   19.3950   64.8920 C.3    44  ILE44       0.0022
     33  CG2      -27.3610   20.1940   66.7640 C.3    44  ILE44       0.0022
     34  CD1      -26.9990   19.4650   63.8740 C.3    44  ILE44       0.0001
     35  N        -27.3090   25.7010   61.1380 N.3    49  VAL49      -0.1245
     36  CA       -27.7410   24.8510   60.0340 C.3    49  VAL49       0.1561
     37  C        -28.1670   25.6500   58.7950 C.2    49  VAL49       0.2260
     38  O        -27.7030   25.3650   57.6900 O.2    49  VAL49      -0.2867
     39  CB       -28.8340   23.8540   60.4810 C.3    49  VAL49       0.0252
     40  CG1      -29.5740   23.2670   59.2820 C.3    49  VAL49       0.0019
     41  CG2      -28.2140   22.7510   61.3330 C.3    49  VAL49       0.0019
     42  N        -25.2640   26.6750   56.7280 N.3    52  VAL52      -0.1231
     43  CA       -24.5890   25.6320   55.9790 C.3    52  VAL52       0.1692
     44  C        -25.3880   25.2860   54.7270 C.2    52  VAL52       0.2592
     45  O        -24.8190   25.0190   53.6690 O.2    52  VAL52      -0.2718
     46  CB       -24.3330   24.3790   56.8330 C.3    52  VAL52       0.0266
     47  CG1      -23.8310   23.2390   55.9630 C.3    52  VAL52       0.0020
     48  CG2      -23.3280   24.6930   57.9440 C.3    52  VAL52       0.0020
     49  N        -26.7100   25.3150   54.8380 N.am   53  THR53      -0.1953
     50  CA       -27.5400   25.0090   53.6830 C.3    53  THR53       0.1897
     51  C        -27.3770   26.1400   52.6820 C.2    53  THR53       0.2313
     52  O        -27.3410   25.9160   51.4760 O.2    53  THR53      -0.2863
     53  CB       -29.0400   24.8000   54.0490 C.3    53  THR53       0.1794
     54  OG1      -29.6450   26.0540   54.3810 O.3    53  THR53      -0.2208
     55  CG2      -29.1850   23.8380   55.2260 C.3    53  THR53       0.0378
     56  N        -24.3670   25.5220   50.6930 N.3    56  ARG56      -0.1245
     57  CA       -24.6410   24.4500   49.7370 C.3    56  ARG56       0.1563
     58  C        -25.4340   24.9460   48.5510 C.2    56  ARG56       0.2260
     59  O        -25.1240   24.6310   47.4060 O.2    56  ARG56      -0.2867
     60  CB       -25.3650   23.2840   50.4190 C.3    56  ARG56       0.0307
     61  CG       -25.4200   22.0080   49.5840 C.3    56  ARG56       0.0489
     62  CD       -26.8520   21.5400   49.3880 C.3    56  ARG56       0.2205
     63  NE       -27.4670   21.1510   50.6530 N.pl3  56  ARG56      -0.0865
     64  CZ       -28.7110   21.4570   51.0070 C.cat  56  ARG56       0.5346
     65  NH1      -29.1800   21.0600   52.1810 N.pl3  56  ARG56       0.1354
     66  NH2      -29.4850   22.1570   50.1880 N.pl3  56  ARG56       0.1354
     67  N        -23.3850   15.5960   47.4610 N.3    73  CYS73      -0.1221
     68  CA       -23.4580   15.7670   48.9300 C.3    73  CYS73       0.1808
     69  C        -23.9080   14.4800   49.5410 C.2    73  CYS73       0.2601
     70  O        -24.8710   13.8690   49.0270 O.2    73  CYS73      -0.2717
     71  CB       -24.4910   16.8170   49.2920 C.3    73  CYS73       0.0970
     72  SG       -24.6220   16.8970   51.0500 S.3    73  CYS73      -0.0800
     73  N        -23.2460   14.0380   50.6060 N.am   74  PHE74      -0.1962
     74  CA       -23.7490   12.9070   51.3730 C.3    74  PHE74       0.1771
     75  C        -23.4870   13.0920   52.8570 C.2    74  PHE74       0.2619
     76  O        -22.8090   14.0400   53.2670 O.2    74  PHE74      -0.2715
     77  CB       -23.1870   11.5780   50.8680 C.3    74  PHE74       0.0574
     78  CG       -21.6950   11.4590   50.9840 C.ar   74  PHE74      -0.0200
     79  CD1      -21.1050   11.0950   52.1820 C.ar   74  PHE74      -0.0042
     80  CD2      -20.8850   11.6850   49.8890 C.ar   74  PHE74      -0.0042
     81  CE1      -19.7340   10.9740   52.2880 C.ar   74  PHE74      -0.0003
     82  CE2      -19.5130   11.5590   49.9870 C.ar   74  PHE74      -0.0003
     83  CZ       -18.9370   11.2010   51.1870 C.ar   74  PHE74      -0.0000
     84  N        -24.0230   12.1750   53.6550 N.am   75  GLN75      -0.1977
     85  CA       -24.1200   12.3740   55.0930 C.3    75  GLN75       0.1601
     86  C        -23.6640   11.1590   55.8950 C.2    75  GLN75       0.2287
     87  O        -23.8040   10.0120   55.4620 O.2    75  GLN75      -0.2864
     88  CB       -25.5590   12.7400   55.4590 C.3    75  GLN75       0.0394
     89  CG       -25.6780   13.6110   56.6860 C.3    75  GLN75       0.0908
     90  CD       -27.0370   14.2570   56.7960 C.2    75  GLN75       0.2608
     91  OE1      -27.9630   13.6860   57.3740 O.2    75  GLN75      -0.2717
     92  NE2      -27.1690   15.4570   56.2370 N.am   75  GLN75      -0.0878
     93  N        -20.9250   15.9370   57.6810 N.3    80  LEU80      -0.1245
     94  CA       -21.5290   16.3000   56.4050 C.3    80  LEU80       0.1561
     95  C        -20.4350   16.4750   55.3450 C.2    80  LEU80       0.2260
     96  O        -19.3990   17.0850   55.6110 O.2    80  LEU80      -0.2867
     97  CB       -22.3320   17.5880   56.5450 C.3    80  LEU80       0.0270
     98  CG       -23.2100   17.8620   55.3310 C.3    80  LEU80       0.0019
     99  CD1      -24.4000   16.9220   55.3410 C.3    80  LEU80       0.0001
    100  CD2      -23.6520   19.3080   55.3360 C.3    80  LEU80       0.0001
    101  N        -19.3410   17.6330   51.3630 N.3    82  PHE82      -0.1241
    102  CA       -19.5640   18.2530   50.0580 C.3    82  PHE82       0.1605
    103  C        -18.4310   17.8960   49.1010 C.2    82  PHE82       0.2264
    104  O        -17.2630   18.1690   49.3800 O.2    82  PHE82      -0.2867
    105  CB       -19.6730   19.7600   50.1850 C.3    82  PHE82       0.0534
    106  CG       -20.7970   20.2140   51.0560 C.ar   82  PHE82      -0.0203
    107  CD1      -22.0270   19.5840   51.0050 C.ar   82  PHE82      -0.0042
    108  CD2      -20.6380   21.3000   51.9060 C.ar   82  PHE82      -0.0042
    109  CE1      -23.0800   20.0170   51.8120 C.ar   82  PHE82      -0.0003
    110  CE2      -21.6870   21.7420   52.7060 C.ar   82  PHE82      -0.0003
    111  CZ       -22.9070   21.0940   52.6590 C.ar   82  PHE82      -0.0000
@<TRIPOS>BOND
     1     1     2    1
     2     2     3    1
     3     2     5    1
     4     3     4    2
     5    59    58    2
     6    67    68    1
     7     6     5    1
     8     6     7    1
     9     8     7    1
    10     8     9    1
    11    58    57    1
    12    68    71    1
    13    68    69    1
    14    70    69    2
    15   103   104    2
    16   103   102    1
    17    71    72    1
    18    62    61    1
    19    62    63    1
    20    69    73   am
    21    61    60    1
    22    57    60    1
    23    57    56    1
    24    80    82   ar
    25    80    78   ar
    26    82    83   ar
    27   102   105    1
    28   102   101    1
    29   105   106    1
    30    66    64    1
    31    73    74    1
    32    63    64    2
    33    77    78    1
    34    77    74    1
    35    78    79   ar
    36   107   106   ar
    37   107   109   ar
    38    64    65    1
    39   106   108   ar
    40    83    81   ar
    41    74    75    1
    42    52    51    2
    43   109   111   ar
    44   108   110   ar
    45    79    81   ar
    46   111   110   ar
    47    51    50    1
    48    75    76    2
    49    75    84   am
    50    84    85    1
    51    45    44    2
    52    50    53    1
    53    50    49    1
    54    53    54    1
    55    53    55    1
    56    44    49   am
    57    44    43    1
    58    85    88    1
    59    85    86    1
    60    98   100    1
    61    98    99    1
    62    98    97    1
    63    95    96    2
    64    95    94    1
    65    88    89    1
    66    87    86    2
    67    47    46    1
    68    43    42    1
    69    43    46    1
    70    92    90   am
    71    94    97    1
    72    94    93    1
    73    89    90    1
    74    90    91    2
    75    46    48    1
    76    38    37    2
    77    37    36    1
    78    40    39    1
    79    18    17    1
    80    36    39    1
    81    36    35    1
    82    26    24    1
    83    17    16    1
    84    39    41    1
    85    16    15    1
    86    24    23    1
    87    15    14    1
    88    25    23    1
    89    23    20    1
    90    10    11    1
    91    14    11    1
    92    11    12    1
    93    20    19    1
    94    20    21    1
    95    34    32    1
    96    12    13    2
    97    21    22    2
    98    21    27   am
    99    27    28    1
   100    32    31    1
   101    28    31    1
   102    28    29    1
   103    31    33    1
   104    29    30    2
