@<TRIPOS>MOLECULE
tmp/3orzB00.pdb
 111 104 0 0 0
SMALL
GASTEIGER

@<TRIPOS>ATOM
      1  N         48.4070  -45.0970    0.7090 N.3     4  LYS4       -0.1245
      2  CA        48.6040  -44.1550   -0.3800 C.3     4  LYS4        0.1561
      3  C         48.4500  -44.8770   -1.7110 C.2     4  LYS4        0.2260
      4  O         48.7990  -46.0560   -1.8360 O.2     4  LYS4       -0.2867
      5  CB        49.9960  -43.5250   -0.2950 C.3     4  LYS4        0.0271
      6  CG        50.1320  -42.3960    0.7200 C.3     4  LYS4        0.0035
      7  CD        49.7740  -41.0510    0.0970 C.3     4  LYS4        0.0206
      8  CE        50.1540  -39.8910    1.0100 C.3     4  LYS4        0.1093
      9  NZ        49.7760  -38.5710    0.4190 N.3     4  LYS4       -0.1314
     10  N         61.5620  -34.9500   -8.8540 N.3    43  LYS43      -0.1245
     11  CA        62.1030  -34.4090   -7.6070 C.3    43  LYS43       0.1561
     12  C         63.4640  -33.7270   -7.7940 C.2    43  LYS43       0.2260
     13  O         63.6560  -32.5770   -7.3910 O.2    43  LYS43      -0.2867
     14  CB        62.1770  -35.4990   -6.5330 C.3    43  LYS43       0.0271
     15  CG        60.8260  -35.8350   -5.8900 C.3    43  LYS43       0.0035
     16  CD        60.9690  -36.9380   -4.8600 C.3    43  LYS43       0.0206
     17  CE        59.7630  -37.0140   -3.9370 C.3    43  LYS43       0.1093
     18  NZ        59.8030  -38.2480   -3.1050 N.3    43  LYS43      -0.1314
     19  N         63.2520  -30.3500   -9.5730 N.3    46  ILE46      -0.1231
     20  CA        62.6780  -29.3580   -8.6970 C.3    46  ILE46       0.1692
     21  C         63.5820  -28.8960   -7.5620 C.2    46  ILE46       0.2591
     22  O         63.6720  -27.7290   -7.3290 O.2    46  ILE46      -0.2718
     23  CB        61.3730  -29.8260   -8.1080 C.3    46  ILE46       0.0266
     24  CG1       60.3860  -30.1490   -9.2050 C.3    46  ILE46       0.0019
     25  CG2       60.8130  -28.7950   -7.2090 C.3    46  ILE46       0.0020
     26  CD1       59.0380  -30.3660   -8.7180 C.3    46  ILE46       0.0001
     27  N         64.2340  -29.8320   -6.8790 N.am   47  ILE47      -0.1980
     28  CA        65.1390  -29.4520   -5.8130 C.3    47  ILE47       0.1595
     29  C         66.3230  -28.7170   -6.3950 C.2    47  ILE47       0.2287
     30  O         66.6650  -27.6650   -5.9420 O.2    47  ILE47      -0.2864
     31  CB        65.6170  -30.5910   -4.9150 C.3    47  ILE47       0.0276
     32  CG1       66.2700  -31.6910   -5.6920 C.3    47  ILE47       0.0022
     33  CG2       64.5220  -31.1930   -4.1550 C.3    47  ILE47       0.0022
     34  CD1       67.2910  -32.3880   -4.9380 C.3    47  ILE47       0.0001
     35  N         60.7690  -25.8090   -5.0070 N.3    52  VAL52      -0.1245
     36  CA        59.9190  -26.5730   -4.1600 C.3    52  VAL52       0.1561
     37  C         58.7470  -25.7530   -3.5850 C.2    52  VAL52       0.2260
     38  O         57.6340  -26.2090   -3.6240 O.2    52  VAL52      -0.2867
     39  CB        60.6640  -27.0960   -2.9510 C.3    52  VAL52       0.0252
     40  CG1       59.6950  -27.7490   -2.0300 C.3    52  VAL52       0.0019
     41  CG2       61.7560  -28.0290   -3.3780 C.3    52  VAL52       0.0019
     42  N         55.8700  -26.2350   -5.2620 N.3    55  VAL55      -0.1231
     43  CA        55.2990  -27.5740   -5.1400 C.3    55  VAL55       0.1692
     44  C         54.3600  -27.7190   -3.9440 C.2    55  VAL55       0.2592
     45  O         53.2700  -28.2780   -4.0660 O.2    55  VAL55      -0.2718
     46  CB        56.4020  -28.6470   -5.0770 C.3    55  VAL55       0.0266
     47  CG1       55.8390  -29.9670   -4.5880 C.3    55  VAL55       0.0020
     48  CG2       57.0500  -28.8040   -6.4460 C.3    55  VAL55       0.0020
     49  N         54.7800  -27.2140   -2.7910 N.am   56  THR56      -0.1953
     50  CA        53.9370  -27.2660   -1.6020 C.3    56  THR56       0.1897
     51  C         52.7790  -26.2590   -1.6850 C.2    56  THR56       0.2313
     52  O         51.6550  -26.5800   -1.3110 O.2    56  THR56      -0.2863
     53  CB        54.7520  -27.0460   -0.3280 C.3    56  THR56       0.1794
     54  OG1       55.3160  -25.7310   -0.3540 O.3    56  THR56      -0.2208
     55  CG2       55.8770  -28.0790   -0.2340 C.3    56  THR56       0.0378
     56  N         50.3070  -27.8800   -3.8190 N.3    59  ARG59      -0.1245
     57  CA        49.5860  -28.9250   -3.0970 C.3    59  ARG59       0.1563
     58  C         48.6390  -28.3210   -2.0590 C.2    59  ARG59       0.2260
     59  O         47.4750  -28.7040   -1.9810 O.2    59  ARG59      -0.2867
     60  CB        50.5440  -29.9260   -2.4430 C.3    59  ARG59       0.0307
     61  CG        50.0010  -31.3510   -2.4270 C.3    59  ARG59       0.0489
     62  CD        50.5210  -32.1590   -1.2500 C.3    59  ARG59       0.2205
     63  NE        49.7920  -31.8380   -0.0310 N.pl3  59  ARG59      -0.0865
     64  CZ        50.2200  -30.9930    0.9030 C.cat  59  ARG59       0.5346
     65  NH1       51.3990  -30.3850    0.7770 N.pl3  59  ARG59       0.1354
     66  NH2       49.4670  -30.7650    1.9730 N.pl3  59  ARG59       0.1354
     67  N         47.6870  -37.4790   -3.4590 N.3    76  CYS76      -0.1221
     68  CA        49.0900  -37.2200   -3.6820 C.3    76  CYS76       0.1808
     69  C         49.7950  -38.4820   -3.2850 C.2    76  CYS76       0.2601
     70  O         49.4370  -39.0960   -2.2590 O.2    76  CYS76      -0.2717
     71  CB        49.5640  -36.0750   -2.7830 C.3    76  CYS76       0.0970
     72  SG        51.2660  -35.7010   -3.1020 S.3    76  CYS76      -0.0800
     73  N         50.7700  -38.9070   -4.0730 N.am   77  PHE77      -0.1962
     74  CA        51.6620  -39.9750   -3.6430 C.3    77  PHE77       0.1771
     75  C         53.0140  -39.7590   -4.3020 C.2    77  PHE77       0.2619
     76  O         53.1530  -38.9070   -5.1830 O.2    77  PHE77      -0.2715
     77  CB        51.0850  -41.3660   -3.9370 C.3    77  PHE77       0.0574
     78  CG        50.8320  -41.6290   -5.3960 C.ar   77  PHE77      -0.0200
     79  CD1       51.8450  -42.1000   -6.2150 C.ar   77  PHE77      -0.0042
     80  CD2       49.5760  -41.4190   -5.9430 C.ar   77  PHE77      -0.0042
     81  CE1       51.6110  -42.3420   -7.5590 C.ar   77  PHE77      -0.0003
     82  CE2       49.3370  -41.6560   -7.2860 C.ar   77  PHE77      -0.0003
     83  CZ        50.3580  -42.1190   -8.0950 C.ar   77  PHE77      -0.0000
     84  N         54.0180  -40.5140   -3.8710 N.am   78  GLN78      -0.1977
     85  CA        55.3700  -40.2530   -4.3360 C.3    78  GLN78       0.1601
     86  C         56.2100  -41.5140   -4.4070 C.2    78  GLN78       0.2287
     87  O         55.9020  -42.5130   -3.7660 O.2    78  GLN78      -0.2864
     88  CB        56.0530  -39.2220   -3.4250 C.3    78  GLN78       0.0394
     89  CG        55.9810  -39.5690   -1.9430 C.3    78  GLN78       0.0908
     90  CD        56.6960  -38.5560   -1.0520 C.2    78  GLN78       0.2608
     91  OE1       57.7240  -37.9870   -1.4310 O.2    78  GLN78      -0.2717
     92  NE2       56.1570  -38.3390    0.1440 N.am   78  GLN78      -0.0878
     93  N         56.9110  -37.0110   -7.7710 N.3    83  LEU83      -0.1245
     94  CA        55.7390  -36.6410   -6.9890 C.3    83  LEU83       0.1561
     95  C         54.5290  -36.7010   -7.9160 C.2    83  LEU83       0.2260
     96  O         54.5980  -36.2260   -9.0530 O.2    83  LEU83      -0.2867
     97  CB        55.8870  -35.2100   -6.4740 C.3    83  LEU83       0.0270
     98  CG        55.9140  -34.9150   -4.9770 C.3    83  LEU83       0.0019
     99  CD1       56.1000  -33.4190   -4.7740 C.3    83  LEU83       0.0001
    100  CD2       54.6450  -35.3780   -4.3010 C.3    83  LEU83       0.0001
    101  N         50.4900  -35.6880   -8.3000 N.3    85  PHE85      -0.1241
    102  CA        49.2640  -35.0220   -7.8560 C.3    85  PHE85       0.1605
    103  C         48.0790  -35.5270   -8.6860 C.2    85  PHE85       0.2264
    104  O         48.0790  -35.3790   -9.9070 O.2    85  PHE85      -0.2867
    105  CB        49.3600  -33.5040   -8.0470 C.3    85  PHE85       0.0534
    106  CG        50.3590  -32.8260   -7.1540 C.ar   85  PHE85      -0.0203
    107  CD1       50.8090  -33.4340   -5.9930 C.ar   85  PHE85      -0.0042
    108  CD2       50.8260  -31.5590   -7.4650 C.ar   85  PHE85      -0.0042
    109  CE1       51.7190  -32.8000   -5.1650 C.ar   85  PHE85      -0.0003
    110  CE2       51.7360  -30.9200   -6.6410 C.ar   85  PHE85      -0.0003
    111  CZ        52.1830  -31.5430   -5.4870 C.ar   85  PHE85      -0.0000
@<TRIPOS>BOND
     1   104   103    2
     2    19    20    1
     3    24    26    1
     4    24    23    1
     5    96    95    2
     6    10    11    1
     7    20    23    1
     8    20    21    1
     9   103   102    1
    10   101   102    1
    11    23    25    1
    12    83    81   ar
    13    83    82   ar
    14   105   102    1
    15   105   106    1
    16    95    94    1
    17    12    11    1
    18    12    13    2
    19    93    94    1
    20    11    14    1
    21    21    22    2
    22    21    27   am
    23    81    79   ar
    24   108   106   ar
    25   108   110   ar
    26    82    80   ar
    27   106   107   ar
    28    94    97    1
    29    27    28    1
    30   110   111   ar
    31    14    15    1
    32    97    98    1
    33    48    46    1
    34    29    30    2
    35    29    28    1
    36    79    78   ar
    37   107   109   ar
    38    80    78   ar
    39    15    16    1
    40    28    31    1
    41    32    34    1
    42    32    31    1
    43   111   109   ar
    44    78    77    1
    45    42    43    1
    46    76    75    2
    47    43    46    1
    48    43    44    1
    49    46    47    1
    50    35    36    1
    51    98    99    1
    52    98   100    1
    53    31    33    1
    54    16    17    1
    55    86    85    1
    56    86    87    2
    57    85    84    1
    58    85    88    1
    59    75    84   am
    60    75    74    1
    61    36    37    1
    62    36    39    1
    63    73    74    1
    64    73    69   am
    65    45    44    2
    66    44    49   am
    67    77    74    1
    68    17    18    1
    69    56    57    1
    70    68    67    1
    71    68    69    1
    72    68    71    1
    73    38    37    2
    74    88    89    1
    75    41    39    1
    76    69    70    2
    77    72    71    1
    78    57    60    1
    79    57    58    1
    80    39    40    1
    81    49    50    1
    82    60    61    1
    83    61    62    1
    84    58    59    2
    85    89    90    1
    86     4     3    2
    87     3     2    1
    88    51    50    1
    89    51    52    2
    90    50    53    1
    91    91    90    2
    92    62    63    1
    93    90    92   am
    94     2     5    1
    95     2     1    1
    96    54    53    1
    97    53    55    1
    98     5     6    1
    99    63    64    2
   100     7     6    1
   101     7     8    1
   102     9     8    1
   103    65    64    1
   104    64    66    1
