@<TRIPOS>MOLECULE
tmp/3orzB01.pdb
 160 148 0 0 0
SMALL
GASTEIGER

@<TRIPOS>ATOM
      1  N         49.1360  -35.1300  -21.6310 N.3    16  LEU16      -0.1231
      2  CA        48.3020  -33.9910  -21.9760 C.3    16  LEU16       0.1693
      3  C         49.1780  -32.7900  -22.3210 C.2    16  LEU16       0.2593
      4  O         48.8920  -32.0400  -23.2540 O.2    16  LEU16      -0.2718
      5  CB        47.3240  -33.6800  -20.8380 C.3    16  LEU16       0.0284
      6  CG        46.3040  -34.7990  -20.5990 C.3    16  LEU16       0.0019
      7  CD1       45.5190  -34.5920  -19.3060 C.3    16  LEU16       0.0001
      8  CD2       45.3610  -34.9380  -21.7850 C.3    16  LEU16       0.0001
      9  N         50.2560  -32.6210  -21.5710 N.am   17  GLY17      -0.1942
     10  CA        51.2050  -31.5630  -21.8510 C.3    17  GLY17       0.2014
     11  C         52.3790  -31.6200  -20.9060 C.2    17  GLY17       0.2639
     12  O         52.3140  -32.2580  -19.8500 O.2    17  GLY17      -0.2714
     13  N         53.4610  -30.9520  -21.2920 N.am   18  GLU18      -0.1963
     14  CA        54.6560  -30.8940  -20.4690 C.3    18  GLU18       0.1733
     15  C         55.0460  -29.4640  -20.1630 C.2    18  GLU18       0.2616
     16  O         54.9900  -28.5910  -21.0320 O.2    18  GLU18      -0.2715
     17  CB        55.8250  -31.5930  -21.1630 C.3    18  GLU18       0.0429
     18  CG        55.8050  -33.1020  -21.0440 C.3    18  GLU18       0.1163
     19  CD        56.9350  -33.7560  -21.8130 C.2    18  GLU18       0.3649
     20  OE1       58.1150  -33.4970  -21.4850 O.co2  18  GLU18      -0.2457
     21  OE2       56.6400  -34.5300  -22.7470 O.co2  18  GLU18      -0.2457
     22  N         55.4480  -29.2400  -18.9190 N.am   19  GLY19      -0.1955
     23  CA        55.9870  -27.9640  -18.4990 C.3    19  GLY19       0.1869
     24  C         57.4510  -28.1250  -18.1390 C.2    19  GLY19       0.2309
     25  O         58.0400  -29.1940  -18.3350 O.2    19  GLY19      -0.2863
     26  N         57.3150  -30.5240  -14.9180 N.3    22  SER22      -0.1217
     27  CA        56.2740  -31.5250  -14.7610 C.3    22  SER22       0.1889
     28  C         55.7210  -32.0250  -16.0740 C.2    22  SER22       0.2288
     29  O         55.8150  -31.3590  -17.1100 O.2    22  SER22      -0.2866
     30  CB        55.1160  -30.9510  -13.9450 C.3    22  SER22       0.2089
     31  OG        54.3610  -30.0500  -14.7330 O.3    22  SER22      -0.2183
     32  N         51.9030  -33.5660  -17.2240 N.3    24  VAL24      -0.1245
     33  CA        50.5300  -33.8850  -16.8610 C.3    24  VAL24       0.1561
     34  C         50.0310  -34.9940  -17.7880 C.2    24  VAL24       0.2260
     35  O         50.0720  -34.8630  -19.0170 O.2    24  VAL24      -0.2867
     36  CB        49.5960  -32.6710  -16.9740 C.3    24  VAL24       0.0252
     37  CG1       48.1990  -33.0500  -16.5170 C.3    24  VAL24       0.0019
     38  CG2       50.1210  -31.5040  -16.1450 C.3    24  VAL24       0.0019
     39  N         43.6750  -36.3310  -14.2420 N.3    37  ALA37      -0.1245
     40  CA        44.8650  -35.7060  -14.7850 C.3    37  ALA37       0.1562
     41  C         45.9020  -35.8220  -13.6980 C.2    37  ALA37       0.2260
     42  O         45.7740  -35.1900  -12.6550 O.2    37  ALA37      -0.2867
     43  CB        44.6070  -34.2370  -15.1100 C.3    37  ALA37       0.0290
     44  N         49.4850  -34.9240  -12.4720 N.3    39  LYS39      -0.1245
     45  CA        50.6690  -34.1090  -12.6650 C.3    39  LYS39       0.1561
     46  C         51.8570  -34.7900  -12.0050 C.2    39  LYS39       0.2260
     47  O         51.8640  -35.0200  -10.7900 O.2    39  LYS39      -0.2867
     48  CB        50.4550  -32.7150  -12.0810 C.3    39  LYS39       0.0271
     49  CG        51.6610  -31.8170  -12.1690 C.3    39  LYS39       0.0035
     50  CD        51.2770  -30.3700  -11.9050 C.3    39  LYS39       0.0206
     51  CE        52.4990  -29.4680  -11.8540 C.3    39  LYS39       0.1093
     52  NZ        52.1160  -28.0370  -11.9410 N.3    39  LYS39      -0.1314
     53  N         51.3990  -25.3640   -4.3840 N.3    58  GLU58      -0.1245
     54  CA        50.4920  -25.9880   -5.3240 C.3    58  GLU58       0.1567
     55  C         49.6510  -27.0190   -4.5930 C.2    58  GLU58       0.2260
     56  O         48.4270  -27.0300   -4.7270 O.2    58  GLU58      -0.2867
     57  CB        51.2350  -26.6280   -6.5040 C.3    58  GLU58       0.0388
     58  CG        50.2820  -27.1940   -7.5540 C.3    58  GLU58       0.1160
     59  CD        50.9630  -27.5660   -8.8600 C.2    58  GLU58       0.3649
     60  OE1       52.0820  -28.1010   -8.8190 O.co2  58  GLU58      -0.2457
     61  OE2       50.3610  -27.3320   -9.9320 O.co2  58  GLU58      -0.2457
     62  N         45.5200  -26.1070   -3.8920 N.3    62  MET62      -0.1245
     63  CA        44.5470  -26.9680   -4.5580 C.3    62  MET62       0.1570
     64  C         43.7470  -27.8090   -3.5600 C.2    62  MET62       0.2261
     65  O         42.6130  -28.1910   -3.8320 O.2    62  MET62      -0.2867
     66  CB        45.2260  -27.8570   -5.6000 C.3    62  MET62       0.0387
     67  CG        45.9660  -27.0730   -6.6750 C.3    62  MET62       0.0595
     68  SD        46.3090  -28.0270   -8.1810 S.3    62  MET62      -0.1393
     69  CE        44.7000  -27.9980   -8.9590 C.3    62  MET62       0.0692
     70  N         39.8660  -26.7520  -10.7180 N.3    71  VAL71      -0.1245
     71  CA        40.4120  -28.1010  -10.6820 C.3    71  VAL71       0.1561
     72  C         40.5930  -28.4700   -9.2120 C.2    71  VAL71       0.2260
     73  O         40.9170  -27.6060   -8.3810 O.2    71  VAL71      -0.2867
     74  CB        41.7610  -28.2100  -11.4550 C.3    71  VAL71       0.0252
     75  CG1       42.4870  -29.5010  -11.0960 C.3    71  VAL71       0.0019
     76  CG2       41.5090  -28.1510  -12.9740 C.3    71  VAL71       0.0019
     77  N         44.5820  -34.9660  -10.0950 N.3    87  LEU87      -0.1231
     78  CA        43.7490  -33.7830  -10.3510 C.3    87  LEU87       0.1693
     79  C         42.5050  -34.0900  -11.1800 C.2    87  LEU87       0.2593
     80  O         42.4860  -35.0460  -11.9570 O.2    87  LEU87      -0.2718
     81  CB        44.5630  -32.7060  -11.0830 C.3    87  LEU87       0.0284
     82  CG        45.9330  -32.3270  -10.5180 C.3    87  LEU87       0.0019
     83  CD1       46.6150  -31.2640  -11.3950 C.3    87  LEU87       0.0001
     84  CD2       45.8320  -31.8530   -9.0680 C.3    87  LEU87       0.0001
     85  N         41.4730  -33.2620  -11.0220 N.am   88  SER88      -0.1938
     86  CA        40.3240  -33.3050  -11.9210 C.3    88  SER88       0.2055
     87  C         40.8160  -33.2680  -13.3500 C.2    88  SER88       0.2643
     88  O         41.7320  -32.5170  -13.6740 O.2    88  SER88      -0.2714
     89  CB        39.4050  -32.0920  -11.7110 C.3    88  SER88       0.2130
     90  OG        39.4010  -31.6510  -10.3700 O.3    88  SER88      -0.2179
     91  N         40.1950  -34.0610  -14.2140 N.am   89  TYR89      -0.1959
     92  CA        40.5360  -34.0550  -15.6280 C.3    89  TYR89       0.1771
     93  C         39.5380  -33.1620  -16.3390 C.2    89  TYR89       0.2619
     94  O         38.3360  -33.3760  -16.2330 O.2    89  TYR89      -0.2715
     95  CB        40.4730  -35.4790  -16.1910 C.3    89  TYR89       0.0574
     96  CG        40.5700  -35.6160  -17.7050 C.ar   89  TYR89      -0.0198
     97  CD1       41.4710  -34.8660  -18.4410 C.ar   89  TYR89      -0.0009
     98  CD2       39.7830  -36.5380  -18.3840 C.ar   89  TYR89      -0.0009
     99  CE1       41.5630  -35.0070  -19.8160 C.ar   89  TYR89       0.0417
    100  CE2       39.8670  -36.6900  -19.7580 C.ar   89  TYR89       0.0417
    101  CZ        40.7640  -35.9270  -20.4690 C.ar   89  TYR89       0.1957
    102  OH        40.8600  -36.0730  -21.8410 O.3    89  TYR89      -0.2866
    103  N         40.0260  -32.1510  -17.0470 N.am   90  ALA90      -0.1977
    104  CA        39.1410  -31.2940  -17.8310 C.3    90  ALA90       0.1597
    105  C         39.2140  -31.7130  -19.3010 C.2    90  ALA90       0.2287
    106  O         40.1200  -31.3150  -20.0420 O.2    90  ALA90      -0.2864
    107  CB        39.5140  -29.8120  -17.6580 C.3    90  ALA90       0.0319
    108  N         40.0280  -29.4400  -22.4780 N.3    93  GLY93      -0.1210
    109  CA        41.2920  -28.7440  -22.6010 C.3    93  GLY93       0.1956
    110  C         41.2050  -27.2650  -22.2690 C.2    93  GLY93       0.2611
    111  O         40.3640  -26.8430  -21.4720 O.2    93  GLY93      -0.2717
    112  N         42.0720  -26.4780  -22.8980 N.am   94  GLU94      -0.1979
    113  CA        42.2700  -25.0870  -22.5120 C.3    94  GLU94       0.1602
    114  C         41.3870  -24.1020  -23.2700 C.2    94  GLU94       0.2287
    115  O         41.0660  -24.3070  -24.4470 O.2    94  GLU94      -0.2864
    116  CB        43.7400  -24.6990  -22.6960 C.3    94  GLU94       0.0415
    117  CG        44.7210  -25.5600  -21.9010 C.3    94  GLU94       0.1163
    118  CD        46.1670  -25.3350  -22.3190 C.2    94  GLU94       0.3649
    119  OE1       46.4170  -24.4810  -23.2020 O.co2  94  GLU94      -0.2457
    120  OE2       47.0550  -26.0070  -21.7530 O.co2  94  GLU94      -0.2457
    121  N         45.3630  -20.2570  -21.0260 N.3   137  GLU137     -0.1231
    122  CA        46.0740  -21.5220  -20.9120 C.3   137  GLU137      0.1699
    123  C         45.7160  -22.2310  -19.5950 C.2   137  GLU137      0.2592
    124  O         45.7740  -23.4570  -19.5110 O.2   137  GLU137     -0.2718
    125  CB        47.5790  -21.2540  -21.0050 C.3   137  GLU137      0.0402
    126  CG        48.4830  -22.4690  -20.9430 C.3   137  GLU137      0.1161
    127  CD        49.9550  -22.0600  -20.8980 C.2   137  GLU137      0.3649
    128  OE1       50.4710  -21.5850  -21.9310 O.co2 137  GLU137     -0.2457
    129  OE2       50.5860  -22.1810  -19.8260 O.co2 137  GLU137     -0.2457
    130  N         45.3230  -21.4370  -18.5940 N.am  138  ASN138     -0.1974
    131  CA        45.0580  -21.8820  -17.2180 C.3   138  ASN138      0.1688
    132  C         43.5820  -22.0580  -16.8860 C.2   138  ASN138      0.2292
    133  O         43.2190  -22.4630  -15.7860 O.2   138  ASN138     -0.2864
    134  CB        45.6120  -20.8390  -16.2390 C.3   138  ASN138      0.1181
    135  CG        47.0890  -20.9480  -16.0730 C.2   138  ASN138      0.2629
    136  OD1       47.7270  -21.8400  -16.6480 O.2   138  ASN138     -0.2716
    137  ND2       47.6560  -20.0620  -15.2770 N.am  138  ASN138     -0.0877
    138  N         40.5890  -24.1280  -17.9050 N.3   140  LEU140     -0.1245
    139  CA        40.2340  -25.3290  -18.6470 C.3   140  LEU140      0.1561
    140  C         38.7250  -25.4330  -18.8330 C.2   140  LEU140      0.2260
    141  O         37.9610  -24.7120  -18.1830 O.2   140  LEU140     -0.2867
    142  CB        40.7490  -26.5680  -17.9160 C.3   140  LEU140      0.0270
    143  CG        42.1850  -26.4280  -17.4110 C.3   140  LEU140      0.0019
    144  CD1       42.6740  -27.7310  -16.7890 C.3   140  LEU140      0.0001
    145  CD2       43.1140  -25.9730  -18.5410 C.3   140  LEU140      0.0001
    146  N         43.0040  -23.8170  -13.1380 N.3   150  THR150     -0.1203
    147  CA        44.0650  -24.6460  -12.5860 C.3   150  THR150      0.1994
    148  C         45.3520  -23.8130  -12.4920 C.2   150  THR150      0.2617
    149  O         45.3010  -22.5890  -12.6370 O.2   150  THR150     -0.2717
    150  CB        44.3110  -25.8760  -13.4780 C.3   150  THR150      0.1784
    151  OG1       45.2040  -26.7800  -12.8200 O.3   150  THR150     -0.2211
    152  CG2       44.9350  -25.4420  -14.8050 C.3   150  THR150      0.0376
    153  N         46.4820  -24.4760  -12.2270 N.am  151  ASP151     -0.1973
    154  CA        47.8120  -23.8440  -12.2620 C.3   151  ASP151      0.1709
    155  C         48.0550  -22.9310  -11.0520 C.2   151  ASP151      0.2293
    156  O         48.1250  -21.7060  -11.1930 O.2   151  ASP151     -0.2864
    157  CB        47.9870  -23.0600  -13.5730 C.3   151  ASP151      0.1436
    158  CG        49.4510  -22.6970  -13.8720 C.2   151  ASP151      0.3671
    159  OD1       50.3670  -23.0990  -13.1220 O.co2 151  ASP151     -0.2456
    160  OD2       49.6760  -22.0020  -14.8850 O.co2 151  ASP151     -0.2456
@<TRIPOS>BOND
     1   115   114    2
     2   114   113    1
     3     4     3    2
     4   119   118   ar
     5   112   113    1
     6   112   110   am
     7    21    19   ar
     8   116   113    1
     9   116   117    1
    10   109   108    1
    11   109   110    1
    12     3     2    1
    13     3     9   am
    14   118   117    1
    15   118   120   ar
    16   110   111    2
    17     2     1    1
    18     2     5    1
    19   128   127   ar
    20    10     9    1
    21    10    11    1
    22   102   101    1
    23    19    20   ar
    24    19    18    1
    25     8     6    1
    26    13    11   am
    27    13    14    1
    28    17    18    1
    29    17    14    1
    30    16    15    2
    31   121   122    1
    32   125   126    1
    33   125   122    1
    34   126   127    1
    35   122   123    1
    36    11    12    2
    37   127   129   ar
    38     5     6    1
    39     6     7    1
    40    14    15    1
    41   101    99   ar
    42   101   100   ar
    43    15    22   am
    44   106   105    2
    45    99    97   ar
    46   100    98   ar
    47   123   124    2
    48   123   130   am
    49   105   104    1
    50    35    34    2
    51    22    23    1
    52   140   139    1
    53   140   141    2
    54   139   142    1
    55   139   138    1
    56   130   131    1
    57   145   143    1
    58    23    24    1
    59    97    96   ar
    60    98    96   ar
    61    25    24    2
    62   142   143    1
    63   104   107    1
    64   104   103    1
    65    34    33    1
    66    96    95    1
    67   143   144    1
    68    32    33    1
    69   131   132    1
    70   131   134    1
    71    29    28    2
    72   103    93   am
    73    36    33    1
    74    36    37    1
    75    36    38    1
    76   132   133    2
    77   136   135    2
    78    93    94    2
    79    93    92    1
    80   134   135    1
    81    95    92    1
    82    28    27    1
    83   135   137   am
    84    92    91    1
    85    43    40    1
    86    26    27    1
    87   160   158   ar
    88   152   150    1
    89    40    39    1
    90    40    41    1
    91    27    30    1
    92    31    30    1
    93    91    87   am
    94   158   157    1
    95   158   159   ar
    96    41    42    2
    97    88    87    2
    98   157   154    1
    99   150   151    1
   100   150   147    1
   101    87    86    1
   102   146   147    1
   103    76    74    1
   104    45    44    1
   105    45    48    1
   106    45    46    1
   107   149   148    2
   108   147   148    1
   109   148   153   am
   110   154   153    1
   111   154   155    1
   112    49    48    1
   113    49    50    1
   114    46    47    2
   115    80    79    2
   116    52    51    1
   117    86    89    1
   118    86    85    1
   119    50    51    1
   120    89    90    1
   121    74    75    1
   122    74    71    1
   123    83    82    1
   124   156   155    2
   125    79    85   am
   126    79    78    1
   127    81    82    1
   128    81    78    1
   129    70    71    1
   130    71    72    1
   131    82    84    1
   132    78    77    1
   133    61    59   ar
   134    72    73    2
   135    69    68    1
   136    59    60   ar
   137    59    58    1
   138    68    67    1
   139    58    57    1
   140    67    66    1
   141    57    54    1
   142    66    63    1
   143    54    55    1
   144    54    53    1
   145    56    55    2
   146    63    62    1
   147    63    64    1
   148    65    64    2
