@<TRIPOS>MOLECULE
tmp/3os3A01.pdb
 211 196 0 0 0
SMALL
GASTEIGER

@<TRIPOS>ATOM
      1  N         19.5510   46.7520   -6.3910 N.3    16  GLY16      -0.1210
      2  CA        19.4830   46.3390   -5.0030 C.3    16  GLY16       0.1956
      3  C         20.1350   44.9910   -4.8140 C.2    16  GLY16       0.2611
      4  O         21.0400   44.6350   -5.5620 O.2    16  GLY16      -0.2717
      5  N         19.6950   44.2370   -3.8160 N.am   17  ASN17      -0.1974
      6  CA        20.2670   42.9180   -3.5890 C.3    17  ASN17       0.1688
      7  C         19.6540   41.8480   -4.4680 C.2    17  ASN17       0.2292
      8  O         18.5360   41.4100   -4.2460 O.2    17  ASN17      -0.2864
      9  CB        20.1140   42.5220   -2.1340 C.3    17  ASN17       0.1181
     10  CG        21.3550   42.7980   -1.3470 C.2    17  ASN17       0.2629
     11  OD1       22.4080   42.2140   -1.6210 O.2    17  ASN17      -0.2716
     12  ND2       21.2590   43.7020   -0.3700 N.am   17  ASN17      -0.0877
     13  N         18.2910   42.0260   -7.1260 N.3    19  GLY19      -0.1225
     14  CA        17.4120   42.6020   -8.1210 C.3    19  GLY19       0.1811
     15  C         17.9900   43.8000   -8.8690 C.2    19  GLY19       0.2280
     16  O         19.0460   44.3320   -8.5230 O.2    19  GLY19      -0.2866
     17  N         11.5260   43.9570  -13.4890 N.3    36  LYS36      -0.1245
     18  CA        12.4440   43.5350  -12.4510 C.3    36  LYS36       0.1561
     19  C         13.1560   42.2590  -12.8960 C.2    36  LYS36       0.2260
     20  O         12.5690   41.4030  -13.5530 O.2    36  LYS36      -0.2867
     21  CB        11.7150   43.2750  -11.1380 C.3    36  LYS36       0.0271
     22  CG        12.5730   42.5140  -10.1360 C.3    36  LYS36       0.0035
     23  CD        12.0470   42.6160   -8.7050 C.3    36  LYS36       0.0206
     24  CE        12.4500   43.9280   -8.0330 C.3    36  LYS36       0.1093
     25  NZ        11.9170   44.0100   -6.6570 N.3    36  LYS36      -0.1314
     26  N         15.3560   39.4720  -10.9850 N.3    38  ILE38      -0.1245
     27  CA        15.9970   38.9490   -9.7880 C.3    38  ILE38       0.1561
     28  C         16.9630   37.9210  -10.3630 C.2    38  ILE38       0.2260
     29  O         16.7420   37.4210  -11.4540 O.2    38  ILE38      -0.2867
     30  CB        14.9940   38.2600   -8.8670 C.3    38  ILE38       0.0252
     31  CG1       13.8410   39.1980   -8.5480 C.3    38  ILE38       0.0019
     32  CG2       15.6600   37.8800   -7.5770 C.3    38  ILE38       0.0019
     33  CD1       12.7570   38.5500   -7.7610 C.3    38  ILE38       0.0001
     34  N          4.4690   32.6260   -8.7100 N.3    54  LEU54      -0.1245
     35  CA         4.4730   34.0430   -9.0710 C.3    54  LEU54       0.1561
     36  C          3.2810   34.4280   -9.9280 C.2    54  LEU54       0.2260
     37  O          3.0520   35.6030  -10.2070 O.2    54  LEU54      -0.2867
     38  CB         5.7650   34.4090   -9.8140 C.3    54  LEU54       0.0270
     39  CG         6.9510   34.7430   -8.9320 C.3    54  LEU54       0.0019
     40  CD1        8.0770   35.2790   -9.7680 C.3    54  LEU54       0.0001
     41  CD2        6.5250   35.7650   -7.9130 C.3    54  LEU54       0.0001
     42  N          0.1000   36.6490   -8.7400 N.3    57  LEU57      -0.1245
     43  CA         0.0900   38.0920   -8.9430 C.3    57  LEU57       0.1561
     44  C         -0.8800   38.5710   -9.9990 C.2    57  LEU57       0.2260
     45  O         -1.0490   39.7660  -10.1780 O.2    57  LEU57      -0.2867
     46  CB         1.4960   38.5820   -9.2830 C.3    57  LEU57       0.0270
     47  CG         2.4730   38.5910   -8.1070 C.3    57  LEU57       0.0019
     48  CD1        3.8680   38.9480   -8.5800 C.3    57  LEU57       0.0001
     49  CD2        1.9770   39.5640   -7.0620 C.3    57  LEU57       0.0001
     50  N         -3.7600   39.4840   -7.8900 N.3    60  CYS60      -0.1235
     51  CA        -3.4500   40.5220   -6.9070 C.3    60  CYS60       0.1677
     52  C         -3.8360   41.8730   -7.4820 C.2    60  CYS60       0.2270
     53  O         -2.9780   42.6600   -7.8700 O.2    60  CYS60      -0.2867
     54  CB        -1.9580   40.5090   -6.5640 C.3    60  CYS60       0.0956
     55  SG        -1.4720   39.1730   -5.4400 S.3    60  CYS60      -0.0801
     56  N         -1.9140   47.8980   -4.6810 N.3    65  ILE65      -0.1231
     57  CA        -0.8450   46.9800   -5.0560 C.3    65  ILE65       0.1692
     58  C         -0.4120   47.3200   -6.4750 C.2    65  ILE65       0.2592
     59  O         -1.2560   47.5660   -7.3340 O.2    65  ILE65      -0.2718
     60  CB        -1.3270   45.5220   -5.0240 C.3    65  ILE65       0.0266
     61  CG1       -2.1050   45.2530   -3.7330 C.3    65  ILE65       0.0019
     62  CG2       -0.1450   44.5980   -5.0970 C.3    65  ILE65       0.0020
     63  CD1       -1.2750   45.3340   -2.4670 C.3    65  ILE65       0.0001
     64  N          0.8960   47.3400   -6.7210 N.am   66  VAL66      -0.1966
     65  CA         1.4090   47.6600   -8.0510 C.3    66  VAL66       0.1727
     66  C          0.8840   46.6570   -9.0610 C.2    66  VAL66       0.2617
     67  O          0.7540   45.4710   -8.7620 O.2    66  VAL66      -0.2715
     68  CB         2.9450   47.6260   -8.1050 C.3    66  VAL66       0.0290
     69  CG1        3.4120   47.9730   -9.4970 C.3    66  VAL66       0.0023
     70  CG2        3.5290   48.5990   -7.1110 C.3    66  VAL66       0.0023
     71  N          0.5790   47.1360  -10.2610 N.am   67  GLY67      -0.1940
     72  CA         0.0660   46.2590  -11.2930 C.3    67  GLY67       0.2014
     73  C          1.1250   45.2950  -11.7770 C.2    67  GLY67       0.2638
     74  O          2.2920   45.6550  -11.8740 O.2    67  GLY67      -0.2714
     75  N          0.7170   44.0740  -12.0920 N.am   68  PHE68      -0.1973
     76  CA         1.6410   43.0570  -12.5590 C.3    68  PHE68       0.1639
     77  C          1.2380   42.4960  -13.9220 C.2    68  PHE68       0.2290
     78  O          0.1190   42.0310  -14.1030 O.2    68  PHE68      -0.2864
     79  CB         1.7210   41.9550  -11.5000 C.3    68  PHE68       0.0560
     80  CG         2.2720   40.6540  -11.9980 C.ar   68  PHE68      -0.0200
     81  CD1        1.4490   39.7270  -12.6100 C.ar   68  PHE68      -0.0042
     82  CD2        3.6090   40.3500  -11.8360 C.ar   68  PHE68      -0.0042
     83  CE1        1.9470   38.5290  -13.0450 C.ar   68  PHE68      -0.0003
     84  CE2        4.1150   39.1440  -12.2740 C.ar   68  PHE68      -0.0003
     85  CZ         3.2820   38.2330  -12.8790 C.ar   68  PHE68      -0.0000
     86  N         10.1190   39.7780  -13.5530 N.3    80  ILE80      -0.1245
     87  CA         8.8100   40.0930  -13.0140 C.3    80  ILE80       0.1561
     88  C          8.3990   41.4080  -13.6490 C.2    80  ILE80       0.2260
     89  O          8.8770   42.4710  -13.2720 O.2    80  ILE80      -0.2867
     90  CB         8.8290   40.2560  -11.4880 C.3    80  ILE80       0.0252
     91  CG1        9.0720   38.9090  -10.8250 C.3    80  ILE80       0.0019
     92  CG2        7.5160   40.8110  -11.0180 C.3    80  ILE80       0.0019
     93  CD1        9.0350   38.9580   -9.3290 C.3    80  ILE80       0.0001
     94  N          6.0750   44.3480  -14.0520 N.3    82  MET82      -0.1245
     95  CA         5.0070   45.0570  -13.3580 C.3    82  MET82       0.1570
     96  C          4.7760   46.4130  -14.0220 C.2    82  MET82       0.2261
     97  O          5.5620   46.8140  -14.8740 O.2    82  MET82      -0.2867
     98  CB         5.3770   45.2210  -11.8800 C.3    82  MET82       0.0387
     99  CG         6.6680   45.9510  -11.6480 C.3    82  MET82       0.0595
    100  SD         7.2350   45.8050   -9.9710 S.3    82  MET82      -0.1393
    101  CE         8.9040   45.2990  -10.2050 C.3    82  MET82       0.0692
    102  N          5.8740   41.4000    4.3210 N.3   128  ARG128     -0.1231
    103  CA         7.1680   40.8510    4.7050 C.3   128  ARG128      0.1694
    104  C          8.4020   41.6890    4.3100 C.2   128  ARG128      0.2592
    105  O          9.5370   41.2910    4.5670 O.2   128  ARG128     -0.2718
    106  CB         7.2430   39.4250    4.1590 C.3   128  ARG128      0.0321
    107  CG         8.6070   38.8320    3.9710 C.3   128  ARG128      0.0489
    108  CD         8.4470   37.4570    3.3600 C.3   128  ARG128      0.2205
    109  NE         7.6740   36.5860    4.2400 N.pl3 128  ARG128     -0.0865
    110  CZ         8.1360   36.0970    5.3870 C.cat 128  ARG128      0.5346
    111  NH1        9.3690   36.3980    5.7770 N.pl3 128  ARG128      0.1354
    112  NH2        7.3710   35.3090    6.1400 N.pl3 128  ARG128      0.1354
    113  N          8.1750   42.8630    3.7210 N.am  129  ASP129     -0.1974
    114  CA         9.2700   43.7470    3.3160 C.3   129  ASP129      0.1709
    115  C          8.7710   45.1580    2.9440 C.2   129  ASP129      0.2293
    116  O          9.2600   45.7720    1.9970 O.2   129  ASP129     -0.2864
    117  CB        10.0180   43.1070    2.1420 C.3   129  ASP129      0.1436
    118  CG        11.3260   43.8060    1.8080 C.2   129  ASP129      0.3671
    119  OD1       12.1370   44.0810    2.7180 O.co2 129  ASP129     -0.2456
    120  OD2       11.5550   44.0560    0.6130 O.co2 129  ASP129     -0.2456
    121  N          4.7020   47.1030   -3.4420 N.3   146  CYS146     -0.1221
    122  CA         5.3620   46.1600   -4.3360 C.3   146  CYS146      0.1808
    123  C          6.3800   45.3300   -3.5630 C.2   146  CYS146      0.2601
    124  O          6.6760   45.6160   -2.4120 O.2   146  CYS146     -0.2717
    125  CB         6.0670   46.8980   -5.4870 C.3   146  CYS146      0.0970
    126  SG         7.6830   47.6660   -5.0720 S.3   146  CYS146     -0.0800
    127  N          6.9050   44.2990   -4.2050 N.am  147  ASP147     -0.1959
    128  CA         7.9040   43.4510   -3.5870 C.3   147  ASP147      0.1840
    129  C          7.4530   42.6970   -2.3340 C.2   147  ASP147      0.2622
    130  O          8.2320   42.5270   -1.3950 O.2   147  ASP147     -0.2715
    131  CB         9.1460   44.2800   -3.2650 C.3   147  ASP147      0.1450
    132  CG        10.0490   44.4740   -4.4700 C.2   147  ASP147      0.3671
    133  OD1        9.5420   44.4780   -5.6120 O.co2 147  ASP147     -0.2456
    134  OD2       11.2730   44.6410   -4.2670 O.co2 147  ASP147     -0.2456
    135  N          6.2070   42.2440   -2.3130 N.am  148  PHE148     -0.1960
    136  CA         5.7250   41.4920   -1.1740 C.3   148  PHE148      0.1771
    137  C          5.8940   39.9940   -1.4090 C.2   148  PHE148      0.2620
    138  O          6.0120   39.5460   -2.5420 O.2   148  PHE148     -0.2715
    139  CB         4.2640   41.8160   -0.9030 C.3   148  PHE148      0.0574
    140  CG         3.4060   41.8610   -2.1350 C.ar  148  PHE148     -0.0200
    141  CD1        3.3880   42.9860   -2.9420 C.ar  148  PHE148     -0.0042
    142  CD2        2.5720   40.7920   -2.4560 C.ar  148  PHE148     -0.0042
    143  CE1        2.5530   43.0510   -4.0340 C.ar  148  PHE148     -0.0003
    144  CE2        1.7340   40.8470   -3.5480 C.ar  148  PHE148     -0.0003
    145  CZ         1.7200   41.9790   -4.3420 C.ar  148  PHE148     -0.0000
    146  N          5.9160   39.2190   -0.3320 N.am  149  GLY149     -0.1940
    147  CA         6.0740   37.7800   -0.4670 C.3   149  GLY149      0.2014
    148  C          4.8250   37.0910   -0.9820 C.2   149  GLY149      0.2639
    149  O          3.8260   36.9540   -0.2730 O.2   149  GLY149     -0.2714
    150  N          4.8810   36.6650   -2.2340 N.am  150  VAL150     -0.1963
    151  CA         3.7660   35.9870   -2.8600 C.3   150  VAL150      0.1727
    152  C          4.2160   34.5890   -3.2330 C.2   150  VAL150      0.2616
    153  O          3.4000   33.7340   -3.5440 O.2   150  VAL150     -0.2715
    154  CB         3.2920   36.7270   -4.1360 C.3   150  VAL150      0.0290
    155  CG1        4.3060   36.5800   -5.2460 C.3   150  VAL150      0.0023
    156  CG2        1.9420   36.1930   -4.5690 C.3   150  VAL150      0.0023
    157  N          5.5200   34.3550   -3.1920 N.am  151  SER151     -0.1950
    158  CA         6.0600   33.0530   -3.5330 C.3   151  SER151      0.1924
    159  C          6.8760   32.4530   -2.4070 C.2   151  SER151      0.2314
    160  O          8.0290   32.8140   -2.2080 O.2   151  SER151     -0.2863
    161  CB         6.9280   33.1450   -4.7810 C.3   151  SER151      0.2116
    162  OG         7.7040   31.9690   -4.9210 O.3   151  SER151     -0.2180
    163  N         10.2230   31.6040   -3.2460 N.3   154  LEU154     -0.1231
    164  CA        11.0700   32.7700   -3.4630 C.3   154  LEU154      0.1693
    165  C         11.5040   33.3320   -2.1250 C.2   154  LEU154      0.2591
    166  O         12.5830   33.8790   -2.0000 O.2   154  LEU154     -0.2718
    167  CB        10.3390   33.8420   -4.2700 C.3   154  LEU154      0.0284
    168  CG        11.1330   35.1100   -4.6000 C.3   154  LEU154      0.0019
    169  CD1       12.5230   34.7650   -5.0360 C.3   154  LEU154      0.0001
    170  CD2       10.4320   35.8790   -5.6830 C.3   154  LEU154      0.0001
    171  N         10.6560   33.1880   -1.1200 N.am  155  ILE155     -0.1980
    172  CA        10.9740   33.6660    0.2100 C.3   155  ILE155      0.1595
    173  C         12.0450   32.7740    0.8580 C.2   155  ILE155      0.2287
    174  O         12.7820   33.2130    1.7420 O.2   155  ILE155     -0.2864
    175  CB         9.7120   33.6710    1.1000 C.3   155  ILE155      0.0276
    176  CG1        8.6030   34.4720    0.4220 C.3   155  ILE155      0.0022
    177  CG2       10.0290   34.2610    2.4660 C.3   155  ILE155      0.0022
    178  CD1        7.3320   34.5330    1.2240 C.3   155  ILE155      0.0001
    179  N         15.5000   33.5710   -0.6540 N.3   158  MET158     -0.1245
    180  CA        15.9520   34.8810   -0.2340 C.3   158  MET158      0.1570
    181  C         16.3410   34.8640    1.2410 C.2   158  MET158      0.2261
    182  O         16.4370   35.9130    1.8780 O.2   158  MET158     -0.2867
    183  CB        14.8290   35.8920   -0.4310 C.3   158  MET158      0.0387
    184  CG        14.3410   36.0360   -1.8400 C.3   158  MET158      0.0595
    185  SD        15.5470   36.8730   -2.8160 S.3   158  MET158     -0.1393
    186  CE        15.0220   38.6140   -2.5570 C.3   158  MET158      0.0692
    187  N         18.8510   37.5260    3.7980 N.3   161  SER161     -0.1217
    188  CA        18.3530   38.8730    3.6700 C.3   161  SER161      0.1889
    189  C         18.8260   39.8680    4.7260 C.2   161  SER161      0.2288
    190  O         18.4840   41.0460    4.6280 O.2   161  SER161     -0.2866
    191  CB        16.8240   38.8410    3.6440 C.3   161  SER161      0.2089
    192  OG        16.3030   38.3670    4.8740 O.3   161  SER161     -0.2183
    193  N         13.2950   45.6400    9.5780 N.3   169  MET169     -0.1245
    194  CA        12.9980   44.3920   10.2970 C.3   169  MET169      0.1570
    195  C         12.5610   44.6450   11.7330 C.2   169  MET169      0.2261
    196  O         13.2090   45.4040   12.4650 O.2   169  MET169     -0.2867
    197  CB        14.2510   43.5060   10.3740 C.3   169  MET169      0.0387
    198  CG        14.8020   43.0200    9.0580 C.3   169  MET169      0.0595
    199  SD        13.7430   41.7680    8.3160 S.3   169  MET169     -0.1393
    200  CE        14.7600   41.3170    6.8490 C.3   169  MET169      0.0692
    201  N         11.5630   39.5280   14.7750 N.3   173  ARG173     -0.1245
    202  CA        11.9850   38.8680   13.5520 C.3   173  ARG173      0.1563
    203  C         13.5050   38.8590   13.4110 C.2   173  ARG173      0.2260
    204  O         14.0460   38.1090   12.6140 O.2   173  ARG173     -0.2867
    205  CB        11.3130   39.5510   12.3650 C.3   173  ARG173      0.0307
    206  CG        11.5620   38.9100   11.0360 C.3   173  ARG173      0.0489
    207  CD        10.7500   39.6260    9.9850 C.3   173  ARG173      0.2205
    208  NE        11.1890   39.2980    8.6340 N.pl3 173  ARG173     -0.0865
    209  CZ        10.6870   39.8430    7.5300 C.cat 173  ARG173      0.5346
    210  NH1        9.7230   40.7480    7.6170 N.pl3 173  ARG173      0.1354
    211  NH2       11.1520   39.4850    6.3390 N.pl3 173  ARG173      0.1354
@<TRIPOS>BOND
     1    97    96    2
     2    78    77    2
     3    94    95    1
     4    96    95    1
     5    77    76    1
     6    88    89    2
     7    88    87    1
     8    20    19    2
     9    86    87    1
    10    17    18    1
    11    95    98    1
    12    83    85   ar
    13    83    81   ar
    14    87    90    1
    15    19    18    1
    16    85    84   ar
    17    81    80   ar
    18    76    75    1
    19    76    79    1
    20    18    21    1
    21    84    82   ar
    22    75    73   am
    23    80    82   ar
    24    80    79    1
    25    98    99    1
    26    74    73    2
    27    73    72    1
    28    99   100    1
    29    90    92    1
    30    90    91    1
    31    29    28    2
    32    72    71    1
    33    21    22    1
    34    26    27    1
    35    91    93    1
    36    28    27    1
    37    71    66   am
    38    37    36    2
    39   101   100    1
    40    45    44    2
    41    22    23    1
    42    44    43    1
    43    36    35    1
    44    38    35    1
    45    38    39    1
    46    27    30    1
    47    40    39    1
    48    69    68    1
    49    46    43    1
    50    46    47    1
    51    35    34    1
    52    66    67    2
    53    66    65    1
    54    43    42    1
    55    39    41    1
    56    15    16    2
    57    15    14    1
    58    30    31    1
    59    30    32    1
    60    23    24    1
    61    48    47    1
    62    31    33    1
    63    14    13    1
    64    47    49    1
    65    68    65    1
    66    68    70    1
    67    65    64    1
    68    24    25    1
    69    50    51    1
    70    53    52    2
    71    52    51    1
    72    59    58    2
    73    51    54    1
    74    64    58   am
    75    54    55    1
    76    58    57    1
    77     1     2    1
    78   170   168    1
    79   133   132   ar
    80     4     3    2
    81   125   126    1
    82   125   122    1
    83   155   154    1
    84    62    60    1
    85    57    60    1
    86    57    56    1
    87   169   168    1
    88    60    61    1
    89     2     3    1
    90   162   161    1
    91     3     5   am
    92   161   158    1
    93   168   167    1
    94   156   154    1
    95   132   134   ar
    96   132   131    1
    97     7     8    2
    98     7     6    1
    99   145   143   ar
   100   145   144   ar
   101   122   123    1
   102   122   121    1
   103   167   164    1
   104   127   128    1
   105   127   123   am
   106   154   151    1
   107   143   141   ar
   108     5     6    1
   109    61    63    1
   110     6     9    1
   111   128   131    1
   112   128   129    1
   113   123   124    2
   114   144   142   ar
   115   153   152    2
   116   158   157    1
   117   158   159    1
   118   164   163    1
   119   164   165    1
   120   152   157   am
   121   152   151    1
   122   141   140   ar
   123   151   150    1
   124   185   186    1
   125   185   184    1
   126   138   137    2
   127   142   140   ar
   128   159   160    2
   129   129   135   am
   130   129   130    2
   131   135   136    1
   132   150   148   am
   133   140   139    1
   134     9    10    1
   135   165   166    2
   136   165   171   am
   137   184   183    1
   138    11    10    2
   139   137   136    1
   140   137   146   am
   141    10    12   am
   142   136   139    1
   143   171   172    1
   144   148   147    1
   145   148   149    2
   146   179   180    1
   147   147   146    1
   148   183   180    1
   149   180   181    1
   150   172   173    1
   151   172   175    1
   152   176   175    1
   153   176   178    1
   154   120   118   ar
   155   173   174    2
   156   175   177    1
   157   181   182    2
   158   118   117    1
   159   118   119   ar
   160   116   115    2
   161   117   114    1
   162   115   114    1
   163   114   113    1
   164   108   107    1
   165   108   109    1
   166   191   188    1
   167   191   192    1
   168   188   187    1
   169   188   189    1
   170   113   104   am
   171   107   106    1
   172   106   103    1
   173   109   110    2
   174   104   105    2
   175   104   103    1
   176   102   103    1
   177   190   189    2
   178   110   111    1
   179   110   112    1
   180   211   209    1
   181   200   199    1
   182   209   210    1
   183   209   208    2
   184   199   198    1
   185   208   207    1
   186   198   197    1
   187   193   194    1
   188   207   206    1
   189   194   197    1
   190   194   195    1
   191   206   205    1
   192   195   196    2
   193   205   202    1
   194   204   203    2
   195   203   202    1
   196   202   201    1
