@<TRIPOS>MOLECULE
tmp/3os4B00.pdb
 88 83 0 0 0
SMALL
GASTEIGER

@<TRIPOS>ATOM
      1  N         33.9820   20.5070   40.0580 N.3    74  PHE74      -0.1241
      2  CA        33.6570   19.2800   40.7940 C.3    74  PHE74       0.1605
      3  C         34.8640   18.4590   41.2350 C.2    74  PHE74       0.2264
      4  O         34.7790   17.6890   42.1980 O.2    74  PHE74      -0.2867
      5  CB        32.7670   18.3730   39.9290 C.3    74  PHE74       0.0534
      6  CG        31.5990   19.0780   39.3400 C.ar   74  PHE74      -0.0203
      7  CD1       30.8070   19.8770   40.1330 C.ar   74  PHE74      -0.0042
      8  CD2       31.3450   19.0000   37.9940 C.ar   74  PHE74      -0.0042
      9  CE1       29.7190   20.5510   39.6000 C.ar   74  PHE74      -0.0003
     10  CE2       30.2630   19.6640   37.4410 C.ar   74  PHE74      -0.0003
     11  CZ        29.4520   20.4490   38.2490 C.ar   74  PHE74      -0.0000
     12  N         18.3210   13.0860   30.9830 N.3   167  PHE167     -0.1241
     13  CA        18.8680   11.9790   31.7990 C.3   167  PHE167      0.1605
     14  C         18.7980   10.6630   31.0020 C.2   167  PHE167      0.2264
     15  O         18.7570    9.5620   31.5710 O.2   167  PHE167     -0.2867
     16  CB        18.0240   11.7700   33.0790 C.3   167  PHE167      0.0534
     17  CG        18.2900   12.7630   34.1940 C.ar  167  PHE167     -0.0203
     18  CD1       19.2870   13.7160   34.0970 C.ar  167  PHE167     -0.0042
     19  CD2       17.5290   12.7200   35.3570 C.ar  167  PHE167     -0.0042
     20  CE1       19.5170   14.6210   35.1410 C.ar  167  PHE167     -0.0003
     21  CE2       17.7670   13.6090   36.4040 C.ar  167  PHE167     -0.0003
     22  CZ        18.7580   14.5660   36.2840 C.ar  167  PHE167     -0.0000
     23  N         26.8940   19.8740   32.5990 N.3   208  PRO208     -0.2102
     24  CA        26.7400   18.4920   33.0560 C.3   208  PRO208      0.1504
     25  C         25.9740   18.4370   34.3670 C.2   208  PRO208      0.2576
     26  O         26.2880   19.1740   35.3150 O.2   208  PRO208     -0.2718
     27  CB        28.1890   18.0300   33.2500 C.3   208  PRO208      0.0282
     28  CG        28.9390   19.2850   33.5620 C.3   208  PRO208      0.0208
     29  CD        28.2580   20.4030   32.8300 C.3   208  PRO208      0.0893
     30  N         24.9650   17.5670   34.4420 N.am  209  VAL209     -0.1966
     31  CA        24.1390   17.5010   35.6390 C.3   209  VAL209      0.1727
     32  C         24.0600   16.0970   36.2420 C.2   209  VAL209      0.2617
     33  O         24.0930   15.0940   35.5340 O.2   209  VAL209     -0.2715
     34  CB        22.7290   18.0300   35.3670 C.3   209  VAL209      0.0290
     35  CG1       22.8000   19.4960   35.0120 C.3   209  VAL209      0.0023
     36  CG2       22.0860   17.2680   34.2480 C.3   209  VAL209      0.0023
     37  N         23.9730   16.0250   37.5630 N.am  210  GLY210     -0.1940
     38  CA        23.8310   14.7450   38.2290 C.3   210  GLY210      0.2014
     39  C         24.4860   14.7940   39.5840 C.2   210  GLY210      0.2639
     40  O         25.5920   15.2900   39.7250 O.2   210  GLY210     -0.2714
     41  N         23.7920   14.2910   40.5960 N.am  211  THR211     -0.1950
     42  CA        24.3230   14.3330   41.9510 C.3   211  THR211      0.1897
     43  C         24.4890   12.9300   42.5430 C.2   211  THR211      0.2313
     44  O         25.4890   12.2650   42.2710 O.2   211  THR211     -0.2863
     45  CB        23.4900   15.2480   42.8750 C.3   211  THR211      0.1794
     46  OG1       22.1450   14.7670   42.9500 O.3   211  THR211     -0.2208
     47  CG2       23.4920   16.6920   42.3430 C.3   211  THR211      0.0378
     48  N         26.8300   20.2440   43.9450 N.3   246  LEU246     -0.1245
     49  CA        26.1360   18.9660   43.7970 C.3   246  LEU246      0.1561
     50  C         25.2290   18.6810   44.9940 C.2   246  LEU246      0.2260
     51  O         25.0760   17.5290   45.4190 O.2   246  LEU246     -0.2867
     52  CB        27.1550   17.8350   43.6500 C.3   246  LEU246      0.0270
     53  CG        28.1360   17.9970   42.4890 C.3   246  LEU246      0.0019
     54  CD1       29.1140   16.8440   42.4120 C.3   246  LEU246      0.0001
     55  CD2       27.3450   18.1530   41.1750 C.3   246  LEU246      0.0001
     56  N         22.1130   18.1900   45.7670 N.3   248  ILE248     -0.1245
     57  CA        20.7590   17.6600   45.6640 C.3   248  ILE248      0.1561
     58  C         20.7150   16.2680   46.3020 C.2   248  ILE248      0.2260
     59  O         21.4480   15.3650   45.8950 O.2   248  ILE248     -0.2867
     60  CB        20.2790   17.5680   44.1980 C.3   248  ILE248      0.0252
     61  CG1       20.2840   18.9350   43.5230 C.3   248  ILE248      0.0019
     62  CG2       18.8580   16.9670   44.1470 C.3   248  ILE248      0.0019
     63  CD1       19.2790   19.9180   44.1000 C.3   248  ILE248      0.0001
     64  N         15.6360   15.3090   45.3610 N.3   274  ARG274     -0.1245
     65  CA        15.2590   14.6730   44.1050 C.3   274  ARG274      0.1563
     66  C         14.2740   13.5260   44.3090 C.2   274  ARG274      0.2260
     67  O         14.4230   12.7140   45.2240 O.2   274  ARG274     -0.2867
     68  CB        16.4980   14.1930   43.3500 C.3   274  ARG274      0.0307
     69  CG        16.1700   13.4960   42.0570 C.3   274  ARG274      0.0489
     70  CD        17.3950   13.3680   41.1930 C.3   274  ARG274      0.2205
     71  NE        17.1420   12.5450   40.0220 N.pl3 274  ARG274     -0.0865
     72  CZ        18.0940   12.1220   39.1980 C.cat 274  ARG274      0.5346
     73  NH1       19.3610   12.4550   39.4210 N.pl3 274  ARG274      0.1354
     74  NH2       17.7800   11.3660   38.1540 N.pl3 274  ARG274      0.1354
     75  N         13.8350   18.4350   42.2830 N.3   303  VAL303     -0.1245
     76  CA        14.1140   17.7810   41.0190 C.3   303  VAL303      0.1561
     77  C         13.1640   16.5850   40.8670 C.2   303  VAL303      0.2260
     78  O         13.1510   15.6860   41.7180 O.2   303  VAL303     -0.2867
     79  CB        15.5930   17.2690   40.9440 C.3   303  VAL303      0.0252
     80  CG1       15.8160   16.6080   39.6240 C.3   303  VAL303      0.0019
     81  CG2       16.5690   18.4320   41.1620 C.3   303  VAL303      0.0019
     82  N         13.3100   21.5050   38.7800 N.3   327  VAL327     -0.1245
     83  CA        13.9830   20.9940   37.5960 C.3   327  VAL327      0.1561
     84  C         13.3600   19.6480   37.2010 C.2   327  VAL327      0.2260
     85  O         13.0060   18.8630   38.0800 O.2   327  VAL327     -0.2867
     86  CB        15.5000   20.7990   37.8260 C.3   327  VAL327      0.0252
     87  CG1       16.1590   20.4540   36.5100 C.3   327  VAL327      0.0019
     88  CG2       16.1010   22.0640   38.4430 C.3   327  VAL327      0.0019
@<TRIPOS>BOND
     1    12    13    1
     2    14    15    2
     3    14    13    1
     4    13    16    1
     5    23    29    1
     6    23    24    1
     7    29    28    1
     8    24    27    1
     9    24    25    1
    10    16    17    1
    11    27    28    1
    12    18    17   ar
    13    18    20   ar
    14    17    19   ar
    15    36    34    1
    16    25    30   am
    17    25    26    2
    18    30    31    1
    19    35    34    1
    20    20    22   ar
    21    19    21   ar
    22    34    31    1
    23    33    32    2
    24    31    32    1
    25    32    37   am
    26    22    21   ar
    27    87    86    1
    28    84    83    1
    29    84    85    2
    30    10     8   ar
    31    10    11   ar
    32    37    38    1
    33    83    86    1
    34    83    82    1
    35    86    88    1
    36     8     6   ar
    37    74    72    1
    38    38    39    1
    39    11     9   ar
    40    72    73    1
    41    72    71    2
    42     6     5    1
    43     6     7   ar
    44    39    40    2
    45    39    41   am
    46     9     7   ar
    47    80    79    1
    48     5     2    1
    49    71    70    1
    50     1     2    1
    51    41    42    1
    52     2     3    1
    53    77    76    1
    54    77    78    2
    55    79    76    1
    56    79    81    1
    57    76    75    1
    58    55    53    1
    59    70    69    1
    60     3     4    2
    61    42    43    1
    62    42    45    1
    63    69    68    1
    64    44    43    2
    65    47    45    1
    66    54    53    1
    67    53    52    1
    68    45    46    1
    69    68    65    1
    70    61    63    1
    71    61    60    1
    72    52    49    1
    73    49    48    1
    74    49    50    1
    75    65    66    1
    76    65    64    1
    77    62    60    1
    78    60    57    1
    79    66    67    2
    80    50    51    2
    81    57    56    1
    82    57    58    1
    83    59    58    2
