@<TRIPOS>MOLECULE
tmp/3os6A00.pdb
 128 123 0 0 0
SMALL
GASTEIGER

@<TRIPOS>ATOM
      1  N          5.5620   43.1960   93.3600 N.3    22  THR22      -0.1203
      2  CA         4.8970   43.7250   94.5620 C.3    22  THR22       0.1994
      3  C          3.9210   42.7490   95.2150 C.2    22  THR22       0.2617
      4  O          3.5670   42.9200   96.3710 O.2    22  THR22      -0.2717
      5  CB         4.1420   45.0300   94.2470 C.3    22  THR22       0.1784
      6  OG1        3.0540   44.7820   93.3000 O.3    22  THR22      -0.2211
      7  CG2        5.1190   46.0870   93.7160 C.3    22  THR22       0.0376
      8  N          3.4860   41.7240   94.4820 N.am   23  ARG23      -0.1979
      9  CA         2.4350   40.8400   94.9770 C.3    23  ARG23       0.1597
     10  C          2.2400   39.5970   94.1110 C.2    23  ARG23       0.2287
     11  O          2.7640   39.4870   92.9930 O.2    23  ARG23      -0.2864
     12  CB         1.1130   41.6020   95.0380 C.3    23  ARG23       0.0334
     13  CG         0.3780   41.7100   93.6940 C.3    23  ARG23       0.0492
     14  CD        -0.6410   42.8450   93.6490 C.3    23  ARG23       0.2205
     15  NE         0.0740   44.0200   94.1000 N.pl3  23  ARG23      -0.0865
     16  CZ        -0.2890   44.8030   95.1030 C.cat  23  ARG23       0.5346
     17  NH1       -1.4600   44.6260   95.7390 N.pl3  23  ARG23       0.1354
     18  NH2        0.5280   45.7880   95.4340 N.pl3  23  ARG23       0.1354
     19  N         -4.4010   37.3100   97.6910 N.3    85  ILE85      -0.1231
     20  CA        -3.3240   38.2040   97.3220 C.3    85  ILE85       0.1692
     21  C         -2.2920   38.0960   98.4100 C.2    85  ILE85       0.2593
     22  O         -2.5960   38.2960   99.5660 O.2    85  ILE85      -0.2718
     23  CB        -3.8090   39.6790   97.2240 C.3    85  ILE85       0.0266
     24  CG1       -5.0510   39.7850   96.3250 C.3    85  ILE85       0.0019
     25  CG2       -2.7100   40.5510   96.6850 C.3    85  ILE85       0.0020
     26  CD1       -5.6550   41.1910   96.2110 C.3    85  ILE85       0.0001
     27  N         -1.0600   37.7950   98.0400 N.am   86  SER86      -0.1938
     28  CA         0.0090   37.6550   99.0050 C.3    86  SER86       0.2055
     29  C          1.1670   38.5250   98.5810 C.2    86  SER86       0.2642
     30  O          1.0470   39.2700   97.6030 O.2    86  SER86      -0.2714
     31  CB         0.4520   36.2140   99.0530 C.3    86  SER86       0.2130
     32  OG         1.1120   35.8820   97.8390 O.3    86  SER86      -0.2179
     33  N          2.2820   38.4100   99.3040 N.am   87  GLU87      -0.1976
     34  CA         3.5180   39.1000   98.9350 C.3    87  GLU87       0.1602
     35  C          4.0400   38.5190   97.6360 C.2    87  GLU87       0.2287
     36  O          3.5020   37.5360   97.1230 O.2    87  GLU87      -0.2864
     37  CB         4.6080   38.9750  100.0190 C.3    87  GLU87       0.0415
     38  CG         4.2130   39.4680  101.4030 C.3    87  GLU87       0.1163
     39  CD         3.9850   40.9700  101.4870 C.2    87  GLU87       0.3649
     40  OE1        4.1550   41.6910  100.4780 O.co2  87  GLU87      -0.2457
     41  OE2        3.6290   41.4370  102.5860 O.co2  87  GLU87      -0.2457
     42  N          1.7010   51.1180   86.5860 N.3   180  SER180     -0.1202
     43  CA         1.1360   50.8260   87.8760 C.3   180  SER180      0.2020
     44  C          0.6900   52.0950   88.5030 C.2   180  SER180      0.2619
     45  O          1.2860   53.1240   88.2350 O.2   180  SER180     -0.2717
     46  CB         2.1500   50.1720   88.8120 C.3   180  SER180      0.2103
     47  OG         3.2210   51.0740   89.1460 O.3   180  SER180     -0.2182
     48  N         -0.2620   51.9830   89.4260 N.am  181  ARG181     -0.1965
     49  CA        -0.6850   53.0600   90.2530 C.3   181  ARG181      0.1729
     50  C         -0.6800   52.5590   91.6660 C.2   181  ARG181      0.2616
     51  O         -1.1570   51.4600   91.9250 O.2   181  ARG181     -0.2715
     52  CB        -2.1200   53.5110   89.9320 C.3   181  ARG181      0.0348
     53  CG        -2.4660   54.7980   90.5870 C.3   181  ARG181      0.0492
     54  CD        -3.9020   55.2100   90.6250 C.3   181  ARG181      0.2205
     55  NE        -4.3870   54.9990   91.9720 N.pl3 181  ARG181     -0.0865
     56  CZ        -5.4060   55.6170   92.5440 C.cat 181  ARG181      0.5346
     57  NH1       -6.1500   56.4520   91.8390 N.pl3 181  ARG181      0.1354
     58  NH2       -5.7010   55.3410   93.8260 N.pl3 181  ARG181      0.1354
     59  N         -0.1820   53.3970   92.5850 N.am  182  HIS182     -0.1973
     60  CA        -0.1740   53.1280   94.0120 C.3   182  HIS182      0.1656
     61  C         -0.4380   54.4820   94.6560 C.2   182  HIS182      0.2291
     62  O          0.3850   55.3500   94.5750 O.2   182  HIS182     -0.2864
     63  CB         1.1950   52.5560   94.4110 C.3   182  HIS182      0.0771
     64  CG         1.3250   52.1920   95.8580 C.ar  182  HIS182      0.0820
     65  ND1        1.4480   53.1240   96.8650 N.ar  182  HIS182     -0.2267
     66  CD2        1.4260   50.9900   96.4620 C.ar  182  HIS182      0.1154
     67  CE1        1.5520   52.5030   98.0260 C.ar  182  HIS182      0.1986
     68  NE2        1.5190   51.2060   97.8070 N.ar  182  HIS182     -0.2212
     69  N          0.9330   57.6940   93.0690 N.3   184  GLN184     -0.1245
     70  CA         2.1630   57.3780   92.3360 C.3   184  GLN184      0.1566
     71  C          1.9160   56.4560   91.1380 C.2   184  GLN184      0.2260
     72  O          1.3730   55.3610   91.2850 O.2   184  GLN184     -0.2867
     73  CB         3.1970   56.7220   93.2490 C.3   184  GLN184      0.0367
     74  CG         4.5720   56.4470   92.5470 C.3   184  GLN184      0.0905
     75  CD         5.3390   55.1700   93.0360 C.2   184  GLN184      0.2608
     76  OE1        4.8650   53.9730   92.9340 O.2   184  GLN184     -0.2717
     77  NE2        6.5580   55.4180   93.4940 N.am  184  GLN184     -0.0878
     78  N          3.8280   54.6350   87.7160 N.3   186  ILE186     -0.1245
     79  CA         5.1180   54.2060   87.1840 C.3   186  ILE186      0.1561
     80  C          4.8230   53.4870   85.8830 C.2   186  ILE186      0.2260
     81  O          3.9240   52.6610   85.8410 O.2   186  ILE186     -0.2867
     82  CB         5.9140   53.2330   88.1110 C.3   186  ILE186      0.0252
     83  CG1        6.2070   53.8500   89.4760 C.3   186  ILE186      0.0019
     84  CG2        7.2380   52.7920   87.4600 C.3   186  ILE186      0.0019
     85  CD1        6.8410   52.8680   90.5000 C.3   186  ILE186      0.0001
     86  N         -4.3740   43.8480   86.7020 N.3   309  TRP309     -0.1241
     87  CA        -5.4400   44.0020   87.6830 C.3   309  TRP309      0.1605
     88  C         -5.6090   45.4670   88.0660 C.2   309  TRP309      0.2264
     89  O         -4.6730   46.2320   87.9200 O.2   309  TRP309     -0.2867
     90  CB        -5.1210   43.1980   88.9460 C.3   309  TRP309      0.0550
     91  CG        -3.9510   43.6950   89.6650 C.ar  309  TRP309      0.0003
     92  CD1       -2.6560   43.4180   89.3610 C.ar  309  TRP309      0.0946
     93  CD2       -3.9050   44.5810   90.7860 C.ar  309  TRP309      0.0152
     94  NE1       -1.8180   44.0400   90.2090 N.ar  309  TRP309     -0.2442
     95  CE2       -2.5440   44.7890   91.0890 C.ar  309  TRP309      0.0810
     96  CE3       -4.8680   45.2590   91.5270 C.ar  309  TRP309      0.0012
     97  CZ2       -2.1150   45.6070   92.1150 C.ar  309  TRP309      0.0191
     98  CZ3       -4.4560   46.0810   92.5590 C.ar  309  TRP309      0.0001
     99  CH2       -3.0650   46.2490   92.8490 C.ar  309  TRP309      0.0015
    100  N         -8.0150   47.8760   91.2480 N.3   311  ASP311     -0.1239
    101  CA        -8.9200   47.7300   92.3770 C.3   311  ASP311      0.1674
    102  C         -9.8530   48.9050   92.5280 C.2   311  ASP311      0.2266
    103  O         -9.7820   49.8570   91.7640 O.2   311  ASP311     -0.2867
    104  CB        -8.1400   47.3740   93.6610 C.3   311  ASP311      0.1410
    105  CG        -7.3110   48.5610   94.2670 C.2   311  ASP311      0.3668
    106  OD1       -7.6000   49.7490   94.0090 O.co2 311  ASP311     -0.2456
    107  OD2       -6.4000   48.2350   95.0890 O.co2 311  ASP311     -0.2456
    108  N         -5.8390   51.4600   92.3440 N.3   315  ASP315     -0.1225
    109  CA        -4.4740   51.0100   92.2030 C.3   315  ASP315      0.1805
    110  C         -4.4580   49.8200   91.2720 C.2   315  ASP315      0.2598
    111  O         -5.5080   49.2400   90.9560 O.2   315  ASP315     -0.2718
    112  CB        -3.8350   50.6570   93.5590 C.3   315  ASP315      0.1424
    113  CG        -3.6890   51.8530   94.4860 C.2   315  ASP315      0.3668
    114  OD1       -3.5880   53.0270   94.0330 O.co2 315  ASP315     -0.2456
    115  OD2       -3.7330   51.6350   95.7070 O.co2 315  ASP315     -0.2456
    116  N         -3.2740   49.4430   90.8010 N.am  316  GLY316     -0.1942
    117  CA        -3.1790   48.2780   89.9570 C.3   316  GLY316      0.2014
    118  C         -1.8490   48.1710   89.2520 C.2   316  GLY316      0.2638
    119  O         -0.9710   48.9960   89.4760 O.2   316  GLY316     -0.2714
    120  N         -1.7260   47.1530   88.3940 N.am  317  GLU317     -0.1977
    121  CA        -0.5340   46.9340   87.6000 C.3   317  GLU317      0.1602
    122  C         -0.9940   46.3870   86.2830 C.2   317  GLU317      0.2287
    123  O         -1.7490   45.4710   86.2700 O.2   317  GLU317     -0.2864
    124  CB         0.4230   45.9010   88.2720 C.3   317  GLU317      0.0415
    125  CG         0.8030   46.2720   89.7180 C.3   317  GLU317      0.1163
    126  CD         1.6640   45.2330   90.4220 C.2   317  GLU317      0.3649
    127  OE1        2.8410   45.5260   90.7260 O.co2 317  GLU317     -0.2457
    128  OE2        1.1690   44.1240   90.7390 O.co2 317  GLU317     -0.2457
@<TRIPOS>BOND
     1    81    80    2
     2    80    79    1
     3   123   122    2
     4   122   121    1
     5    42    43    1
     6    86    87    1
     7    79    78    1
     8    79    82    1
     9    84    82    1
    10   121   124    1
    11   121   120    1
    12    87    88    1
    13    87    90    1
    14    43    44    1
    15    43    46    1
    16    89    88    2
    17    82    83    1
    18    45    44    2
    19   124   125    1
    20   120   118   am
    21    44    48   am
    22    46    47    1
    23    90    91    1
    24   118   119    2
    25   118   117    1
    26    92    91   ar
    27    92    94   ar
    28    48    49    1
    29    83    85    1
    30    91    93   ar
    31   125   126    1
    32    52    49    1
    33    52    53    1
    34   117   116    1
    35    94    95   ar
    36    49    50    1
    37   126   127   ar
    38   126   128   ar
    39    53    54    1
    40    54    55    1
    41    93    95   ar
    42    93    96   ar
    43   116   110   am
    44   111   110    2
    45    95    97   ar
    46    71    72    2
    47    71    70    1
    48   100   101    1
    49   110   109    1
    50    96    98   ar
    51    50    51    2
    52    50    59   am
    53   103   102    2
    54    57    56    1
    55    55    56    2
    56    97    99   ar
    57   109   108    1
    58   109   112    1
    59    70    69    1
    60    70    73    1
    61   101   102    1
    62   101   104    1
    63    56    58    1
    64    74    75    1
    65    74    73    1
    66    98    99   ar
    67    59    60    1
    68    76    75    2
    69    11    10    2
    70    75    77   am
    71     6     5    1
    72     1     2    1
    73   112   113    1
    74    14    13    1
    75    14    15    1
    76   104   105    1
    77    13    12    1
    78     7     5    1
    79   106   105   ar
    80    60    63    1
    81    60    61    1
    82   114   113   ar
    83    15    16    2
    84    10     9    1
    85     5     2    1
    86   105   107   ar
    87    63    64    1
    88     8     9    1
    89     8     3   am
    90   113   115   ar
    91     2     3    1
    92    62    61    2
    93     9    12    1
    94    16    18    1
    95    16    17    1
    96     3     4    2
    97    64    66   ar
    98    64    65   ar
    99    26    24    1
   100    24    23    1
   101    66    68   ar
   102    25    23    1
   103    65    67   ar
   104    36    35    2
   105    23    20    1
   106    20    19    1
   107    20    21    1
   108    30    29    2
   109    35    34    1
   110    68    67   ar
   111    32    31    1
   112    27    21   am
   113    27    28    1
   114    21    22    2
   115    29    28    1
   116    29    33   am
   117    34    33    1
   118    34    37    1
   119    28    31    1
   120    37    38    1
   121    40    39   ar
   122    38    39    1
   123    39    41   ar
