@<TRIPOS>MOLECULE
tmp/3os7A00.pdb
 146 146 0 0 0
SMALL
GASTEIGER

@<TRIPOS>ATOM
      1  N        -48.8960   43.9660  130.2430 N.3    75  PHE75      -0.1228
      2  CA       -47.5910   43.9080  129.5760 C.3    75  PHE75       0.1721
      3  C        -46.8310   45.1810  129.9240 C.2    75  PHE75       0.2437
      4  O        -47.0300   46.2070  129.2640 O.2    75  PHE75      -0.2733
      5  CB       -47.8000   43.8080  128.0610 C.3    75  PHE75       0.0547
      6  CG       -46.5110   43.6960  127.2310 C.ar   75  PHE75      -0.0202
      7  CD1      -45.5480   42.7420  127.5220 C.ar   75  PHE75      -0.0042
      8  CD2      -46.3130   44.5080  126.1230 C.ar   75  PHE75      -0.0042
      9  CE1      -44.4110   42.6180  126.7760 C.ar   75  PHE75      -0.0003
     10  CE2      -45.1760   44.3900  125.3460 C.ar   75  PHE75      -0.0003
     11  CZ       -44.2050   43.4530  125.6720 C.ar   75  PHE75      -0.0000
     12  N        -46.0200   45.1630  130.9880 N.am   76  PRO76      -0.2729
     13  CA       -45.7470   44.0580  131.8920 C.3    76  PRO76       0.1401
     14  C        -46.8210   44.0060  132.9830 C.2    76  PRO76       0.2269
     15  O        -47.3980   45.0430  133.3000 O.2    76  PRO76      -0.2865
     16  CB       -44.4310   44.4620  132.5210 C.3    76  PRO76       0.0296
     17  CG       -44.5220   45.9640  132.6060 C.3    76  PRO76       0.0237
     18  CD       -45.2920   46.3850  131.3950 C.3    76  PRO76       0.0939
     19  N        -42.5110   47.9940  137.4810 N.3    80  ILE80      -0.1245
     20  CA       -41.0980   48.1180  137.1570 C.3    80  ILE80       0.1561
     21  C        -40.5510   49.2840  137.9660 C.2    80  ILE80       0.2260
     22  O        -41.0130   50.4430  137.7970 O.2    80  ILE80      -0.2867
     23  CB       -40.8260   48.3840  135.6510 C.3    80  ILE80       0.0252
     24  CG1      -41.5270   47.3640  134.7350 C.3    80  ILE80       0.0019
     25  CG2      -39.2940   48.4890  135.3610 C.3    80  ILE80       0.0019
     26  CD1      -41.1980   45.9290  134.9840 C.3    80  ILE80       0.0001
     27  N        -35.2850   49.6780  133.3710 N.3    85  PHE85      -0.1241
     28  CA       -34.4990   48.4340  133.5040 C.3    85  PHE85       0.1605
     29  C        -33.5360   48.3950  132.3360 C.2    85  PHE85       0.2264
     30  O        -33.6900   49.1440  131.3840 O.2    85  PHE85      -0.2867
     31  CB       -35.3670   47.1620  133.5410 C.3    85  PHE85       0.0534
     32  CG       -36.1260   46.8630  132.2600 C.ar   85  PHE85      -0.0203
     33  CD1      -37.3950   47.3700  132.0560 C.ar   85  PHE85      -0.0042
     34  CD2      -35.5710   46.0750  131.2560 C.ar   85  PHE85      -0.0042
     35  CE1      -38.1030   47.0740  130.9130 C.ar   85  PHE85      -0.0003
     36  CE2      -36.2730   45.7870  130.1000 C.ar   85  PHE85      -0.0003
     37  CZ       -37.5370   46.2990  129.9210 C.ar   85  PHE85      -0.0000
     38  N        -39.4410   54.2880  131.0580 N.3    94  PHE94      -0.1228
     39  CA       -40.8490   54.5800  130.7860 C.3    94  PHE94       0.1721
     40  C        -41.3520   55.6890  131.6840 C.2    94  PHE94       0.2437
     41  O        -40.8930   55.8220  132.8100 O.2    94  PHE94      -0.2733
     42  CB       -41.7060   53.3420  131.0430 C.3    94  PHE94       0.0547
     43  CG       -41.1940   52.0840  130.4080 C.ar   94  PHE94      -0.0202
     44  CD1      -40.5650   52.1060  129.1650 C.ar   94  PHE94      -0.0042
     45  CD2      -41.4000   50.8630  131.0310 C.ar   94  PHE94      -0.0042
     46  CE1      -40.1100   50.9430  128.5810 C.ar   94  PHE94      -0.0003
     47  CE2      -40.9350   49.6800  130.4450 C.ar   94  PHE94      -0.0003
     48  CZ       -40.3000   49.7220  129.2110 C.ar   94  PHE94      -0.0000
     49  N        -42.3210   56.4790  131.2120 N.am   95  PRO95      -0.2729
     50  CA       -42.8720   57.5120  132.0960 C.3    95  PRO95       0.1401
     51  C        -43.5580   56.8800  133.3070 C.2    95  PRO95       0.2269
     52  O        -44.1820   55.8620  133.1490 O.2    95  PRO95      -0.2865
     53  CB       -43.8890   58.2260  131.2030 C.3    95  PRO95       0.0296
     54  CG       -43.4130   57.9930  129.8220 C.3    95  PRO95       0.0237
     55  CD       -42.8040   56.6250  129.8290 C.3    95  PRO95       0.0939
     56  N        -43.3940   52.2050  136.9410 N.3   104  TYR104     -0.1241
     57  CA       -44.2590   51.9420  135.8100 C.3   104  TYR104      0.1605
     58  C        -45.0150   50.6650  136.1140 C.2   104  TYR104      0.2264
     59  O        -44.4120   49.6780  136.5610 O.2   104  TYR104     -0.2867
     60  CB       -43.4890   51.8190  134.4870 C.3   104  TYR104      0.0534
     61  CG       -44.4300   51.6880  133.3140 C.ar  104  TYR104     -0.0201
     62  CD1      -45.1010   52.7880  132.8160 C.ar  104  TYR104     -0.0009
     63  CD2      -44.7070   50.4500  132.7450 C.ar  104  TYR104     -0.0009
     64  CE1      -45.9900   52.6850  131.7900 C.ar  104  TYR104      0.0417
     65  CE2      -45.6210   50.3380  131.7060 C.ar  104  TYR104      0.0417
     66  CZ       -46.2630   51.4650  131.2400 C.ar  104  TYR104      0.1957
     67  OH       -47.1630   51.3800  130.2130 O.3   104  TYR104     -0.2866
     68  N        -49.9600   49.4600  128.7660 N.3   108  PHE108     -0.1241
     69  CA       -51.0080   50.2570  128.1080 C.3   108  PHE108      0.1605
     70  C        -51.9320   49.4170  127.2320 C.2   108  PHE108      0.2264
     71  O        -52.9660   49.9150  126.7870 O.2   108  PHE108     -0.2867
     72  CB       -50.3850   51.3760  127.2410 C.3   108  PHE108      0.0534
     73  CG       -49.4140   50.8650  126.2340 C.ar  108  PHE108     -0.0203
     74  CD1      -49.8450   50.4000  125.0030 C.ar  108  PHE108     -0.0042
     75  CD2      -48.0630   50.8050  126.5270 C.ar  108  PHE108     -0.0042
     76  CE1      -48.9460   49.8730  124.0880 C.ar  108  PHE108     -0.0003
     77  CE2      -47.1630   50.2690  125.6380 C.ar  108  PHE108     -0.0003
     78  CZ       -47.5990   49.8070  124.3950 C.ar  108  PHE108     -0.0000
     79  N        -47.4700   56.1720  119.6370 N.3   139  GLU139     -0.1231
     80  CA       -46.8570   57.1970  120.4730 C.3   139  GLU139      0.1699
     81  C        -45.9350   56.6040  121.5440 C.2   139  GLU139      0.2592
     82  O        -45.0340   57.2740  122.0370 O.2   139  GLU139     -0.2718
     83  CB       -47.9220   58.1200  121.0960 C.3   139  GLU139      0.0402
     84  CG       -48.8220   57.5170  122.1660 C.3   139  GLU139      0.1161
     85  CD       -49.5710   58.5960  122.9480 C.2   139  GLU139      0.3649
     86  OE1      -49.9180   59.6360  122.3480 O.co2 139  GLU139     -0.2457
     87  OE2      -49.7940   58.4110  124.1600 O.co2 139  GLU139     -0.2457
     88  N        -46.1420   55.3320  121.8820 N.am  140  ALA140     -0.1980
     89  CA       -45.3040   54.6730  122.8780 C.3   140  ALA140      0.1597
     90  C        -44.0580   54.0070  122.2840 C.2   140  ALA140      0.2287
     91  O        -43.1800   53.5680  123.0360 O.2   140  ALA140     -0.2864
     92  CB       -46.1060   53.6470  123.6440 C.3   140  ALA140      0.0319
     93  N        -40.5730   54.9030  123.5630 N.3   143  TYR143     -0.1227
     94  CA       -40.1720   54.3390  124.8500 C.3   143  TYR143      0.1736
     95  C        -39.8320   52.8350  124.8170 C.2   143  TYR143      0.2595
     96  O        -39.0590   52.3550  125.6600 O.2   143  TYR143     -0.2718
     97  CB       -41.2540   54.5520  125.8980 C.3   143  TYR143      0.0548
     98  CG       -41.6120   55.9990  126.0790 C.ar  143  TYR143     -0.0200
     99  CD1      -40.7390   56.8650  126.7140 C.ar  143  TYR143     -0.0009
    100  CD2      -42.8060   56.4910  125.5920 C.ar  143  TYR143     -0.0009
    101  CE1      -41.0570   58.2050  126.8770 C.ar  143  TYR143      0.0417
    102  CE2      -43.1350   57.8180  125.7470 C.ar  143  TYR143      0.0417
    103  CZ       -42.2470   58.6720  126.3740 C.ar  143  TYR143      0.1957
    104  OH       -42.5670   59.9980  126.5350 O.3   143  TYR143     -0.2866
    105  N        -40.4520   52.1040  123.8870 N.am  144  PHE144     -0.1976
    106  CA       -40.2580   50.6570  123.7500 C.3   144  PHE144      0.1639
    107  C        -40.2100   50.3180  122.2610 C.2   144  PHE144      0.2290
    108  O        -41.2330   49.9890  121.6310 O.2   144  PHE144     -0.2864
    109  CB       -41.3900   49.9380  124.4580 C.3   144  PHE144      0.0560
    110  CG       -41.2010   48.4850  124.5710 C.ar  144  PHE144     -0.0200
    111  CD1      -40.3180   47.9670  125.4930 C.ar  144  PHE144     -0.0042
    112  CD2      -41.9130   47.6110  123.7570 C.ar  144  PHE144     -0.0042
    113  CE1      -40.1470   46.5840  125.6060 C.ar  144  PHE144     -0.0003
    114  CE2      -41.7530   46.2330  123.8890 C.ar  144  PHE144     -0.0003
    115  CZ       -40.8700   45.7350  124.7970 C.ar  144  PHE144     -0.0000
    116  N        -37.7670   42.3500  125.5260 N.3   175  PRO175     -0.2116
    117  CA       -38.1460   41.9340  126.8900 C.3   175  PRO175      0.1372
    118  C        -39.5800   41.4550  126.9420 C.2   175  PRO175      0.2244
    119  O        -40.4460   42.0330  126.2750 O.2   175  PRO175     -0.2868
    120  CB       -38.0410   43.2440  127.6890 C.3   175  PRO175      0.0268
    121  CG       -37.1000   44.1010  126.8740 C.3   175  PRO175      0.0207
    122  CD       -37.3330   43.7470  125.4650 C.3   175  PRO175      0.0892
    123  N        -42.7200   40.0360  129.6600 N.3   177  SER177     -0.1217
    124  CA       -43.3980   39.6070  130.8840 C.3   177  SER177      0.1889
    125  C        -44.8710   39.9380  130.6570 C.2   177  SER177      0.2288
    126  O        -45.1990   41.0280  130.2140 O.2   177  SER177     -0.2866
    127  CB       -42.8240   40.3390  132.0640 C.3   177  SER177      0.2089
    128  OG       -43.4680   39.9930  133.2620 O.3   177  SER177     -0.2183
    129  N        -37.3680   42.2250  135.4200 N.3   304  PRO304     -0.2116
    130  CA       -36.1410   42.6420  134.7490 C.3   304  PRO304      0.1372
    131  C        -35.0470   43.1690  135.6790 C.2   304  PRO304      0.2244
    132  O        -33.8870   43.2230  135.2830 O.2   304  PRO304     -0.2868
    133  CB       -36.6250   43.7630  133.8190 C.3   304  PRO304      0.0268
    134  CG       -38.0480   43.5590  133.6920 C.3   304  PRO304      0.0207
    135  CD       -38.5040   43.0360  134.9790 C.3   304  PRO304      0.0892
    136  N        -38.2900   36.0360  133.9990 N.3   315  PHE315     -0.1241
    137  CA       -38.0640   37.0420  132.9900 C.3   315  PHE315      0.1605
    138  C        -37.5830   36.3320  131.7370 C.2   315  PHE315      0.2264
    139  O        -36.7700   35.4160  131.8170 O.2   315  PHE315     -0.2867
    140  CB       -37.0210   38.0360  133.4680 C.3   315  PHE315      0.0534
    141  CG       -36.7070   39.0870  132.4710 C.ar  315  PHE315     -0.0203
    142  CD1      -37.6720   39.9810  132.0880 C.ar  315  PHE315     -0.0042
    143  CD2      -35.4460   39.1630  131.8850 C.ar  315  PHE315     -0.0042
    144  CE1      -37.3840   40.9730  131.1330 C.ar  315  PHE315     -0.0003
    145  CE2      -35.1540   40.1600  130.9670 C.ar  315  PHE315     -0.0003
    146  CZ       -36.1340   41.0650  130.6030 C.ar  315  PHE315     -0.0000
@<TRIPOS>BOND
     1    79    80    1
     2    80    83    1
     3    80    81    1
     4    83    84    1
     5    81    88   am
     6    81    82    2
     7   108   107    2
     8    88    89    1
     9    84    85    1
    10   107   106    1
    11    90    89    1
    12    90    91    2
    13    86    85   ar
    14    89    92    1
    15    85    87   ar
    16    93    94    1
    17   106   105    1
    18   106   109    1
    19   112   114   ar
    20   112   110   ar
    21   105    95   am
    22   114   115   ar
    23    76    78   ar
    24    76    74   ar
    25    78    77   ar
    26   109   110    1
    27   110   111   ar
    28   115   113   ar
    29    95    94    1
    30    95    96    2
    31    94    97    1
    32    74    73   ar
    33    10    11   ar
    34    10     8   ar
    35   122   116    1
    36   122   121    1
    37   111   113   ar
    38   116   117    1
    39   100   102   ar
    40   100    98   ar
    41    77    75   ar
    42    11     9   ar
    43   102   103   ar
    44    97    98    1
    45    98    99   ar
    46     8     6   ar
    47    73    75   ar
    48    73    72    1
    49   119   118    2
    50   103   104    1
    51   103   101   ar
    52    99   101   ar
    53     9     7   ar
    54    71    70    2
    55   121   120    1
    56   117   118    1
    57   117   120    1
    58     6     7   ar
    59     6     5    1
    60    70    69    1
    61    72    69    1
    62     5     2    1
    63    69    68    1
    64    46    44   ar
    65    46    48   ar
    66    44    43   ar
    67    48    47   ar
    68     4     3    2
    69     2     3    1
    70     2     1    1
    71   123   124    1
    72    54    55    1
    73    54    53    1
    74    55    49    1
    75    37    36   ar
    76    37    35   ar
    77     3    12   am
    78    36    34   ar
    79    67    66    1
    80   126   125    2
    81    43    45   ar
    82    43    42    1
    83    47    45   ar
    84   146   145   ar
    85   146   144   ar
    86   125   124    1
    87    39    42    1
    88    39    38    1
    89    39    40    1
    90   124   127    1
    91    35    33   ar
    92   145   143   ar
    93    12    18    1
    94    12    13    1
    95   144   142   ar
    96    53    50    1
    97    49    40   am
    98    49    50    1
    99    66    65   ar
   100    66    64   ar
   101    34    32   ar
   102    30    29    2
   103    18    17    1
   104    40    41    2
   105    65    63   ar
   106   138   139    2
   107   138   137    1
   108    64    62   ar
   109   143   141   ar
   110    13    16    1
   111    13    14    1
   112    33    32   ar
   113   127   128    1
   114   142   141   ar
   115    50    51    1
   116    32    31    1
   117    29    28    1
   118   141   140    1
   119    16    17    1
   120    63    61   ar
   121    62    61   ar
   122    14    15    2
   123   137   140    1
   124   137   136    1
   125    52    51    2
   126    61    60    1
   127    27    28    1
   128    28    31    1
   129   134   133    1
   130   134   135    1
   131   133   130    1
   132    60    57    1
   133    24    26    1
   134    24    23    1
   135   130   129    1
   136   130   131    1
   137   135   129    1
   138   132   131    2
   139    25    23    1
   140    23    20    1
   141    57    58    1
   142    57    56    1
   143    58    59    2
   144    20    19    1
   145    20    21    1
   146    22    21    2
