@<TRIPOS>MOLECULE
tmp/3os7A02.pdb
 105 101 0 0 0
SMALL
GASTEIGER

@<TRIPOS>ATOM
      1  N        -46.6610   28.0140  145.6890 N.3   204  ASP204     -0.1225
      2  CA       -45.3920   27.4180  146.0630 C.3   204  ASP204      0.1805
      3  C        -44.8200   28.2200  147.2320 C.2   204  ASP204      0.2597
      4  O        -44.9670   27.8110  148.3770 O.2   204  ASP204     -0.2718
      5  CB       -44.4590   27.4330  144.8390 C.3   204  ASP204      0.1424
      6  CG       -43.1580   26.6800  145.0690 C.2   204  ASP204      0.3668
      7  OD1      -42.9670   26.0880  146.1560 O.co2 204  ASP204     -0.2456
      8  OD2      -42.3430   26.6610  144.1190 O.co2 204  ASP204     -0.2456
      9  N        -44.2530   29.3990  146.9580 N.am  205  LYS205     -0.1979
     10  CA       -43.7050   30.2500  148.0040 C.3   205  LYS205      0.1596
     11  C        -44.3640   31.6260  147.9860 C.2   205  LYS205      0.2287
     12  O        -44.8690   32.0890  146.9540 O.2   205  LYS205     -0.2864
     13  CB       -42.1700   30.4060  147.8480 C.3   205  LYS205      0.0298
     14  CG       -41.4160   29.0780  147.9510 C.3   205  LYS205      0.0038
     15  CD       -39.9430   29.2740  148.0900 C.3   205  LYS205      0.0206
     16  CE       -39.2970   29.4940  146.7490 C.3   205  LYS205      0.1093
     17  NZ       -37.8610   29.8750  146.8800 N.3   205  LYS205     -0.1314
     18  N        -43.6520   35.6760  148.4330 N.3   207  TRP207     -0.1241
     19  CA       -42.5470   36.6070  148.1220 C.3   207  TRP207      0.1605
     20  C        -42.8470   37.9400  148.7910 C.2   207  TRP207      0.2264
     21  O        -43.8790   38.5810  148.5120 O.2   207  TRP207     -0.2867
     22  CB       -42.3840   36.7530  146.6090 C.3   207  TRP207      0.0550
     23  CG       -41.9510   35.4740  145.9980 C.ar  207  TRP207      0.0003
     24  CD1      -42.7450   34.3840  145.7140 C.ar  207  TRP207      0.0946
     25  CD2      -40.6240   35.1010  145.6390 C.ar  207  TRP207      0.0152
     26  NE1      -41.9940   33.3690  145.1920 N.ar  207  TRP207     -0.2442
     27  CE2      -40.6870   33.7710  145.1290 C.ar  207  TRP207      0.0810
     28  CE3      -39.3780   35.7540  145.6840 C.ar  207  TRP207      0.0012
     29  CZ2      -39.5750   33.0940  144.6850 C.ar  207  TRP207      0.0191
     30  CZ3      -38.2430   35.0620  145.2050 C.ar  207  TRP207      0.0001
     31  CH2      -38.3580   33.7530  144.7200 C.ar  207  TRP207      0.0015
     32  N        -45.2630   32.5700  144.1390 N.3   246  SER246     -0.1202
     33  CA       -44.9650   31.6900  143.0080 C.3   246  SER246      0.2020
     34  C        -45.9880   30.5570  142.9470 C.2   246  SER246      0.2619
     35  O        -46.6220   30.2310  143.9410 O.2   246  SER246     -0.2717
     36  CB       -43.5390   31.1610  143.0760 C.3   246  SER246      0.2103
     37  OG       -43.2250   30.6630  144.3550 O.3   246  SER246     -0.2182
     38  N        -46.0940   29.9290  141.7830 N.am  247  LEU247     -0.1965
     39  CA       -47.0520   28.8610  141.5440 C.3   247  LEU247      0.1728
     40  C        -46.3580   27.5310  141.3550 C.2   247  LEU247      0.2616
     41  O        -45.2170   27.4640  140.8970 O.2   247  LEU247     -0.2715
     42  CB       -47.8520   29.1490  140.2820 C.3   247  LEU247      0.0311
     43  CG       -48.8060   30.3620  140.3620 C.3   247  LEU247      0.0022
     44  CD1      -49.4550   30.5940  139.0050 C.3   247  LEU247      0.0001
     45  CD2      -49.8480   30.1310  141.4450 C.3   247  LEU247      0.0001
     46  N        -47.0760   26.4650  141.6620 N.am  248  LYS248     -0.1977
     47  CA       -46.6310   25.1120  141.3470 C.3   248  LYS248      0.1596
     48  C        -47.8390   24.3060  140.9140 C.2   248  LYS248      0.2287
     49  O        -48.9830   24.7710  141.0540 O.2   248  LYS248     -0.2864
     50  CB       -45.9460   24.4710  142.5480 C.3   248  LYS248      0.0298
     51  CG       -46.8490   24.3290  143.7680 C.3   248  LYS248      0.0038
     52  CD       -46.1940   23.5460  144.9310 C.3   248  LYS248      0.0206
     53  CE       -47.2570   23.1710  145.9480 C.3   248  LYS248      0.1093
     54  NZ       -46.6430   22.6710  147.2020 N.3   248  LYS248     -0.1314
     55  N        -52.7960   23.4640  137.9320 N.3   258  ARG258     -0.1245
     56  CA       -52.1940   24.7160  138.3270 C.3   258  ARG258      0.1563
     57  C        -53.2420   25.8120  138.1520 C.2   258  ARG258      0.2260
     58  O        -53.9320   25.8730  137.1410 O.2   258  ARG258     -0.2867
     59  CB       -50.9480   25.0190  137.5040 C.3   258  ARG258      0.0307
     60  CG       -50.2830   26.3870  137.8120 C.3   258  ARG258      0.0489
     61  CD       -49.0980   26.7290  136.8910 C.3   258  ARG258      0.2205
     62  NE       -48.0390   25.7770  137.1670 N.pl3 258  ARG258     -0.0865
     63  CZ       -46.7410   26.0160  137.2250 C.cat 258  ARG258      0.5346
     64  NH1      -46.2340   27.2100  137.0340 N.pl3 258  ARG258      0.1354
     65  NH2      -45.9260   25.0140  137.5170 N.pl3 258  ARG258      0.1354
     66  N        -48.3950   26.2220  132.5170 N.3   276  SER276     -0.1217
     67  CA       -47.0880   26.3100  133.1760 C.3   276  SER276      0.1889
     68  C        -46.3080   27.5620  132.8380 C.2   276  SER276      0.2288
     69  O        -45.3320   27.9000  133.5200 O.2   276  SER276     -0.2866
     70  CB       -46.2150   25.1000  132.7870 C.3   276  SER276      0.2089
     71  OG       -46.7890   23.8980  133.2200 O.3   276  SER276     -0.2183
     72  N        -46.0260   31.5770  136.1410 N.3   279  LYS279     -0.1231
     73  CA       -45.1560   31.1430  137.2110 C.3   279  LYS279      0.1693
     74  C        -45.3620   31.8580  138.5490 C.2   279  LYS279      0.2592
     75  O        -44.8790   31.3920  139.5910 O.2   279  LYS279     -0.2718
     76  CB       -43.7320   31.3060  136.7290 C.3   279  LYS279      0.0285
     77  CG       -43.4930   30.4310  135.4490 C.3   279  LYS279      0.0035
     78  CD       -42.1080   30.3880  134.9580 C.3   279  LYS279      0.0206
     79  CE       -42.0540   29.6400  133.5770 C.3   279  LYS279      0.1093
     80  NZ       -42.6280   28.2360  133.6260 N.3   279  LYS279     -0.1314
     81  N        -46.0500   32.9980  138.5140 N.am  280  TYR280     -0.1976
     82  CA       -46.3070   33.8290  139.6810 C.3   280  TYR280      0.1639
     83  C        -47.7550   34.2960  139.6450 C.2   280  TYR280      0.2290
     84  O        -48.4260   34.1770  138.6210 O.2   280  TYR280     -0.2864
     85  CB       -45.3780   35.0630  139.7400 C.3   280  TYR280      0.0560
     86  CG       -43.9760   34.7240  140.1290 C.ar  280  TYR280     -0.0198
     87  CD1      -43.0420   34.3110  139.1620 C.ar  280  TYR280     -0.0009
     88  CD2      -43.5660   34.7800  141.4570 C.ar  280  TYR280     -0.0009
     89  CE1      -41.7470   33.9540  139.5330 C.ar  280  TYR280      0.0417
     90  CE2      -42.2590   34.4580  141.8270 C.ar  280  TYR280      0.0417
     91  CZ       -41.3570   34.0400  140.8680 C.ar  280  TYR280      0.1957
     92  OH       -40.0620   33.7040  141.2530 O.3   280  TYR280     -0.2866
     93  N        -34.3720   31.4940  135.5000 N.3   311  SER311     -0.1202
     94  CA       -35.1380   30.2910  135.7790 C.3   311  SER311      0.2020
     95  C        -36.0240   30.4950  137.0010 C.2   311  SER311      0.2618
     96  O        -37.0900   29.9210  137.0620 O.2   311  SER311     -0.2717
     97  CB       -34.2330   29.0690  135.9890 C.3   311  SER311      0.2103
     98  OG       -33.4220   29.2500  137.1270 O.3   311  SER311     -0.2182
     99  N        -35.5840   31.3090  137.9560 N.am  312  VAL312     -0.1979
    100  CA       -36.4000   31.6440  139.1350 C.3   312  VAL312      0.1595
    101  C        -37.3570   32.8380  138.8810 C.2   312  VAL312      0.2287
    102  O        -38.5360   32.7820  139.2410 O.2   312  VAL312     -0.2864
    103  CB       -35.5070   31.9500  140.3560 C.3   312  VAL312      0.0276
    104  CG1      -36.3180   32.4600  141.5400 C.3   312  VAL312      0.0022
    105  CG2      -34.7400   30.7040  140.7470 C.3   312  VAL312      0.0022
@<TRIPOS>BOND
     1    66    67    1
     2    70    67    1
     3    70    71    1
     4    68    67    1
     5    68    69    2
     6    79    80    1
     7    79    78    1
     8    78    77    1
     9    77    76    1
    10    93    94    1
    11    94    97    1
    12    94    95    1
    13    97    98    1
    14    72    73    1
    15    76    73    1
    16    61    62    1
    17    61    60    1
    18    95    96    2
    19    95    99   am
    20    64    63    1
    21    58    57    2
    22    62    63    2
    23    73    74    1
    24    63    65    1
    25    59    60    1
    26    59    56    1
    27    55    56    1
    28    99   100    1
    29    57    56    1
    30    81    74   am
    31    81    82    1
    32    74    75    2
    33    84    83    2
    34   101   100    1
    35   101   102    2
    36    44    43    1
    37   100   103    1
    38    87    89   ar
    39    87    86   ar
    40    89    91   ar
    41    83    82    1
    42    82    85    1
    43    85    86    1
    44    86    88   ar
    45    42    43    1
    46    42    39    1
    47   103   105    1
    48   103   104    1
    49    43    45    1
    50    91    92    1
    51    91    90   ar
    52    41    40    2
    53    48    49    2
    54    48    47    1
    55    47    46    1
    56    47    50    1
    57    40    39    1
    58    40    46   am
    59    88    90   ar
    60    39    38    1
    61    38    34   am
    62    50    51    1
    63    34    33    1
    64    34    35    2
    65    33    36    1
    66    33    32    1
    67    36    37    1
    68    51    52    1
    69     8     6   ar
    70    29    31   ar
    71    29    27   ar
    72    31    30   ar
    73     5     6    1
    74     5     2    1
    75    52    53    1
    76     6     7   ar
    77    27    26   ar
    78    27    25   ar
    79    26    24   ar
    80    30    28   ar
    81    25    28   ar
    82    25    23   ar
    83     1     2    1
    84    24    23   ar
    85    53    54    1
    86    23    22    1
    87     2     3    1
    88    22    19    1
    89    16    17    1
    90    16    15    1
    91    12    11    2
    92     9     3   am
    93     9    10    1
    94     3     4    2
    95    13    14    1
    96    13    10    1
    97    14    15    1
    98    11    10    1
    99    19    18    1
   100    19    20    1
   101    21    20    2
