@<TRIPOS>MOLECULE
tmp/3os7A01.pdb
 106 102 0 0 0
SMALL
GASTEIGER

@<TRIPOS>ATOM
      1  N        -59.7760   52.8990  133.7200 N.3    65  ARG65      -0.1245
      2  CA       -59.4310   51.8970  134.7570 C.3    65  ARG65       0.1563
      3  C        -60.0820   50.5420  134.4370 C.2    65  ARG65       0.2260
      4  O        -60.9710   50.0630  135.1280 O.2    65  ARG65      -0.2867
      5  CB       -59.8570   52.3940  136.1290 C.3    65  ARG65       0.0307
      6  CG       -59.1380   51.6950  137.2590 C.3    65  ARG65       0.0489
      7  CD       -59.8900   51.8860  138.5410 C.3    65  ARG65       0.2205
      8  NE       -59.1680   51.3070  139.6720 N.pl3  65  ARG65      -0.0865
      9  CZ       -59.6780   51.2110  140.8880 C.cat  65  ARG65       0.5346
     10  NH1      -60.9060   51.6320  141.1210 N.pl3  65  ARG65       0.1354
     11  NH2      -58.9760   50.6530  141.8540 N.pl3  65  ARG65       0.1354
     12  N        -58.6700   47.6510  134.4910 N.3    67  GLN67      -0.1231
     13  CA       -58.0500   46.5420  135.1810 C.3    67  GLN67       0.1698
     14  C        -58.8390   45.9450  136.3580 C.2    67  GLN67       0.2592
     15  O        -58.4560   44.8930  136.8600 O.2    67  GLN67      -0.2718
     16  CB       -56.6510   46.9120  135.6690 C.3    67  GLN67       0.0381
     17  CG       -56.5870   48.0230  136.6920 C.3    67  GLN67       0.0905
     18  CD       -56.3920   49.3450  136.0490 C.2    67  GLN67       0.2608
     19  OE1      -56.7410   49.5190  134.8930 O.2    67  GLN67      -0.2717
     20  NE2      -55.8530   50.3150  136.7980 N.am   67  GLN67      -0.0878
     21  N        -59.8930   46.6210  136.8140 N.am   68  VAL68      -0.1980
     22  CA       -60.7670   46.0990  137.8710 C.3    68  VAL68       0.1595
     23  C        -62.0330   45.4000  137.3560 C.2    68  VAL68       0.2287
     24  O        -62.9210   45.0940  138.1330 O.2    68  VAL68      -0.2864
     25  CB       -61.1070   47.1860  138.8860 C.3    68  VAL68       0.0276
     26  CG1      -59.8350   47.6430  139.5240 C.3    68  VAL68       0.0022
     27  CG2      -61.9080   48.3570  138.2580 C.3    68  VAL68       0.0022
     28  N        -47.9060   44.3120  136.6660 N.3    78  ASN78      -0.1225
     29  CA       -47.4110   44.9090  137.8790 C.3    78  ASN78       0.1785
     30  C        -46.2140   45.8350  137.6260 C.2    78  ASN78       0.2597
     31  O        -46.0400   46.3380  136.4880 O.2    78  ASN78      -0.2718
     32  CB       -47.1180   43.8070  138.9040 C.3    78  ASN78       0.1169
     33  CG       -47.4260   44.2480  140.3230 C.2    78  ASN78       0.2627
     34  OD1      -46.6870   45.0320  140.9040 O.2    78  ASN78      -0.2716
     35  ND2      -48.5290   43.7670  140.8700 N.am   78  ASN78      -0.0877
     36  N        -45.3780   46.0340  138.6460 N.am   79  ARG79      -0.1979
     37  CA       -44.4290   47.1470  138.7060 C.3    79  ARG79       0.1597
     38  C        -43.0240   46.9360  138.1160 C.2    79  ARG79       0.2287
     39  O        -42.4500   45.8540  138.1890 O.2    79  ARG79      -0.2864
     40  CB       -44.2950   47.6070  140.1580 C.3    79  ARG79       0.0334
     41  CG       -45.5770   48.1320  140.7280 C.3    79  ARG79       0.0492
     42  CD       -45.5420   48.0510  142.2330 C.3    79  ARG79       0.2205
     43  NE       -46.7340   48.6770  142.7740 N.pl3  79  ARG79      -0.0865
     44  CZ       -47.8720   48.0570  143.0240 C.cat  79  ARG79       0.5346
     45  NH1      -48.0050   46.7520  142.8320 N.pl3  79  ARG79       0.1354
     46  NH2      -48.8810   48.7580  143.4960 N.pl3  79  ARG79       0.1354
     47  N        -46.3250   50.6380  135.8380 N.3   105  ILE105     -0.1231
     48  CA       -47.1400   49.4750  136.2480 C.3   105  ILE105      0.1692
     49  C        -48.1200   49.0920  135.1380 C.2   105  ILE105      0.2592
     50  O        -48.6810   49.9710  134.4740 O.2   105  ILE105     -0.2718
     51  CB       -47.8960   49.7610  137.5680 C.3   105  ILE105      0.0266
     52  CG1      -48.4000   48.4870  138.2240 C.3   105  ILE105      0.0019
     53  CG2      -49.0420   50.7380  137.3340 C.3   105  ILE105      0.0020
     54  CD1      -49.1020   48.6840  139.6300 C.3   105  ILE105      0.0001
     55  N        -48.2630   47.7770  134.9140 N.am  106  HIS106     -0.1976
     56  CA       -49.3450   47.1450  134.1380 C.3   106  HIS106      0.1656
     57  C        -49.3570   47.2830  132.6050 C.2   106  HIS106      0.2291
     58  O        -49.9480   46.4470  131.9110 O.2   106  HIS106     -0.2864
     59  CB       -50.7140   47.5340  134.6920 C.3   106  HIS106      0.0771
     60  CG       -50.9860   47.0080  136.0650 C.ar  106  HIS106      0.0820
     61  ND1      -50.5120   45.7810  136.5080 N.ar  106  HIS106     -0.2267
     62  CD2      -51.7320   47.5180  137.0760 C.ar  106  HIS106      0.1154
     63  CE1      -50.9200   45.5960  137.7580 C.ar  106  HIS106      0.1986
     64  NE2      -51.6560   46.6370  138.1240 N.ar  106  HIS106     -0.2212
     65  N        -54.9130   40.9010  135.0070 N.3   181  HIS181     -0.1241
     66  CA       -55.4400   41.4670  136.2490 C.3   181  HIS181      0.1621
     67  C        -56.8780   40.9860  136.4880 C.2   181  HIS181      0.2264
     68  O        -57.7600   41.7590  136.8580 O.2   181  HIS181     -0.2867
     69  CB       -55.3670   42.9670  136.1290 C.3   181  HIS181      0.0745
     70  CG       -55.3300   43.6890  137.4300 C.ar  181  HIS181      0.0817
     71  ND1      -56.3870   43.6770  138.3110 N.ar  181  HIS181     -0.2268
     72  CD2      -54.3910   44.4990  137.9760 C.ar  181  HIS181      0.1154
     73  CE1      -56.0960   44.4360  139.3590 C.ar  181  HIS181      0.1986
     74  NE2      -54.8870   44.9430  139.1810 N.ar  181  HIS181     -0.2212
     75  N        -53.3150   41.4990  149.7540 N.3   242  GLU242     -0.1245
     76  CA       -52.4880   41.9200  148.6080 C.3   242  GLU242      0.1567
     77  C        -51.1960   41.1360  148.7190 C.2   242  GLU242      0.2260
     78  O        -50.3380   41.4690  149.5400 O.2   242  GLU242     -0.2867
     79  CB       -52.2250   43.4370  148.5960 C.3   242  GLU242      0.0388
     80  CG       -51.4780   43.9020  147.3480 C.3   242  GLU242      0.1160
     81  CD       -51.2150   45.4210  147.2880 C.2   242  GLU242      0.3649
     82  OE1      -51.7880   46.1810  148.1000 O.co2 242  GLU242     -0.2457
     83  OE2      -50.4290   45.8340  146.4030 O.co2 242  GLU242     -0.2457
     84  N        -55.2730   40.1790  144.9950 N.3   284  TRP284     -0.1241
     85  CA       -55.5720   41.4970  145.5220 C.3   284  TRP284      0.1605
     86  C        -57.0870   41.6390  145.5450 C.2   284  TRP284      0.2264
     87  O        -57.7180   41.5110  144.5000 O.2   284  TRP284     -0.2867
     88  CB       -54.9530   42.5690  144.6370 C.3   284  TRP284      0.0550
     89  CG       -55.3740   43.9780  144.9640 C.ar  284  TRP284      0.0003
     90  CD1      -54.9570   44.7380  146.0150 C.ar  284  TRP284      0.0946
     91  CD2      -56.2740   44.8100  144.1970 C.ar  284  TRP284      0.0152
     92  NE1      -55.5480   45.9900  145.9580 N.ar  284  TRP284     -0.2442
     93  CE2      -56.3530   46.0530  144.8490 C.ar  284  TRP284      0.0810
     94  CE3      -57.0420   44.6060  143.0330 C.ar  284  TRP284      0.0012
     95  CZ2      -57.1590   47.0980  144.3720 C.ar  284  TRP284      0.0191
     96  CZ3      -57.8370   45.6410  142.5690 C.ar  284  TRP284      0.0001
     97  CH2      -57.8930   46.8630  143.2420 C.ar  284  TRP284      0.0015
     98  N        -54.3700   37.1490  139.7210 N.3   295  GLU295     -0.1245
     99  CA       -53.5700   37.7670  138.6750 C.3   295  GLU295      0.1567
    100  C        -52.3410   36.9120  138.3070 C.2   295  GLU295      0.2260
    101  O        -51.2870   37.0790  138.8820 O.2   295  GLU295     -0.2867
    102  CB       -53.1380   39.1580  139.1230 C.3   295  GLU295      0.0388
    103  CG       -54.2820   40.0380  139.7250 C.3   295  GLU295      0.1160
    104  CD       -53.7800   41.4130  140.2120 C.2   295  GLU295      0.3649
    105  OE1      -52.6920   41.8320  139.7940 O.co2 295  GLU295     -0.2457
    106  OE2      -54.4590   42.0660  141.0240 O.co2 295  GLU295     -0.2457
@<TRIPOS>BOND
     1    58    57    2
     2    57    56    1
     3     1     2    1
     4    56    59    1
     5    56    55    1
     6     3     2    1
     7     3     4    2
     8    50    49    2
     9    12    13    1
    10    59    60    1
    11     2     5    1
    12    19    18    2
    13    55    49   am
    14    65    66    1
    15    49    48    1
    16    13    16    1
    17    13    14    1
    18    16    17    1
    19    47    48    1
    20    18    17    1
    21    18    20   am
    22    60    61   ar
    23    60    62   ar
    24    69    66    1
    25    69    70    1
    26     5     6    1
    27    48    51    1
    28    66    67    1
    29    14    21   am
    30    14    15    2
    31    67    68    2
    32    31    30    2
    33    61    63   ar
    34    28    29    1
    35    21    22    1
    36    62    64   ar
    37     6     7    1
    38    53    51    1
    39    23    22    1
    40    23    24    2
    41    70    72   ar
    42    70    71   ar
    43    51    52    1
    44    30    29    1
    45    30    36   am
    46    63    64   ar
    47    22    25    1
    48    29    32    1
    49    72    74   ar
    50    38    39    2
    51    38    37    1
    52    52    54    1
    53    27    25    1
    54   100    99    1
    55   100   101    2
    56    71    73   ar
    57     7     8    1
    58    36    37    1
    59    99   102    1
    60    99    98    1
    61    37    40    1
    62    25    26    1
    63    32    33    1
    64   102   103    1
    65    74    73   ar
    66     8     9    2
    67   103   104    1
    68   105   104   ar
    69    40    41    1
    70   104   106   ar
    71    33    35   am
    72    33    34    2
    73    41    42    1
    74     9    10    1
    75     9    11    1
    76    42    43    1
    77    96    94   ar
    78    96    97   ar
    79    43    44    2
    80    45    44    1
    81    44    46    1
    82    94    91   ar
    83    97    95   ar
    84    91    93   ar
    85    91    89   ar
    86    95    93   ar
    87    87    86    2
    88    88    89    1
    89    88    85    1
    90    93    92   ar
    91    89    90   ar
    92    84    85    1
    93    85    86    1
    94    92    90   ar
    95    83    81   ar
    96    81    80    1
    97    81    82   ar
    98    80    79    1
    99    79    76    1
   100    76    77    1
   101    76    75    1
   102    77    78    2
