@<TRIPOS>MOLECULE
tmp/3os8B00.pdb
 185 175 0 0 0
SMALL
GASTEIGER

@<TRIPOS>ATOM
      1  N         24.9070   45.6350  -63.8920 N.3    37  MET37      -0.1230
      2  CA        24.0090   44.8190  -64.6980 C.3    37  MET37       0.1702
      3  C         23.2130   43.8650  -63.8080 C.2    37  MET37       0.2592
      4  O         21.9960   43.7500  -63.9410 O.2    37  MET37      -0.2718
      5  CB        24.7670   44.0310  -65.7620 C.3    37  MET37       0.0401
      6  CG        23.8760   43.5680  -66.9020 C.3    37  MET37       0.0596
      7  SD        24.6410   42.2940  -67.9170 S.3    37  MET37      -0.1393
      8  CE        24.7150   40.9350  -66.7530 C.3    37  MET37       0.0692
      9  N         23.9070   43.1900  -62.8960 N.am   38  MET38      -0.1979
     10  CA        23.2540   42.2970  -61.9450 C.3    38  MET38       0.1605
     11  C         22.1740   43.0250  -61.1610 C.2    38  MET38       0.2287
     12  O         21.0990   42.4800  -60.9140 O.2    38  MET38      -0.2864
     13  CB        24.2760   41.6820  -60.9830 C.3    38  MET38       0.0413
     14  CG        25.1100   40.5580  -61.5910 C.3    38  MET38       0.0598
     15  SD        24.0710   39.3020  -62.3690 S.3    38  MET38      -0.1393
     16  CE        22.8460   39.0400  -61.0900 C.3    38  MET38       0.0692
     17  N         19.2740   43.3050  -63.5240 N.3    41  LEU41      -0.1231
     18  CA        18.6060   42.0250  -63.7560 C.3    41  LEU41       0.1693
     19  C         17.8250   41.5900  -62.5240 C.2    41  LEU41       0.2592
     20  O         16.6910   41.1380  -62.6250 O.2    41  LEU41      -0.2718
     21  CB        19.6300   40.9520  -64.1300 C.3    41  LEU41       0.0284
     22  CG        20.4130   41.1710  -65.4190 C.3    41  LEU41       0.0019
     23  CD1       21.4120   40.0440  -65.6070 C.3    41  LEU41       0.0001
     24  CD2       19.4730   41.2540  -66.5950 C.3    41  LEU41       0.0001
     25  N         18.4500   41.7320  -61.3610 N.am   42  THR42      -0.1953
     26  CA        17.8370   41.3690  -60.0920 C.3    42  THR42       0.1897
     27  C         16.5960   42.2000  -59.7920 C.2    42  THR42       0.2313
     28  O         15.5580   41.6600  -59.4000 O.2    42  THR42      -0.2863
     29  CB        18.8380   41.5430  -58.9390 C.3    42  THR42       0.1794
     30  OG1       19.7530   40.4390  -58.9380 O.3    42  THR42      -0.2208
     31  CG2       18.1150   41.5970  -57.6070 C.3    42  THR42       0.0378
     32  N         14.7440   43.7680  -61.9300 N.3    44  LEU44      -0.1231
     33  CA        13.7500   43.3610  -62.9020 C.3    44  LEU44       0.1693
     34  C         13.0680   42.0600  -62.4830 C.2    44  LEU44       0.2591
     35  O         11.8370   41.9730  -62.4530 O.2    44  LEU44      -0.2718
     36  CB        14.3920   43.2200  -64.2770 C.3    44  LEU44       0.0284
     37  CG        13.4800   42.7330  -65.4040 C.3    44  LEU44       0.0019
     38  CD1       12.2950   43.6790  -65.5850 C.3    44  LEU44       0.0001
     39  CD2       14.2830   42.5910  -66.7000 C.3    44  LEU44       0.0001
     40  N         13.8680   41.0560  -62.1440 N.am   45  ALA45      -0.1980
     41  CA        13.3280   39.7670  -61.7240 C.3    45  ALA45       0.1597
     42  C         12.4360   39.9140  -60.4980 C.2    45  ALA45       0.2287
     43  O         11.3710   39.3020  -60.4220 O.2    45  ALA45      -0.2864
     44  CB        14.4580   38.7740  -61.4510 C.3    45  ALA45       0.0319
     45  N          9.1520   41.1440  -61.5360 N.3    48  GLU48      -0.1245
     46  CA         8.3840   40.1550  -62.2900 C.3    48  GLU48       0.1567
     47  C          7.8060   39.0760  -61.3890 C.2    48  GLU48       0.2260
     48  O          6.7980   38.4450  -61.7260 O.2    48  GLU48      -0.2867
     49  CB         9.2380   39.5030  -63.3720 C.3    48  GLU48       0.0388
     50  CG         9.6780   40.4560  -64.4590 C.3    48  GLU48       0.1160
     51  CD        10.4280   39.7500  -65.5630 C.2    48  GLU48       0.3649
     52  OE1       11.6720   39.6560  -65.4650 O.co2  48  GLU48      -0.2457
     53  OE2        9.7750   39.2860  -66.5240 O.co2  48  GLU48      -0.2457
     54  N         10.8880   29.4350  -60.4460 N.3    78  TRP78      -0.1227
     55  CA        10.8440   30.8550  -60.8040 C.3    78  TRP78       0.1737
     56  C         11.8550   31.2640  -61.8780 C.2    78  TRP78       0.2595
     57  O         11.4890   31.9380  -62.8370 O.2    78  TRP78      -0.2718
     58  CB        10.9250   31.7700  -59.5740 C.3    78  TRP78       0.0564
     59  CG        12.2610   31.8080  -58.9030 C.ar   78  TRP78       0.0003
     60  CD1       12.6980   30.9950  -57.8950 C.ar   78  TRP78       0.0946
     61  CD2       13.3300   32.7190  -59.1760 C.ar   78  TRP78       0.0152
     62  NE1       13.9780   31.3380  -57.5340 N.ar   78  TRP78      -0.2442
     63  CE2       14.3890   32.3980  -58.3040 C.ar   78  TRP78       0.0810
     64  CE3       13.5000   33.7740  -60.0820 C.ar   78  TRP78       0.0012
     65  CZ2       15.6000   33.0870  -58.3080 C.ar   78  TRP78       0.0191
     66  CZ3       14.7040   34.4670  -60.0810 C.ar   78  TRP78       0.0001
     67  CH2       15.7380   34.1170  -59.2000 C.ar   78  TRP78       0.0015
     68  N         13.1090   30.8390  -61.7490 N.am   79  LEU79      -0.1980
     69  CA        14.1320   31.2620  -62.7120 C.3    79  LEU79       0.1596
     70  C         13.9220   30.6270  -64.0890 C.2    79  LEU79       0.2287
     71  O         14.0570   31.2990  -65.1100 O.2    79  LEU79      -0.2864
     72  CB        15.5480   30.9780  -62.1870 C.3    79  LEU79       0.0297
     73  CG        16.6720   31.5790  -63.0320 C.3    79  LEU79       0.0022
     74  CD1       16.4220   33.0680  -63.2540 C.3    79  LEU79       0.0001
     75  CD2       18.0480   31.3480  -62.4030 C.3    79  LEU79       0.0001
     76  N         11.2490   32.6300  -65.6540 N.3    82  LEU82      -0.1231
     77  CA        11.7550   33.9040  -66.1690 C.3    82  LEU82       0.1693
     78  C         12.5680   33.6730  -67.4440 C.2    82  LEU82       0.2591
     79  O         12.4480   34.4250  -68.4140 O.2    82  LEU82      -0.2718
     80  CB        12.6060   34.6450  -65.1260 C.3    82  LEU82       0.0284
     81  CG        11.9170   35.2820  -63.9050 C.3    82  LEU82       0.0019
     82  CD1       12.9510   35.8900  -62.9650 C.3    82  LEU82       0.0001
     83  CD2       10.8890   36.3390  -64.3090 C.3    82  LEU82       0.0001
     84  N         13.3780   32.6150  -67.4480 N.am   83  MET83      -0.1979
     85  CA        14.2580   32.3350  -68.5810 C.3    83  MET83       0.1605
     86  C         13.5180   31.9710  -69.8620 C.2    83  MET83       0.2287
     87  O         13.8900   32.4330  -70.9430 O.2    83  MET83      -0.2864
     88  CB        15.2760   31.2540  -68.2320 C.3    83  MET83       0.0413
     89  CG        16.4030   31.7430  -67.3320 C.3    83  MET83       0.0598
     90  SD        17.4980   30.4070  -66.8020 S.3    83  MET83      -0.1393
     91  CE        18.8760   31.3560  -66.1510 C.3    83  MET83       0.0692
     92  N         12.2310   34.9890  -71.2720 N.3    86  LEU86      -0.1245
     93  CA        13.3200   35.7200  -71.9250 C.3    86  LEU86       0.1561
     94  C         13.6260   35.1580  -73.3050 C.2    86  LEU86       0.2260
     95  O         13.8510   35.8980  -74.2610 O.2    86  LEU86      -0.2867
     96  CB        14.5930   35.6500  -71.0780 C.3    86  LEU86       0.0270
     97  CG        15.8570   36.2370  -71.7130 C.3    86  LEU86       0.0019
     98  CD1       15.7200   37.7460  -71.8610 C.3    86  LEU86       0.0001
     99  CD2       17.0870   35.9080  -70.8790 C.3    86  LEU86       0.0001
    100  N         10.8310   36.1520  -75.7580 N.3    89  ARG89      -0.1245
    101  CA        10.9730   37.5500  -76.1570 C.3    89  ARG89       0.1563
    102  C         12.1010   37.7640  -77.1630 C.2    89  ARG89       0.2260
    103  O         12.0110   38.6240  -78.0450 O.2    89  ARG89      -0.2867
    104  CB        11.2320   38.4310  -74.9350 C.3    89  ARG89       0.0307
    105  CG        10.1240   38.4020  -73.9030 C.3    89  ARG89       0.0489
    106  CD        10.1850   39.6200  -72.9910 C.3    89  ARG89       0.2205
    107  NE        11.3180   39.6320  -72.0640 N.pl3  89  ARG89      -0.0865
    108  CZ        11.3480   38.9670  -70.9080 C.cat  89  ARG89       0.5346
    109  NH1       10.3210   38.2130  -70.5450 N.pl3  89  ARG89       0.1354
    110  NH2       12.4030   39.0490  -70.1080 N.pl3  89  ARG89       0.1354
    111  N         15.9410   41.2530  -72.3420 N.3    99  PHE99      -0.1241
    112  CA        15.5520   41.1350  -70.9370 C.3    99  PHE99       0.1605
    113  C         14.3600   42.0470  -70.6660 C.2    99  PHE99       0.2264
    114  O         13.4610   41.7150  -69.8860 O.2    99  PHE99      -0.2867
    115  CB        16.7310   41.4750  -70.0140 C.3    99  PHE99       0.0534
    116  CG        17.8810   40.5050  -70.1140 C.ar   99  PHE99      -0.0203
    117  CD1       17.9510   39.4030  -69.2770 C.ar   99  PHE99      -0.0042
    118  CD2       18.8900   40.6940  -71.0460 C.ar   99  PHE99      -0.0042
    119  CE1       19.0060   38.5060  -69.3700 C.ar   99  PHE99      -0.0003
    120  CE2       19.9450   39.7980  -71.1460 C.ar   99  PHE99      -0.0003
    121  CZ        20.0070   38.7070  -70.3040 C.ar   99  PHE99      -0.0000
    122  N         28.9940   33.4680  -66.5820 N.3   115  MET115     -0.1245
    123  CA        27.7840   34.1510  -67.0200 C.3   115  MET115      0.1570
    124  C         27.6610   34.1180  -68.5380 C.2   115  MET115      0.2261
    125  O         26.5740   33.9310  -69.0760 O.2   115  MET115     -0.2867
    126  CB        27.7900   35.5990  -66.5270 C.3   115  MET115      0.0387
    127  CG        27.7410   35.7300  -65.0160 C.3   115  MET115      0.0595
    128  SD        26.0500   35.7330  -64.3990 S.3   115  MET115     -0.1393
    129  CE        25.5350   37.3780  -64.8860 C.3   115  MET115      0.0692
    130  N         26.1190   30.9320  -69.7830 N.3   118  ILE118     -0.1231
    131  CA        24.6670   30.9640  -69.6430 C.3   118  ILE118      0.1692
    132  C         24.0330   31.8530  -70.7090 C.2   118  ILE118      0.2592
    133  O         23.0150   31.5020  -71.3050 O.2   118  ILE118     -0.2718
    134  CB        24.2420   31.4930  -68.2640 C.3   118  ILE118      0.0266
    135  CG1       24.8370   30.6260  -67.1510 C.3   118  ILE118      0.0019
    136  CG2       22.7170   31.5520  -68.1690 C.3   118  ILE118      0.0020
    137  CD1       24.7790   31.2700  -65.7710 C.3   118  ILE118      0.0001
    138  N         24.6370   33.0120  -70.9370 N.am  119  PHE119     -0.1976
    139  CA        24.1660   33.9160  -71.9700 C.3   119  PHE119      0.1639
    140  C         24.1660   33.1710  -73.3050 C.2   119  PHE119      0.2290
    141  O         23.1800   33.1840  -74.0410 O.2   119  PHE119     -0.2864
    142  CB        25.0700   35.1510  -72.0410 C.3   119  PHE119      0.0560
    143  CG        24.4690   36.3050  -72.7960 C.ar  119  PHE119     -0.0200
    144  CD1       24.5060   36.3400  -74.1780 C.ar  119  PHE119     -0.0042
    145  CD2       23.8770   37.3570  -72.1210 C.ar  119  PHE119     -0.0042
    146  CE1       23.9580   37.3970  -74.8710 C.ar  119  PHE119     -0.0003
    147  CE2       23.3290   38.4210  -72.8120 C.ar  119  PHE119     -0.0003
    148  CZ        23.3700   38.4390  -74.1900 C.ar  119  PHE119     -0.0000
    149  N         21.3450   30.7340  -73.4090 N.3   122  LEU122     -0.1245
    150  CA        20.0600   31.3950  -73.5920 C.3   122  LEU122      0.1561
    151  C         19.8480   31.7480  -75.0650 C.2   122  LEU122      0.2260
    152  O         18.7710   31.5120  -75.6260 O.2   122  LEU122     -0.2867
    153  CB        19.9590   32.6360  -72.7020 C.3   122  LEU122      0.0270
    154  CG        19.8360   32.3120  -71.2040 C.3   122  LEU122      0.0019
    155  CD1       20.1630   33.5150  -70.3440 C.3   122  LEU122      0.0001
    156  CD2       18.4510   31.7740  -70.8840 C.3   122  LEU122      0.0001
    157  N         22.3440   29.3880  -63.2570 N.3   215  GLY215     -0.1225
    158  CA        22.0170   30.7320  -62.8240 C.3   215  GLY215      0.1811
    159  C         21.7780   30.7970  -61.3270 C.2   215  GLY215      0.2280
    160  O         22.2450   31.7090  -60.6470 O.2   215  GLY215     -0.2866
    161  N         25.0540   30.7930  -59.5060 N.3   218  HIS218     -0.1226
    162  CA        25.6970   32.1050  -59.4770 C.3   218  HIS218      0.1752
    163  C         25.0230   33.0300  -58.4610 C.2   218  HIS218      0.2595
    164  O         25.6980   33.7300  -57.7080 O.2   218  HIS218     -0.2718
    165  CB        25.6650   32.7400  -60.8690 C.3   218  HIS218      0.0759
    166  CG        26.5260   33.9560  -61.0000 C.ar  218  HIS218      0.0818
    167  ND1       26.0360   35.2370  -60.8660 N.ar  218  HIS218     -0.2268
    168  CD2       27.8510   34.0870  -61.2580 C.ar  218  HIS218      0.1154
    169  CE1       27.0180   36.1040  -61.0340 C.ar  218  HIS218      0.1986
    170  NE2       28.1310   35.4300  -61.2730 N.ar  218  HIS218     -0.2212
    171  N         23.6910   33.0270  -58.4510 N.am  219  LEU219     -0.1980
    172  CA        22.9130   33.8230  -57.5020 C.3   219  LEU219      0.1596
    173  C         23.3060   33.5640  -56.0500 C.2   219  LEU219      0.2287
    174  O         23.3700   34.4900  -55.2390 O.2   219  LEU219     -0.2864
    175  CB        21.4150   33.5710  -57.6810 C.3   219  LEU219      0.0297
    176  CG        20.7420   34.2790  -58.8570 C.3   219  LEU219      0.0022
    177  CD1       19.2540   33.9510  -58.9080 C.3   219  LEU219      0.0001
    178  CD2       20.9550   35.7680  -58.7610 C.3   219  LEU219      0.0001
    179  N         18.6690   37.6570  -53.8250 N.3   227  VAL227     -0.1245
    180  CA        17.8210   38.0750  -54.9310 C.3   227  VAL227      0.1561
    181  C         16.9410   36.8520  -55.0970 C.2   227  VAL227      0.2260
    182  O         15.9070   36.8840  -55.7650 O.2   227  VAL227     -0.2867
    183  CB        18.5750   38.3910  -56.2410 C.3   227  VAL227      0.0252
    184  CG1       20.0570   38.6210  -55.9880 C.3   227  VAL227      0.0019
    185  CG2       18.3550   37.2900  -57.2700 C.3   227  VAL227      0.0019
@<TRIPOS>BOND
     1   103   102    2
     2   102   101    1
     3   101   100    1
     4   101   104    1
     5   152   151    2
     6   151   150    1
     7   104   105    1
     8   146   148   ar
     9   146   144   ar
    10    95    94    2
    11   148   147   ar
    12   144   143   ar
    13   141   140    2
    14   105   106    1
    15   150   149    1
    16   150   153    1
    17    94    93    1
    18   140   139    1
    19   106   107    1
    20   147   145   ar
    21   143   145   ar
    22   143   142    1
    23   153   154    1
    24   111   112    1
    25   107   108    2
    26   142   139    1
    27   139   138    1
    28    93    92    1
    29    93    96    1
    30    98    97    1
    31    97    96    1
    32    97    99    1
    33   133   132    2
    34   154   156    1
    35   154   155    1
    36   120   118   ar
    37   120   121   ar
    38   118   116   ar
    39    87    86    2
    40   138   132   am
    41   112   113    1
    42   112   115    1
    43   108   109    1
    44   108   110    1
    45   132   131    1
    46   113   114    2
    47   121   119   ar
    48   116   115    1
    49   116   117   ar
    50    86    85    1
    51   130   131    1
    52   131   134    1
    53   119   117   ar
    54   125   124    2
    55    85    88    1
    56    85    84    1
    57   124   123    1
    58    79    78    2
    59   134   136    1
    60   134   135    1
    61    88    89    1
    62     7     6    1
    63     7     8    1
    64    84    78   am
    65    78    77    1
    66    89    90    1
    67   135   137    1
    68   123   122    1
    69   123   126    1
    70     6     5    1
    71    90    91    1
    72    39    37    1
    73    24    22    1
    74   126   127    1
    75    53    51   ar
    76    77    76    1
    77    77    80    1
    78     5     2    1
    79    23    22    1
    80    38    37    1
    81    51    52   ar
    82    51    50    1
    83    22    21    1
    84    37    36    1
    85    80    81    1
    86    71    70    2
    87   127   128    1
    88   129   128    1
    89     2     1    1
    90     2     3    1
    91    50    49    1
    92    83    81    1
    93    36    33    1
    94    21    18    1
    95    70    69    1
    96     4     3    2
    97    81    82    1
    98     3     9   am
    99    18    17    1
   100    18    19    1
   101    49    46    1
   102   157   158    1
   103    74    73    1
   104    73    75    1
   105    73    72    1
   106    33    34    1
   107    33    32    1
   108     9    10    1
   109    57    56    2
   110   158   159    1
   111    69    72    1
   112    69    68    1
   113    20    19    2
   114    19    25   am
   115    34    35    2
   116    34    40   am
   117    15    14    1
   118    15    16    1
   119    46    45    1
   120    46    47    1
   121    40    41    1
   122    10    11    1
   123    10    13    1
   124    56    68   am
   125    56    55    1
   126    48    47    2
   127    41    44    1
   128    41    42    1
   129    14    13    1
   130    25    26    1
   131   159   160    2
   132   170   168   ar
   133   170   169   ar
   134   168   166   ar
   135    11    12    2
   136   169   167   ar
   137   166   165    1
   138   166   167   ar
   139   165   162    1
   140    55    54    1
   141    55    58    1
   142    42    43    2
   143    26    27    1
   144    26    29    1
   145    64    66   ar
   146    64    61   ar
   147    66    67   ar
   148    27    28    2
   149    58    59    1
   150   161   162    1
   151   162   163    1
   152    67    65   ar
   153    61    59   ar
   154    61    63   ar
   155    29    30    1
   156    29    31    1
   157   177   176    1
   158    59    60   ar
   159   176   178    1
   160   176   175    1
   161   163   171   am
   162   163   164    2
   163   171   172    1
   164    65    63   ar
   165    63    62   ar
   166    60    62   ar
   167   175   172    1
   168   172   173    1
   169   185   183    1
   170   183   184    1
   171   183   180    1
   172   173   174    2
   173   182   181    2
   174   181   180    1
   175   180   179    1
