@<TRIPOS>MOLECULE
tmp/3osaD00.pdb
 177 167 0 0 0
SMALL
GASTEIGER

@<TRIPOS>ATOM
      1  N        -30.6440  -39.0230  -39.1900 N.3    30  MET30      -0.1245
      2  CA       -31.2830  -38.5110  -37.9860 C.3    30  MET30       0.1570
      3  C        -32.2710  -39.5410  -37.4580 C.2    30  MET30       0.2261
      4  O        -32.4910  -39.6410  -36.2550 O.2    30  MET30      -0.2867
      5  CB       -32.0060  -37.1900  -38.2500 C.3    30  MET30       0.0387
      6  CG       -31.1140  -35.9840  -38.5350 C.3    30  MET30       0.0595
      7  SD       -29.9930  -35.5640  -37.1570 S.3    30  MET30      -0.1393
      8  CE       -31.1480  -35.0880  -35.8920 C.3    30  MET30       0.0692
      9  N        -30.2120  -42.2080  -35.4180 N.3    33  LEU33      -0.1231
     10  CA       -29.6870  -41.6960  -34.1620 C.3    33  LEU33       0.1693
     11  C        -30.8160  -41.5160  -33.1640 C.2    33  LEU33       0.2592
     12  O        -30.6700  -41.8540  -31.9950 O.2    33  LEU33      -0.2718
     13  CB       -28.9240  -40.3920  -34.3960 C.3    33  LEU33       0.0284
     14  CG       -27.8000  -40.5430  -35.4170 C.3    33  LEU33       0.0019
     15  CD1      -26.9490  -39.2950  -35.4820 C.3    33  LEU33       0.0001
     16  CD2      -26.9600  -41.7650  -35.0910 C.3    33  LEU33       0.0001
     17  N        -31.9440  -41.0040  -33.6400 N.am   34  THR34      -0.1953
     18  CA       -33.1140  -40.7830  -32.7930 C.3    34  THR34       0.1897
     19  C        -33.6360  -42.0880  -32.2020 C.2    34  THR34       0.2313
     20  O        -33.9140  -42.1760  -31.0090 O.2    34  THR34      -0.2863
     21  CB       -34.2310  -40.0550  -33.5610 C.3    34  THR34       0.1794
     22  OG1      -33.8370  -38.7040  -33.8280 O.3    34  THR34      -0.2208
     23  CG2      -35.5210  -40.0530  -32.7440 C.3    34  THR34       0.0378
     24  N        -31.9080  -44.8670  -31.7850 N.3    36  LEU36      -0.1231
     25  CA       -30.8830  -45.3390  -30.8510 C.3    36  LEU36       0.1693
     26  C        -30.8190  -44.5160  -29.5760 C.2    36  LEU36       0.2591
     27  O        -30.8580  -45.0640  -28.4820 O.2    36  LEU36      -0.2718
     28  CB       -29.5150  -45.3730  -31.5570 C.3    36  LEU36       0.0284
     29  CG       -28.2700  -45.9430  -30.8830 C.3    36  LEU36       0.0019
     30  CD1      -28.4330  -47.4100  -30.5440 C.3    36  LEU36       0.0001
     31  CD2      -27.0730  -45.7180  -31.8050 C.3    36  LEU36       0.0001
     32  N        -30.7100  -43.2030  -29.6970 N.am   37  ALA37      -0.1980
     33  CA       -30.5710  -42.3990  -28.5010 C.3    37  ALA37       0.1597
     34  C        -31.7670  -42.5460  -27.5540 C.2    37  ALA37       0.2287
     35  O        -31.6230  -42.5610  -26.3310 O.2    37  ALA37      -0.2864
     36  CB       -30.3920  -40.9360  -28.8620 C.3    37  ALA37       0.0319
     37  N        -31.2010  -45.5470  -25.7230 N.3    40  GLU40      -0.1245
     38  CA       -30.0360  -45.4390  -24.8650 C.3    40  GLU40       0.1567
     39  C        -30.3000  -44.6250  -23.6080 C.2    40  GLU40       0.2260
     40  O        -29.7520  -44.9400  -22.5640 O.2    40  GLU40      -0.2867
     41  CB       -28.8410  -44.8860  -25.6390 C.3    40  GLU40       0.0388
     42  CG       -28.1860  -45.8670  -26.5460 C.3    40  GLU40       0.1160
     43  CD       -26.9690  -45.2760  -27.2040 C.2    40  GLU40       0.3649
     44  OE1      -27.1170  -44.6670  -28.2960 O.co2  40  GLU40      -0.2457
     45  OE2      -25.8690  -45.4070  -26.6160 O.co2  40  GLU40      -0.2457
     46  N        -26.0890  -35.1800  -21.2500 N.3    70  TRP70      -0.1227
     47  CA       -26.6530  -36.2810  -22.0250 C.3    70  TRP70       0.1737
     48  C        -25.9770  -36.5330  -23.3900 C.2    70  TRP70       0.2595
     49  O        -25.6790  -37.6650  -23.7110 O.2    70  TRP70      -0.2718
     50  CB       -28.1730  -36.1850  -22.1790 C.3    70  TRP70       0.0564
     51  CG       -28.6280  -35.2150  -23.2390 C.ar   70  TRP70       0.0003
     52  CD1      -28.7740  -33.8620  -23.0910 C.ar   70  TRP70       0.0946
     53  CD2      -28.9760  -35.5110  -24.6090 C.ar   70  TRP70       0.0152
     54  NE1      -29.1900  -33.3130  -24.2720 N.ar   70  TRP70      -0.2442
     55  CE2      -29.3270  -34.2920  -25.2130 C.ar   70  TRP70       0.0810
     56  CE3      -29.0390  -36.6850  -25.3620 C.ar   70  TRP70       0.0012
     57  CZ2      -29.7310  -34.2130  -26.5500 C.ar   70  TRP70       0.0191
     58  CZ3      -29.4480  -36.6010  -26.6940 C.ar   70  TRP70       0.0001
     59  CH2      -29.7780  -35.3680  -27.2680 C.ar   70  TRP70       0.0015
     60  N        -25.7690  -35.4850  -24.1800 N.am   71  LEU71      -0.1980
     61  CA       -25.1780  -35.6890  -25.4990 C.3    71  LEU71       0.1596
     62  C        -23.7050  -36.0280  -25.3610 C.2    71  LEU71       0.2287
     63  O        -23.1880  -36.8500  -26.1130 O.2    71  LEU71      -0.2864
     64  CB       -25.4010  -34.4910  -26.4220 C.3    71  LEU71       0.0297
     65  CG       -24.9960  -34.5530  -27.9120 C.3    71  LEU71       0.0022
     66  CD1      -25.5200  -35.7860  -28.6350 C.3    71  LEU71       0.0001
     67  CD2      -25.4580  -33.2950  -28.6060 C.3    71  LEU71       0.0001
     68  N        -23.5720  -39.8000  -24.5870 N.3    74  LEU74      -0.1231
     69  CA       -23.7450  -40.5530  -25.8230 C.3    74  LEU74       0.1693
     70  C        -22.4400  -40.5060  -26.6060 C.2    74  LEU74       0.2591
     71  O        -21.8810  -41.5290  -26.9340 O.2    74  LEU74      -0.2718
     72  CB       -24.8710  -39.9280  -26.6660 C.3    74  LEU74       0.0284
     73  CG       -26.2180  -40.1340  -26.0100 C.3    74  LEU74       0.0019
     74  CD1      -27.3200  -39.4160  -26.7810 C.3    74  LEU74       0.0001
     75  CD2      -26.5130  -41.6280  -25.9040 C.3    74  LEU74       0.0001
     76  N        -21.9870  -39.2960  -26.9020 N.am   75  MET75      -0.1979
     77  CA       -20.8290  -39.1190  -27.7440 C.3    75  MET75       0.1605
     78  C        -19.6270  -39.8390  -27.1920 C.2    75  MET75       0.2287
     79  O        -18.8760  -40.4590  -27.9500 O.2    75  MET75      -0.2864
     80  CB       -20.5130  -37.6640  -27.9410 C.3    75  MET75       0.0413
     81  CG       -21.3910  -36.9920  -28.9470 C.3    75  MET75       0.0598
     82  SD       -21.0320  -35.2200  -29.1030 S.3    75  MET75      -0.1393
     83  CE       -21.7160  -34.9170  -30.7150 C.3    75  MET75       0.0692
     84  N        -19.8100  -43.4440  -27.8950 N.3    78  LEU78      -0.1245
     85  CA       -19.5790  -43.6640  -29.3210 C.3    78  LEU78       0.1561
     86  C        -18.0850  -43.7360  -29.6420 C.2    78  LEU78       0.2260
     87  O        -17.6540  -44.6100  -30.3820 O.2    78  LEU78      -0.2867
     88  CB       -20.2100  -42.5410  -30.1250 C.3    78  LEU78       0.0270
     89  CG       -19.9830  -42.6030  -31.6240 C.3    78  LEU78       0.0019
     90  CD1      -20.5070  -43.9190  -32.1920 C.3    78  LEU78       0.0001
     91  CD2      -20.6650  -41.4280  -32.2780 C.3    78  LEU78       0.0001
     92  N        -16.6150  -46.8540  -28.3520 N.3    81  ARG81      -0.1245
     93  CA       -17.0270  -48.0000  -29.1820 C.3    81  ARG81       0.1563
     94  C        -16.2230  -48.0930  -30.4600 C.2    81  ARG81       0.2260
     95  O        -15.9650  -49.1780  -30.9790 O.2    81  ARG81      -0.2867
     96  CB       -18.4950  -47.9340  -29.5550 C.3    81  ARG81       0.0307
     97  CG       -19.4510  -48.0230  -28.3900 C.3    81  ARG81       0.0489
     98  CD       -20.8360  -48.4580  -28.8470 C.3    81  ARG81       0.2205
     99  NE       -21.5720  -47.4370  -29.6000 N.pl3  81  ARG81      -0.0865
    100  CZ       -22.2820  -46.4570  -29.0660 C.cat  81  ARG81       0.5346
    101  NH1      -22.3470  -46.3490  -27.7570 N.pl3  81  ARG81       0.1354
    102  NH2      -22.9160  -45.5860  -29.8450 N.pl3  81  ARG81       0.1354
    103  N        -21.6840  -46.6680  -34.3340 N.3    91  PHE91      -0.1241
    104  CA       -22.9380  -46.2400  -33.7480 C.3    91  PHE91       0.1605
    105  C        -23.6140  -47.4180  -33.0440 C.2    91  PHE91       0.2264
    106  O        -24.0290  -47.2940  -31.8940 O.2    91  PHE91      -0.2867
    107  CB       -23.8250  -45.6260  -34.8340 C.3    91  PHE91       0.0534
    108  CG       -23.3630  -44.2580  -35.2720 C.ar   91  PHE91      -0.0203
    109  CD1      -23.6680  -43.1350  -34.5170 C.ar   91  PHE91      -0.0042
    110  CD2      -22.6020  -44.1060  -36.4300 C.ar   91  PHE91      -0.0042
    111  CE1      -23.2390  -41.9010  -34.9050 C.ar   91  PHE91      -0.0003
    112  CE2      -22.1550  -42.8400  -36.8400 C.ar   91  PHE91      -0.0003
    113  CZ       -22.4760  -41.7350  -36.0780 C.ar   91  PHE91      -0.0000
    114  N        -23.2130  -32.2220  -40.5420 N.3   105  MET105     -0.1245
    115  CA       -22.4830  -32.8750  -39.4500 C.3   105  MET105      0.1570
    116  C        -21.3360  -33.8010  -39.8780 C.2   105  MET105      0.2261
    117  O        -21.0590  -34.8020  -39.2010 O.2   105  MET105     -0.2867
    118  CB       -23.4410  -33.6250  -38.5150 C.3   105  MET105      0.0387
    119  CG       -24.3900  -34.6010  -39.1880 C.3   105  MET105      0.0595
    120  SD       -25.0790  -35.8690  -38.0720 S.3   105  MET105     -0.1393
    121  CE       -26.6990  -36.1560  -38.8050 C.3   105  MET105      0.0692
    122  N        -18.7640  -32.7130  -37.2460 N.3   108  ILE108     -0.1231
    123  CA       -18.8830  -33.3960  -35.9730 C.3   108  ILE108      0.1692
    124  C        -18.3850  -34.8160  -36.1040 C.2   108  ILE108      0.2592
    125  O        -17.6910  -35.3250  -35.2270 O.2   108  ILE108     -0.2718
    126  CB       -20.3240  -33.4210  -35.5360 C.3   108  ILE108      0.0266
    127  CG1      -20.7410  -31.9910  -35.2260 C.3   108  ILE108      0.0019
    128  CG2      -20.4950  -34.3080  -34.3310 C.3   108  ILE108      0.0020
    129  CD1      -22.1470  -31.8730  -34.8300 C.3   108  ILE108      0.0001
    130  N        -18.7420  -35.4350  -37.2210 N.am  109  PHE109     -0.1976
    131  CA       -18.2760  -36.7620  -37.5580 C.3   109  PHE109      0.1639
    132  C        -16.7440  -36.8330  -37.4910 C.2   109  PHE109      0.2290
    133  O        -16.1870  -37.7160  -36.8380 O.2   109  PHE109     -0.2864
    134  CB       -18.7710  -37.1320  -38.9520 C.3   109  PHE109      0.0560
    135  CG       -18.9280  -38.6010  -39.1630 C.ar  109  PHE109     -0.0200
    136  CD1      -17.8190  -39.4190  -39.2960 C.ar  109  PHE109     -0.0042
    137  CD2      -20.1780  -39.1680  -39.2460 C.ar  109  PHE109     -0.0042
    138  CE1      -17.9550  -40.7510  -39.4940 C.ar  109  PHE109     -0.0003
    139  CE2      -20.3180  -40.5140  -39.4410 C.ar  109  PHE109     -0.0003
    140  CZ       -19.2040  -41.3050  -39.5630 C.ar  109  PHE109     -0.0000
    141  N        -15.5090  -36.4930  -33.9760 N.3   112  LEU112     -0.1245
    142  CA       -15.7260  -37.7610  -33.3040 C.3   112  LEU112      0.1561
    143  C        -14.5930  -38.7100  -33.6470 C.2   112  LEU112      0.2260
    144  O        -13.9250  -39.2380  -32.7550 O.2   112  LEU112     -0.2867
    145  CB       -17.0910  -38.3550  -33.6500 C.3   112  LEU112      0.0270
    146  CG       -18.2700  -37.6280  -32.9890 C.3   112  LEU112      0.0019
    147  CD1      -19.6530  -38.0670  -33.5080 C.3   112  LEU112      0.0001
    148  CD2      -18.2150  -37.7570  -31.4790 C.3   112  LEU112      0.0001
    149  N        -23.1510  -30.2540  -31.7540 N.3   200  GLY200     -0.1225
    150  CA       -24.2750  -31.1530  -31.9190 C.3   200  GLY200      0.1811
    151  C        -25.6050  -30.4900  -31.6840 C.2   200  GLY200      0.2280
    152  O        -26.4610  -30.5290  -32.5500 O.2   200  GLY200     -0.2866
    153  N        -26.4430  -28.0870  -34.1970 N.3   203  HIS203     -0.1226
    154  CA       -26.9360  -28.7710  -35.3870 C.3   203  HIS203      0.1752
    155  C        -28.3900  -29.2610  -35.2560 C.2   203  HIS203      0.2595
    156  O        -29.1490  -29.1890  -36.2250 O.2   203  HIS203     -0.2718
    157  CB       -25.9840  -29.9000  -35.8070 C.3   203  HIS203      0.0759
    158  CG       -26.3670  -30.5910  -37.0870 C.ar  203  HIS203      0.0818
    159  ND1      -27.0360  -31.8020  -37.1110 N.ar  203  HIS203     -0.2268
    160  CD2      -26.1410  -30.2640  -38.3770 C.ar  203  HIS203      0.1154
    161  CE1      -27.2210  -32.1740  -38.3610 C.ar  203  HIS203      0.1986
    162  NE2      -26.6840  -31.2560  -39.1560 N.ar  203  HIS203     -0.2212
    163  N        -28.8000  -29.7070  -34.0690 N.am  204  LEU204     -0.1980
    164  CA       -30.1940  -30.1040  -33.8730 C.3   204  LEU204      0.1596
    165  C        -31.1220  -28.9130  -34.1250 C.2   204  LEU204      0.2287
    166  O        -32.1010  -29.0260  -34.8640 O.2   204  LEU204     -0.2864
    167  CB       -30.4300  -30.6550  -32.4700 C.3   204  LEU204      0.0297
    168  CG       -29.6620  -31.9080  -32.0530 C.3   204  LEU204      0.0022
    169  CD1      -30.0800  -32.3710  -30.6680 C.3   204  LEU204      0.0001
    170  CD2      -29.8490  -33.0120  -33.0790 C.3   204  LEU204      0.0001
    171  N        -35.8110  -33.6470  -30.2720 N.3   212  VAL212     -0.1245
    172  CA       -35.2040  -34.8840  -29.8060 C.3   212  VAL212      0.1561
    173  C        -34.5180  -34.6690  -28.4660 C.2   212  VAL212      0.2260
    174  O        -33.9800  -35.6140  -27.8720 O.2   212  VAL212     -0.2867
    175  CB       -34.1470  -35.3650  -30.7890 C.3   212  VAL212      0.0252
    176  CG1      -33.7020  -36.7620  -30.4170 C.3   212  VAL212      0.0019
    177  CG2      -34.7010  -35.3580  -32.2070 C.3   212  VAL212      0.0019
@<TRIPOS>BOND
     1   114   115    1
     2   116   115    1
     3   116   117    2
     4   140   138   ar
     5   140   139   ar
     6   138   136   ar
     7   115   118    1
     8   139   137   ar
     9   136   135   ar
    10   137   135   ar
    11     1     2    1
    12   119   118    1
    13   119   120    1
    14   135   134    1
    15   162   160   ar
    16   162   161   ar
    17   134   131    1
    18   121   120    1
    19     6     5    1
    20     6     7    1
    21   160   158   ar
    22   161   159   ar
    23     5     2    1
    24     2     3    1
    25   131   132    1
    26   131   130    1
    27   132   133    2
    28     3     4    2
    29   122   123    1
    30   130   124   am
    31     7     8    1
    32   159   158   ar
    33   158   157    1
    34   112   110   ar
    35   112   113   ar
    36   110   108   ar
    37   156   155    2
    38   124   123    1
    39   124   125    2
    40   113   111   ar
    41   123   126    1
    42   157   154    1
    43   126   127    1
    44   126   128    1
    45    15    14    1
    46     9    10    1
    47    14    16    1
    48    14    13    1
    49   154   155    1
    50   154   153    1
    51   108   107    1
    52   108   109   ar
    53   155   163   am
    54   127   129    1
    55   111   109   ar
    56   166   165    2
    57   107   104    1
    58    13    10    1
    59   103   104    1
    60    10    11    1
    61   165   164    1
    62   163   164    1
    63   141   142    1
    64   164   167    1
    65    22    21    1
    66   104   105    1
    67   145   142    1
    68   145   146    1
    69   143   142    1
    70   143   144    2
    71    17    11   am
    72    17    18    1
    73    21    18    1
    74    21    23    1
    75   147   146    1
    76    11    12    2
    77   170   168    1
    78   105   106    2
    79   146   148    1
    80    18    19    1
    81   152   151    2
    82   167   168    1
    83    91    89    1
    84   177   175    1
    85    19    20    2
    86    90    89    1
    87   168   169    1
    88   150   149    1
    89   150   151    1
    90    31    29    1
    91    24    25    1
    92    89    88    1
    93    28    29    1
    94    28    25    1
    95    95    94    2
    96    29    30    1
    97    25    26    1
    98   175   176    1
    99   175   172    1
   100    83    82    1
   101    94    93    1
   102    87    86    2
   103   171   172    1
   104    88    85    1
   105   102   100    1
   106   172   173    1
   107    32    26   am
   108    32    33    1
   109    86    85    1
   110    99   100    2
   111    99    98    1
   112    26    27    2
   113    96    93    1
   114    96    97    1
   115    85    84    1
   116    93    92    1
   117    82    81    1
   118   100   101    1
   119    81    80    1
   120    36    33    1
   121    98    97    1
   122    66    65    1
   123    67    65    1
   124    33    34    1
   125   173   174    2
   126    44    43   ar
   127    79    78    2
   128    80    77    1
   129    65    64    1
   130    77    78    1
   131    77    76    1
   132    34    35    2
   133    59    58   ar
   134    59    57   ar
   135    43    45   ar
   136    43    42    1
   137    71    70    2
   138    76    70   am
   139    74    73    1
   140    58    56   ar
   141    72    73    1
   142    72    69    1
   143    70    69    1
   144    57    55   ar
   145    42    41    1
   146    64    61    1
   147    63    62    2
   148    73    75    1
   149    69    68    1
   150    37    38    1
   151    41    38    1
   152    61    62    1
   153    61    60    1
   154    56    53   ar
   155    55    53   ar
   156    55    54   ar
   157    38    39    1
   158    53    51   ar
   159    54    52   ar
   160    60    48   am
   161    49    48    2
   162    39    40    2
   163    48    47    1
   164    51    52   ar
   165    51    50    1
   166    50    47    1
   167    47    46    1
