@<TRIPOS>MOLECULE
tmp/3oshA00.pdb
 144 143 0 0 0
SMALL
GASTEIGER

@<TRIPOS>ATOM
      1  N        -18.7240    8.2330    9.7880 N.3     2  LEU2       -0.1245
      2  CA       -17.7170    7.8550    8.8120 C.3     2  LEU2        0.1561
      3  C        -17.3510    6.3870    8.7890 C.2     2  LEU2        0.2260
      4  O        -17.1110    5.8810    7.7160 O.2     2  LEU2       -0.2867
      5  CB       -16.4920    8.7440    8.8780 C.3     2  LEU2        0.0270
      6  CG       -16.7380   10.0740    8.1190 C.3     2  LEU2        0.0019
      7  CD1      -15.4780   10.8880    8.2020 C.3     2  LEU2        0.0001
      8  CD2      -17.1910   10.0360    6.6240 C.3     2  LEU2        0.0001
      9  N        -19.9980    4.7750    6.6990 N.3     5  PHE5       -0.1227
     10  CA       -19.8010    5.1310    5.2890 C.3     5  PHE5        0.1736
     11  C        -18.6710    4.2910    4.6700 C.2     5  PHE5        0.2595
     12  O        -18.8710    3.7670    3.5760 O.2     5  PHE5       -0.2718
     13  CB       -19.5110    6.6430    5.1070 C.3     5  PHE5        0.0547
     14  CG       -19.4760    7.0890    3.6510 C.ar    5  PHE5       -0.0202
     15  CD1      -20.3560    6.5910    2.7360 C.ar    5  PHE5       -0.0042
     16  CD2      -18.5410    7.9930    3.1880 C.ar    5  PHE5       -0.0042
     17  CE1      -20.3340    6.9580    1.4170 C.ar    5  PHE5       -0.0003
     18  CE2      -18.5400    8.3350    1.8100 C.ar    5  PHE5       -0.0003
     19  CZ       -19.4460    7.7900    0.9670 C.ar    5  PHE5       -0.0000
     20  N        -17.5580    4.1270    5.4030 N.am    6  LYS6       -0.1980
     21  CA       -16.4100    3.2890    4.9760 C.3     6  LYS6        0.1596
     22  C        -16.9700    1.8810    4.6700 C.2     6  LYS6        0.2287
     23  O        -16.7130    1.2720    3.6280 O.2     6  LYS6       -0.2864
     24  CB       -15.3650    3.2590    6.1040 C.3     6  LYS6        0.0298
     25  CG       -14.0610    2.4650    6.0100 C.3     6  LYS6        0.0038
     26  CD       -13.4450    2.4970    7.4440 C.3     6  LYS6        0.0206
     27  CE       -13.4730    3.9690    8.0360 C.3     6  LYS6        0.1093
     28  NZ       -13.2360    4.2050    9.5080 N.3     6  LYS6       -0.1314
     29  N        -18.9360    1.6170    1.5070 N.3     9  ILE9       -0.1245
     30  CA       -18.0900    1.5820    0.3290 C.3     9  ILE9        0.1561
     31  C        -17.4550    0.2070    0.2320 C.2     9  ILE9        0.2260
     32  O        -17.4280   -0.3600   -0.8450 O.2     9  ILE9       -0.2867
     33  CB       -17.0490    2.7080    0.4170 C.3     9  ILE9        0.0252
     34  CG1      -17.7690    4.0400    0.2910 C.3     9  ILE9        0.0019
     35  CG2      -15.9270    2.5570   -0.6560 C.3     9  ILE9        0.0019
     36  CD1      -16.9880    5.2020    0.7940 C.3     9  ILE9        0.0001
     37  N        -11.1600    1.2380    0.3900 N.3    18  TRP18      -0.1241
     38  CA       -11.9220    2.4750    0.6070 C.3    18  TRP18       0.1605
     39  C        -11.0250    3.7490    0.6350 C.2    18  TRP18       0.2264
     40  O        -11.4580    4.8380    0.2540 O.2    18  TRP18      -0.2867
     41  CB       -12.6640    2.3440    1.9350 C.3    18  TRP18       0.0550
     42  CG       -11.7020    2.3370    3.1010 C.ar   18  TRP18       0.0003
     43  CD1      -11.0430    1.2540    3.6210 C.ar   18  TRP18       0.0946
     44  CD2      -11.2490    3.4700    3.8500 C.ar   18  TRP18       0.0152
     45  NE1      -10.2260    1.6460    4.6540 N.ar   18  TRP18      -0.2442
     46  CE2      -10.3330    3.0020    4.8140 C.ar   18  TRP18       0.0810
     47  CE3      -11.5280    4.8390    3.8080 C.ar   18  TRP18       0.0012
     48  CZ2       -9.7050    3.8480    5.7250 C.ar   18  TRP18       0.0191
     49  CZ3      -10.8980    5.6800    4.7140 C.ar   18  TRP18       0.0001
     50  CH2       -9.9990    5.1790    5.6580 C.ar   18  TRP18       0.0015
     51  N        -10.9830    6.3240   -2.0790 N.3    21  PHE21      -0.1227
     52  CA       -11.9980    7.3900   -2.2140 C.3    21  PHE21       0.1736
     53  C        -11.8620    8.5160   -1.1950 C.2    21  PHE21       0.2595
     54  O        -12.6700    9.4570   -1.1830 O.2    21  PHE21      -0.2718
     55  CB       -13.4120    6.7850   -2.0830 C.3    21  PHE21       0.0547
     56  CG       -13.6840    5.6920   -3.0500 C.ar   21  PHE21      -0.0202
     57  CD1      -14.1420    5.9890   -4.3130 C.ar   21  PHE21      -0.0042
     58  CD2      -13.4880    4.3590   -2.6960 C.ar   21  PHE21      -0.0042
     59  CE1      -14.4030    4.9970   -5.2120 C.ar   21  PHE21      -0.0003
     60  CE2      -13.7380    3.3590   -3.5920 C.ar   21  PHE21      -0.0003
     61  CZ       -14.1910    3.6700   -4.8560 C.ar   21  PHE21      -0.0000
     62  N        -10.8570    8.3990   -0.3340 N.am   22  ALA22      -0.1980
     63  CA       -10.6920    9.2950    0.8080 C.3    22  ALA22       0.1597
     64  C        -10.0000   10.5920    0.4200 C.2    22  ALA22       0.2287
     65  O        -10.0460   11.5520    1.1540 O.2    22  ALA22      -0.2864
     66  CB        -9.9080    8.6100    1.9230 C.3    22  ALA22       0.0319
     67  N        -13.6420   16.9010   -4.5850 N.3    27  TYR27      -0.1227
     68  CA       -14.6500   16.7070   -3.5560 C.3    27  TYR27       0.1736
     69  C        -14.5560   15.4510   -2.7000 C.2    27  TYR27       0.2596
     70  O        -15.1890   15.3720   -1.6430 O.2    27  TYR27      -0.2718
     71  CB       -16.0220   16.7800   -4.2370 C.3    27  TYR27       0.0548
     72  CG       -16.3390   18.1780   -4.7490 C.ar   27  TYR27      -0.0200
     73  CD1      -15.9770   18.5910   -6.0330 C.ar   27  TYR27      -0.0009
     74  CD2      -16.9840   19.0890   -3.9330 C.ar   27  TYR27      -0.0009
     75  CE1      -16.2600   19.9030   -6.4670 C.ar   27  TYR27       0.0417
     76  CE2      -17.2710   20.3760   -4.3620 C.ar   27  TYR27       0.0417
     77  CZ       -16.8910   20.7760   -5.6230 C.ar   27  TYR27       0.1957
     78  OH       -17.1710   22.0430   -6.0910 O.3    27  TYR27      -0.2866
     79  N        -13.8640   14.4200   -3.1360 N.am   28  CYS28      -0.1956
     80  CA       -13.8400   13.2230   -2.3130 C.3    28  CYS28       0.1843
     81  C        -12.8400   13.3810   -1.1770 C.2    28  CYS28       0.2626
     82  O        -11.6450   13.4370   -1.4370 O.2    28  CYS28      -0.2714
     83  CB       -13.4840   11.9830   -3.1510 C.3    28  CYS28       0.0997
     84  SG       -14.5220   11.6910   -4.5510 S.3    28  CYS28      -0.0797
     85  N        -13.3110   13.4590    0.0700 N.am   29  GLY29      -0.1940
     86  CA       -12.4290   13.6360    1.2140 C.3    29  GLY29       0.2014
     87  C        -12.5470   15.0120    1.7720 C.2    29  GLY29       0.2638
     88  O        -13.5280   15.6820    1.5090 O.2    29  GLY29      -0.2714
     89  N        -11.5190   15.4160    2.5260 N.am   30  LYS30      -0.1977
     90  CA       -11.4050   16.7610    3.1000 C.3    30  LYS30       0.1596
     91  C        -11.8850   17.8060    2.1160 C.2    30  LYS30       0.2287
     92  O        -12.6040   18.7320    2.4800 O.2    30  LYS30      -0.2864
     93  CB        -9.9560   17.1010    3.5100 C.3    30  LYS30       0.0298
     94  CG        -9.4250   16.3180    4.7200 C.3    30  LYS30       0.0038
     95  CD        -8.8030   17.1860    5.8220 C.3    30  LYS30       0.0206
     96  CE        -8.1630   16.3060    6.9100 C.3    30  LYS30       0.1093
     97  NZ        -6.8080   16.7870    7.3460 N.3    30  LYS30      -0.1314
     98  N        -18.9840   12.7250   -5.3010 N.3    44  CYS44      -0.1235
     99  CA       -18.5140   13.2350   -4.0160 C.3    44  CYS44       0.1677
    100  C        -19.0630   14.6390   -3.7790 C.2    44  CYS44       0.2270
    101  O        -19.3450   15.0410   -2.6480 O.2    44  CYS44      -0.2867
    102  CB       -16.9980   13.2560   -3.9820 C.3    44  CYS44       0.0956
    103  SG       -16.3910   11.5530   -3.8100 S.3    44  CYS44      -0.0801
    104  N        -22.4790   14.2000   -2.5520 N.3    47  HIS47      -0.1226
    105  CA       -22.3920   13.7230   -1.1680 C.3    47  HIS47       0.1752
    106  C        -22.0590   14.8540   -0.1980 C.2    47  HIS47       0.2596
    107  O        -22.6520   15.0020    0.8950 O.2    47  HIS47      -0.2718
    108  CB       -21.3360   12.6050   -1.0800 C.3    47  HIS47       0.0759
    109  CG       -21.2480   11.9660    0.2750 C.ar   47  HIS47       0.0818
    110  ND1      -20.1240   12.0490    1.0760 N.ar   47  HIS47      -0.2268
    111  CD2      -22.1530   11.2230    0.9580 C.ar   47  HIS47       0.1154
    112  CE1      -20.3540   11.3970    2.2070 C.ar   47  HIS47       0.1986
    113  NE2      -21.5600   10.8530    2.1430 N.ar   47  HIS47      -0.2212
    114  N        -21.0890   15.6710   -0.5710 N.am   48  ASP48      -0.1974
    115  CA       -20.6850   16.7580    0.2600 C.3    48  ASP48       0.1709
    116  C        -21.8950   17.7730    0.4380 C.2    48  ASP48       0.2293
    117  O        -22.1440   18.3270    1.5210 O.2    48  ASP48      -0.2864
    118  CB       -19.4930   17.5050   -0.3620 C.3    48  ASP48       0.1436
    119  CG       -18.2160   16.7100   -0.4050 C.2    48  ASP48       0.3671
    120  OD1      -18.0020   15.7430    0.3370 O.co2  48  ASP48      -0.2456
    121  OD2      -17.3610   17.0510   -1.2590 O.co2  48  ASP48      -0.2456
    122  N        -20.6730   13.3330   10.0130 N.3    63  TYR63      -0.1241
    123  CA       -19.5050   12.4710   10.1840 C.3    63  TYR63       0.1605
    124  C        -19.6290   11.6000   11.4240 C.2    63  TYR63       0.2264
    125  O        -18.9180   10.6070   11.5840 O.2    63  TYR63      -0.2867
    126  CB       -18.1890   13.3060   10.3240 C.3    63  TYR63       0.0534
    127  CG       -17.5600   13.9650    9.0790 C.ar   63  TYR63      -0.0201
    128  CD1      -16.1940   14.2640    9.0520 C.ar   63  TYR63      -0.0009
    129  CD2      -18.3100   14.3370    7.9770 C.ar   63  TYR63      -0.0009
    130  CE1      -15.6030   14.8700    7.9370 C.ar   63  TYR63       0.0417
    131  CE2      -17.7160   14.9270    6.8480 C.ar   63  TYR63       0.0417
    132  CZ       -16.3730   15.1950    6.8430 C.ar   63  TYR63       0.1957
    133  OH       -15.8130   15.7850    5.7310 O.3    63  TYR63      -0.2866
    134  N        -20.4380    5.5300   -6.3170 N.3   100  PHE100     -0.1241
    135  CA       -19.0200    5.1720   -6.4120 C.3   100  PHE100      0.1605
    136  C        -18.8300    3.9060   -7.2180 C.2   100  PHE100      0.2264
    137  O        -17.8980    3.8170   -8.0160 O.2   100  PHE100     -0.2867
    138  CB       -18.3560    4.9780   -5.0290 C.3   100  PHE100      0.0534
    139  CG       -18.1360    6.2380   -4.2270 C.ar  100  PHE100     -0.0203
    140  CD1      -18.6050    7.4870   -4.6240 C.ar  100  PHE100     -0.0042
    141  CD2      -17.4460    6.1410   -3.0210 C.ar  100  PHE100     -0.0042
    142  CE1      -18.4060    8.6070   -3.8170 C.ar  100  PHE100     -0.0003
    143  CE2      -17.2230    7.2670   -2.2300 C.ar  100  PHE100     -0.0003
    144  CZ       -17.7210    8.4870   -2.6300 C.ar  100  PHE100     -0.0000
@<TRIPOS>BOND
     1   137   136    2
     2   136   135    1
     3    75    73   ar
     4    75    77   ar
     5   135   134    1
     6   135   138    1
     7    78    77    1
     8    73    72   ar
     9    77    76   ar
    10    98    99    1
    11    59    61   ar
    12    59    57   ar
    13   138   139    1
    14    61    60   ar
    15    72    71    1
    16    72    74   ar
    17   140   139   ar
    18   140   142   ar
    19    67    68    1
    20    84   103    1
    21    84    83    1
    22    76    74   ar
    23    57    56   ar
    24    71    68    1
    25   139   141   ar
    26    99   102    1
    27    99   100    1
    28   102   103    1
    29   142   144   ar
    30   100   101    2
    31    60    58   ar
    32    68    69    1
    33    83    80    1
    34    79    69   am
    35    79    80    1
    36    56    58   ar
    37    56    55    1
    38   141   143   ar
    39    69    70    2
    40   144   143   ar
    41   104   105    1
    42    80    81    1
    43    52    55    1
    44    52    51    1
    45    52    53    1
    46    82    81    2
    47   121   119   ar
    48    53    54    2
    49    53    62   am
    50    81    85   am
    51   105   108    1
    52   105   106    1
    53   108   109    1
    54    32    31    2
    55    35    33    1
    56   114   106   am
    57   114   115    1
    58   119   118    1
    59   119   120   ar
    60   118   115    1
    61    62    63    1
    62   106   107    2
    63    85    86    1
    64    31    30    1
    65    40    39    2
    66   115   116    1
    67   109   111   ar
    68   109   110   ar
    69    34    33    1
    70    34    36    1
    71    30    33    1
    72    30    29    1
    73    37    38    1
    74    64    63    1
    75    64    65    2
    76   116   117    2
    77    38    39    1
    78    38    41    1
    79    63    66    1
    80   111   113   ar
    81    19    17   ar
    82    19    18   ar
    83   110   112   ar
    84    86    87    1
    85    17    15   ar
    86    88    87    2
    87    87    89   am
    88    18    16   ar
    89    41    42    1
    90    91    92    2
    91    91    90    1
    92   113   112   ar
    93    89    90    1
    94    15    14   ar
    95    90    93    1
    96    42    43   ar
    97    42    44   ar
    98    16    14   ar
    99    93    94    1
   100    12    11    2
   101    43    45   ar
   102    23    22    2
   103    14    13    1
   104    47    44   ar
   105    47    49   ar
   106    44    46   ar
   107    45    46   ar
   108    11    10    1
   109    11    20   am
   110    22    21    1
   111    49    50   ar
   112    94    95    1
   113    46    48   ar
   114    21    20    1
   115    21    24    1
   116    13    10    1
   117    10     9    1
   118    50    48   ar
   119   133   132    1
   120    95    96    1
   121    25    24    1
   122    25    26    1
   123     8     6    1
   124   132   131   ar
   125   132   130   ar
   126   131   129   ar
   127    96    97    1
   128    26    27    1
   129     4     3    2
   130   130   128   ar
   131   129   127   ar
   132    27    28    1
   133     6     7    1
   134     6     5    1
   135     3     2    1
   136     2     5    1
   137     2     1    1
   138   128   127   ar
   139   127   126    1
   140   122   123    1
   141   123   126    1
   142   123   124    1
   143   124   125    2
