@<TRIPOS>MOLECULE
tmp/3osiA00.pdb
 188 180 0 0 0
SMALL
GASTEIGER

@<TRIPOS>ATOM
      1  N          4.3130   14.8710   10.4850 N.3    24  LEU24      -0.1245
      2  CA         5.0390   14.1790    9.4240 C.3    24  LEU24       0.1561
      3  C          5.2780   12.7120    9.7560 C.2    24  LEU24       0.2260
      4  O          6.3220   12.3420   10.3030 O.2    24  LEU24      -0.2867
      5  CB         6.3460   14.9090    9.0570 C.3    24  LEU24       0.0270
      6  CG         7.1400   14.4860    7.7980 C.3    24  LEU24       0.0019
      7  CD1        6.2440   14.2150    6.5910 C.3    24  LEU24       0.0001
      8  CD2        8.2410   15.5020    7.4080 C.3    24  LEU24       0.0001
      9  N         18.5820   25.6570   12.7350 N.3    68  GLY68      -0.1210
     10  CA        17.3390   25.1600   12.1710 C.3    68  GLY68       0.1956
     11  C         16.9880   23.7920   12.7230 C.2    68  GLY68       0.2612
     12  O         15.8610   23.5600   13.1550 O.2    68  GLY68      -0.2717
     13  N         17.9610   22.8860   12.7210 N.am   69  CYS69      -0.1956
     14  CA        17.7850   21.5670   13.3280 C.3    69  CYS69       0.1843
     15  C         17.4010   21.6530   14.8060 C.2    69  CYS69       0.2625
     16  O         16.4850   20.9560   15.2530 O.2    69  CYS69      -0.2714
     17  CB        19.0470   20.7270   13.1640 C.3    69  CYS69       0.0997
     18  SG        19.4430   20.4230   11.4250 S.3    69  CYS69      -0.0797
     19  N         18.0910   22.5270   15.5410 N.am   70  GLN70      -0.1963
     20  CA        17.8360   22.7600   16.9570 C.3    70  GLN70       0.1733
     21  C         16.4250   23.2270   17.2150 C.2    70  GLN70       0.2616
     22  O         15.7710   22.7680   18.1460 O.2    70  GLN70      -0.2715
     23  CB        18.8320   23.7800   17.5140 C.3    70  GLN70       0.0408
     24  CG        20.2570   23.2510   17.6490 C.3    70  GLN70       0.0908
     25  CD        20.2950   21.9280   18.3970 C.2    70  GLN70       0.2608
     26  OE1       20.4640   21.8930   19.6220 O.2    70  GLN70      -0.2717
     27  NE2       20.1270   20.8280   17.6640 N.am   70  GLN70      -0.0878
     28  N         15.9400   24.1280   16.3730 N.am   71  PHE71      -0.1960
     29  CA        14.5960   24.6760   16.5480 C.3    71  PHE71       0.1771
     30  C         13.5430   23.6450   16.2240 C.2    71  PHE71       0.2619
     31  O         12.4640   23.6350   16.8230 O.2    71  PHE71      -0.2715
     32  CB        14.3910   25.9060   15.6610 C.3    71  PHE71       0.0574
     33  CG        12.9510   26.3000   15.4930 C.ar   71  PHE71      -0.0200
     34  CD1       12.2330   26.8300   16.5570 C.ar   71  PHE71      -0.0042
     35  CD2       12.3130   26.1280   14.2730 C.ar   71  PHE71      -0.0042
     36  CE1       10.8980   27.1870   16.4080 C.ar   71  PHE71      -0.0003
     37  CE2       10.9810   26.4790   14.1090 C.ar   71  PHE71      -0.0003
     38  CZ        10.2690   27.0120   15.1770 C.ar   71  PHE71      -0.0000
     39  N         13.8510   22.7750   15.2720 N.am   72  ARG72      -0.1963
     40  CA        12.9020   21.7370   14.9080 C.3    72  ARG72       0.1729
     41  C         12.7690   20.8000   16.0950 C.2    72  ARG72       0.2616
     42  O         11.6810   20.3170   16.3960 O.2    72  ARG72      -0.2715
     43  CB        13.3600   20.9750   13.6610 C.3    72  ARG72       0.0348
     44  CG        12.2160   20.5120   12.7650 C.3    72  ARG72       0.0492
     45  CD        11.0470   19.9880   13.5890 C.3    72  ARG72       0.2205
     46  NE         9.9140   19.5370   12.7890 N.pl3  72  ARG72      -0.0865
     47  CZ         8.7910   19.0540   13.3070 C.cat  72  ARG72       0.5346
     48  NH1        8.6510   18.9680   14.6210 N.pl3  72  ARG72       0.1354
     49  NH2        7.8020   18.6580   12.5130 N.pl3  72  ARG72       0.1354
     50  N         13.8930   20.5710   16.7730 N.am   73  SER73      -0.1950
     51  CA        13.9380   19.7580   17.9830 C.3    73  SER73       0.1924
     52  C         12.9580   20.2910   19.0090 C.2    73  SER73       0.2314
     53  O         12.1470   19.5470   19.5570 O.2    73  SER73      -0.2863
     54  CB        15.3330   19.8120   18.5980 C.3    73  SER73       0.2116
     55  OG        16.1380   18.7170   18.1930 O.3    73  SER73      -0.2180
     56  N          9.6870   19.5720   17.9640 N.3    76  ALA76      -0.1245
     57  CA         9.4760   18.1410   18.1390 C.3    76  ALA76       0.1562
     58  C          9.1140   17.7880   19.5830 C.2    76  ALA76       0.2260
     59  O          8.2110   16.9890   19.8350 O.2    76  ALA76      -0.2867
     60  CB        10.7110   17.3770   17.7110 C.3    76  ALA76       0.0290
     61  N         12.9720   11.4950   19.2430 N.3   110  ILE110     -0.1231
     62  CA        13.2850   12.3900   18.1410 C.3   110  ILE110      0.1692
     63  C         14.0780   11.6790   17.0520 C.2   110  ILE110      0.2592
     64  O         13.7270   11.7380   15.8770 O.2   110  ILE110     -0.2718
     65  CB        14.0450   13.6210   18.6640 C.3   110  ILE110      0.0266
     66  CG1       13.0550   14.6300   19.2570 C.3   110  ILE110      0.0019
     67  CG2       14.8840   14.2590   17.5900 C.3   110  ILE110      0.0020
     68  CD1       13.7140   15.8510   19.8760 C.3   110  ILE110      0.0001
     69  N         15.1280   10.9820   17.4620 N.am  111  TYR111     -0.1976
     70  CA        16.0080   10.2740   16.5410 C.3   111  TYR111      0.1639
     71  C         15.3780    9.0050   15.9570 C.2   111  TYR111      0.2290
     72  O         15.6620    8.6390   14.8130 O.2   111  TYR111     -0.2864
     73  CB        17.3230    9.9370   17.2500 C.3   111  TYR111      0.0560
     74  CG        18.0420   11.1440   17.8040 C.ar  111  TYR111     -0.0198
     75  CD1       18.7640   11.0670   18.9950 C.ar  111  TYR111     -0.0009
     76  CD2       17.9890   12.3710   17.1450 C.ar  111  TYR111     -0.0009
     77  CE1       19.4310   12.1830   19.5110 C.ar  111  TYR111      0.0417
     78  CE2       18.6510   13.4960   17.6480 C.ar  111  TYR111      0.0417
     79  CZ        19.3720   13.3930   18.8300 C.ar  111  TYR111      0.1957
     80  OH        20.0250   14.4990   19.3260 O.3   111  TYR111     -0.2866
     81  N         13.1440   10.6250   13.5840 N.3   114  LEU114     -0.1245
     82  CA        14.0010   11.2200   12.5690 C.3   114  LEU114      0.1561
     83  C         14.3880   10.1990   11.4960 C.2   114  LEU114      0.2260
     84  O         14.6380   10.5580   10.3490 O.2   114  LEU114     -0.2867
     85  CB        15.2610   11.7900   13.2120 C.3   114  LEU114      0.0270
     86  CG        16.1600   12.5640   12.2580 C.3   114  LEU114      0.0019
     87  CD1       15.3120   13.5460   11.4470 C.3   114  LEU114      0.0001
     88  CD2       17.2950   13.2870   12.9880 C.3   114  LEU114      0.0001
     89  N         12.4850    9.9080    8.3210 N.3   117  LEU117     -0.1245
     90  CA        12.6550   10.9880    7.3560 C.3   117  LEU117      0.1561
     91  C         13.9560   10.8470    6.5830 C.2   117  LEU117      0.2260
     92  O         14.3210   11.7070    5.7770 O.2   117  LEU117     -0.2867
     93  CB        12.6590   12.3430    8.0570 C.3   117  LEU117      0.0270
     94  CG        11.6790   12.7130    9.1660 C.3   117  LEU117      0.0019
     95  CD1       11.6560   14.2230    9.3330 C.3   117  LEU117      0.0001
     96  CD2       10.3080   12.2200    8.8550 C.3   117  LEU117      0.0001
     97  N         18.1460   13.3420    4.1050 N.3   123  VAL123     -0.1231
     98  CA        17.0240   13.5380    5.0260 C.3   123  VAL123      0.1692
     99  C         16.0970   14.7040    4.6660 C.2   123  VAL123      0.2592
    100  O         16.5550   15.8050    4.3720 O.2   123  VAL123     -0.2718
    101  CB        17.5450   13.7570    6.4710 C.3   123  VAL123      0.0266
    102  CG1       18.4030   15.0150    6.5430 C.3   123  VAL123      0.0020
    103  CG2       16.3850   13.7970    7.4860 C.3   123  VAL123      0.0020
    104  N         14.7910   14.4570    4.7400 N.am  124  LEU124     -0.1966
    105  CA        13.7680   15.4830    4.5140 C.3   124  LEU124      0.1728
    106  C         13.8450   16.6100    5.5400 C.2   124  LEU124      0.2616
    107  O         14.0410   16.3570    6.7220 O.2   124  LEU124     -0.2715
    108  CB        12.3740   14.8610    4.6100 C.3   124  LEU124      0.0311
    109  CG        11.9230   13.8910    3.5210 C.3   124  LEU124      0.0022
    110  CD1       10.6940   13.0970    3.9840 C.3   124  LEU124      0.0001
    111  CD2       11.6370   14.6660    2.2540 C.3   124  LEU124      0.0001
    112  N         13.6730   17.8470    5.0930 N.am  125  ILE125     -0.1963
    113  CA        13.5760   18.9730    6.0090 C.3   125  ILE125      0.1727
    114  C         12.4260   19.8640    5.5810 C.2   125  ILE125      0.2617
    115  O         11.6940   19.5390    4.6350 O.2   125  ILE125     -0.2715
    116  CB        14.8480   19.8190    6.0180 C.3   125  ILE125      0.0290
    117  CG1       15.1470   20.2800    4.5930 C.3   125  ILE125      0.0022
    118  CG2       16.0130   19.0440    6.5980 C.3   125  ILE125      0.0023
    119  CD1       15.8810   21.6090    4.5020 C.3   125  ILE125      0.0001
    120  N         12.3000   20.9990    6.2630 N.am  126  SER126     -0.1936
    121  CA        11.2110   21.9450    6.0250 C.3   126  SER126      0.2055
    122  C          9.8740   21.2220    5.7950 C.2   126  SER126      0.2642
    123  O          9.1750   21.4460    4.7870 O.2   126  SER126     -0.2714
    124  CB        11.5490   22.8950    4.8700 C.3   126  SER126      0.2130
    125  OG        10.6590   23.9950    4.8270 O.3   126  SER126     -0.2179
    126  N          9.5300   20.3570    6.7510 N.am  127  GLU127     -0.1976
    127  CA         8.3040   19.5670    6.6970 C.3   127  GLU127      0.1602
    128  C          8.1810   18.7310    5.4120 C.2   127  GLU127      0.2287
    129  O          7.0780   18.4260    4.9640 O.2   127  GLU127     -0.2864
    130  CB         7.0890   20.4780    6.8740 C.3   127  GLU127      0.0415
    131  CG         6.8590   20.9470    8.2960 C.3   127  GLU127      0.1163
    132  CD         6.5560   19.8750    9.3020 C.2   127  GLU127      0.3649
    133  OE1        6.2760   18.7300    8.8120 O.co2 127  GLU127     -0.2457
    134  OE2        6.5510   20.1420   10.5060 O.co2 127  GLU127     -0.2457
    135  N         17.8240   17.5100    2.3140 N.3   132  MET132     -0.1245
    136  CA        19.2570   17.7490    2.4660 C.3   132  MET132      0.1570
    137  C         20.0550   16.4480    2.4530 C.2   132  MET132      0.2261
    138  O         19.7730   15.5040    3.2080 O.2   132  MET132     -0.2867
    139  CB        19.5450   18.5030    3.7570 C.3   132  MET132      0.0387
    140  CG        20.8990   19.1740    3.7810 C.3   132  MET132      0.0595
    141  SD        21.0070   20.3250    5.1680 S.3   132  MET132     -0.1393
    142  CE        19.4210   21.1360    5.0180 C.3   132  MET132      0.0692
    143  N         25.8980   17.6250    4.4660 N.3   137  LEU137     -0.1245
    144  CA        26.1200   17.7080    5.9010 C.3   137  LEU137      0.1561
    145  C         27.5850   17.4200    6.2810 C.2   137  LEU137      0.2260
    146  O         28.2330   18.2620    6.9080 O.2   137  LEU137     -0.2867
    147  CB        25.1250   16.8040    6.6470 C.3   137  LEU137      0.0270
    148  CG        23.6480   17.1780    6.4530 C.3   137  LEU137      0.0019
    149  CD1       22.7360   16.0040    6.7340 C.3   137  LEU137      0.0001
    150  CD2       23.2450   18.3860    7.3180 C.3   137  LEU137      0.0001
    151  N         27.7890   16.1250   12.8700 N.3   147  PHE147     -0.1227
    152  CA        26.6040   16.0490   13.7240 C.3   147  PHE147      0.1736
    153  C         25.4410   15.1800   13.2240 C.2   147  PHE147      0.2595
    154  O         24.7260   14.6020   14.0380 O.2   147  PHE147     -0.2718
    155  CB        26.1400   17.4470   14.1620 C.3   147  PHE147      0.0547
    156  CG        25.1140   18.0690   13.2640 C.ar  147  PHE147     -0.0202
    157  CD1       23.8180   18.2950   13.7150 C.ar  147  PHE147     -0.0042
    158  CD2       25.4470   18.4470   11.9710 C.ar  147  PHE147     -0.0042
    159  CE1       22.8740   18.8850   12.8880 C.ar  147  PHE147     -0.0003
    160  CE2       24.5110   19.0310   11.1380 C.ar  147  PHE147     -0.0003
    161  CZ        23.2220   19.2520   11.5980 C.ar  147  PHE147     -0.0000
    162  N         25.2470   15.0750   11.9100 N.am  148  MET148     -0.1979
    163  CA        24.1490   14.2570   11.4100 C.3   148  MET148      0.1605
    164  C         24.5880   12.8300   11.1210 C.2   148  MET148      0.2287
    165  O         23.7590   11.9390   10.9500 O.2   148  MET148     -0.2864
    166  CB        23.4870   14.8740   10.1800 C.3   148  MET148      0.0413
    167  CG        22.5620   16.0200   10.5230 C.3   148  MET148      0.0598
    168  SD        21.4460   15.6360   11.9010 S.3   148  MET148     -0.1393
    169  CE        20.2430   14.5820   11.0970 C.3   148  MET148      0.0692
    170  N         23.4310    9.8530   13.3460 N.3   151  LYS151     -0.1245
    171  CA        21.9900    9.7710   13.1760 C.3   151  LYS151      0.1561
    172  C         21.6370    9.0060   11.9060 C.2   151  LYS151      0.2260
    173  O         20.7390    8.1590   11.9030 O.2   151  LYS151     -0.2867
    174  CB        21.3930   11.1770   13.1370 C.3   151  LYS151      0.0271
    175  CG        21.2160   11.8010   14.5180 C.3   151  LYS151      0.0035
    176  CD        22.2370   12.8770   14.7810 C.3   151  LYS151      0.0206
    177  CE        22.1900   13.3020   16.2300 C.3   151  LYS151      0.1093
    178  NZ        23.4430   13.9880   16.6430 N.3   151  LYS151     -0.1314
    179  N         25.7330   13.3570   20.8110 N.3   233  HIS233     -0.1241
    180  CA        25.1540   14.6720   20.5770 C.3   233  HIS233      0.1621
    181  C         25.4680   15.6100   21.7380 C.2   233  HIS233      0.2264
    182  O         25.9310   16.7330   21.5400 O.2   233  HIS233     -0.2867
    183  CB        23.6460   14.5760   20.3710 C.3   233  HIS233      0.0745
    184  CG        23.0250   15.8550   19.9080 C.ar  233  HIS233      0.0817
    185  ND1       22.5320   16.8040   20.7800 N.ar  233  HIS233     -0.2268
    186  CD2       22.8310   16.3490   18.6630 C.ar  233  HIS233      0.1154
    187  CE1       22.0540   17.8250   20.0910 C.ar  233  HIS233      0.1986
    188  NE2       22.2260   17.5750   18.8050 N.ar  233  HIS233     -0.2212
@<TRIPOS>BOND
     1   111   109    1
     2   135   136    1
     3   137   136    1
     4   137   138    2
     5   136   139    1
     6   109   110    1
     7   109   108    1
     8   139   140    1
     9   140   141    1
    10    97    98    1
    11   100    99    2
    12   143   144    1
    13   119   117    1
    14   105   108    1
    15   105   104    1
    16   105   106    1
    17   117   116    1
    18   115   114    2
    19    99   104   am
    20    99    98    1
    21   123   122    2
    22   125   124    1
    23   124   121    1
    24   129   128    2
    25   142   141    1
    26    98   101    1
    27   112   106   am
    28   112   113    1
    29   128   127    1
    30   106   107    2
    31   114   113    1
    32   114   120   am
    33    92    91    2
    34   122   121    1
    35   122   126   am
    36   144   145    1
    37   144   147    1
    38   113   116    1
    39   116   118    1
    40   121   120    1
    41   145   146    2
    42   148   147    1
    43   148   149    1
    44   148   150    1
    45   101   102    1
    46   101   103    1
    47    91    90    1
    48     7     6    1
    49   127   126    1
    50   127   130    1
    51   130   131    1
    52    90    93    1
    53    90    89    1
    54     8     6    1
    55     6     5    1
    56    93    94    1
    57   131   132    1
    58   133   132   ar
    59    96    94    1
    60     5     2    1
    61    94    95    1
    62   132   134   ar
    63     2     3    1
    64     2     1    1
    65     3     4    2
    66   166   167    1
    67   166   163    1
    68    84    83    2
    69   167   168    1
    70   165   164    2
    71   169   168    1
    72   164   163    1
    73   160   161   ar
    74   160   158   ar
    75   163   162    1
    76    18    17    1
    77    87    86    1
    78    83    82    1
    79   161   159   ar
    80   173   172    2
    81   172   171    1
    82   162   153   am
    83   158   156   ar
    84    10    11    1
    85    10     9    1
    86    86    88    1
    87    86    85    1
    88    49    47    1
    89    82    85    1
    90    82    81    1
    91    13    11   am
    92    13    14    1
    93    11    12    2
    94    44    45    1
    95    44    43    1
    96    46    47    2
    97    46    45    1
    98   151   152    1
    99   159   157   ar
   100   174   171    1
   101   174   175    1
   102    17    14    1
   103   171   170    1
   104   153   152    1
   105   153   154    2
   106   156   157   ar
   107   156   155    1
   108    47    48    1
   109    14    15    1
   110    43    40    1
   111   152   155    1
   112    37    35   ar
   113    37    38   ar
   114    35    33   ar
   115   175   176    1
   116   176   177    1
   117    15    16    2
   118    15    19   am
   119    72    71    2
   120    40    39    1
   121    40    41    1
   122    38    36   ar
   123    39    30   am
   124    33    32    1
   125    33    34   ar
   126    19    20    1
   127    32    29    1
   128    64    63    2
   129    71    70    1
   130    41    42    2
   131    41    50   am
   132    30    29    1
   133    30    31    2
   134   177   178    1
   135    28    29    1
   136    28    21   am
   137    36    34   ar
   138    70    73    1
   139    70    69    1
   140    50    51    1
   141    20    21    1
   142    20    23    1
   143    63    69   am
   144    63    62    1
   145    76    78   ar
   146    76    74   ar
   147    21    22    2
   148    73    74    1
   149    23    24    1
   150    67    65    1
   151    78    79   ar
   152    24    25    1
   153    27    25   am
   154    60    57    1
   155    74    75   ar
   156    56    57    1
   157    51    54    1
   158    51    52    1
   159    57    58    1
   160    62    65    1
   161    62    61    1
   162    55    54    1
   163    25    26    2
   164   186   188   ar
   165   186   184   ar
   166    65    66    1
   167   188   187   ar
   168    79    80    1
   169    79    77   ar
   170    75    77   ar
   171    52    53    2
   172    66    68    1
   173    58    59    2
   174   184   183    1
   175   184   185   ar
   176   187   185   ar
   177   183   180    1
   178   180   179    1
   179   180   181    1
   180   182   181    2
