@<TRIPOS>MOLECULE
tmp/3osnC00.pdb
 153 149 0 0 0
SMALL
GASTEIGER

@<TRIPOS>ATOM
      1  N         10.2400   18.3790   11.4260 N.3    10  ASP10      -0.1225
      2  CA         8.9500   18.8890   11.9460 C.3    10  ASP10       0.1805
      3  C          8.4640   17.7210   12.8510 C.2    10  ASP10       0.2598
      4  O          8.0600   16.6560   12.3530 O.2    10  ASP10      -0.2718
      5  CB         7.9350   19.1950   10.7530 C.3    10  ASP10       0.1424
      6  CG         6.6400   19.8040   11.2530 C.2    10  ASP10       0.3668
      7  OD1        5.8830   20.4410   10.4750 O.co2  10  ASP10      -0.2456
      8  OD2        6.4140   19.7090   12.5260 O.co2  10  ASP10      -0.2456
      9  N          8.5810   17.8890   14.1750 N.am   11  LEU11      -0.1966
     10  CA         8.2590   16.7830   15.0790 C.3    11  LEU11       0.1728
     11  C          6.7410   16.5430   15.0680 C.2    11  LEU11       0.2616
     12  O          5.9540   17.4710   14.9860 O.2    11  LEU11      -0.2715
     13  CB         8.7830   17.1090   16.4720 C.3    11  LEU11       0.0311
     14  CG        10.1760   16.3820   16.5250 C.3    11  LEU11       0.0022
     15  CD1       10.9370   15.9810   15.1790 C.3    11  LEU11       0.0001
     16  CD2       11.1300   16.8060   17.5600 C.3    11  LEU11       0.0001
     17  N          6.3330   15.3050   15.2450 N.am   12  ASP12      -0.1957
     18  CA         4.9190   15.0100   15.3140 C.3    12  ASP12       0.1840
     19  C          4.2950   15.4490   16.6730 C.2    12  ASP12       0.2622
     20  O          4.9110   15.1890   17.6960 O.2    12  ASP12      -0.2715
     21  CB         4.7690   13.4830   15.1840 C.3    12  ASP12       0.1450
     22  CG         5.3960   12.8990   13.8720 C.2    12  ASP12       0.3671
     23  OD1        5.1130   13.3840   12.7610 O.co2  12  ASP12      -0.2456
     24  OD2        6.0750   11.8460   13.9670 O.co2  12  ASP12      -0.2456
     25  N          3.1280   16.1170   16.6720 N.am   13  CYS13      -0.1954
     26  CA         2.3400   16.3930   17.8730 C.3    13  CYS13       0.1843
     27  C          3.1460   16.7710   19.1430 C.2    13  CYS13       0.2625
     28  O          2.8030   16.3490   20.2590 O.2    13  CYS13      -0.2714
     29  CB         1.2990   15.3080   18.1480 C.3    13  CYS13       0.0997
     30  SG         1.8070   13.6070   18.2260 S.3    13  CYS13      -0.0797
     31  N          4.1570   17.6030   18.9550 N.am   14  PHE14      -0.1960
     32  CA         5.2540   17.6320   19.9150 C.3    14  PHE14       0.1771
     33  C          4.9440   17.5460   21.4510 C.2    14  PHE14       0.2619
     34  O          5.5020   16.6800   22.1530 O.2    14  PHE14      -0.2715
     35  CB         6.0520   18.8610   19.5960 C.3    14  PHE14       0.0574
     36  CG         7.2920   19.0170   20.4710 C.ar   14  PHE14      -0.0200
     37  CD1        8.2320   17.9920   20.5580 C.ar   14  PHE14      -0.0042
     38  CD2        7.4730   20.2030   21.1620 C.ar   14  PHE14      -0.0042
     39  CE1        9.3990   18.1510   21.3540 C.ar   14  PHE14      -0.0003
     40  CE2        8.6030   20.4010   21.9710 C.ar   14  PHE14      -0.0003
     41  CZ         9.5750   19.3730   22.0440 C.ar   14  PHE14      -0.0000
     42  N          4.0460   18.3930   21.9360 N.am   15  TYR15      -0.1974
     43  CA         3.7640   18.4540   23.3900 C.3    15  TYR15       0.1639
     44  C          3.1860   17.0960   23.7710 C.2    15  TYR15       0.2290
     45  O          3.4500   16.6020   24.8610 O.2    15  TYR15      -0.2864
     46  CB         2.7150   19.5480   23.7900 C.3    15  TYR15       0.0560
     47  CG         3.1740   21.0150   23.6700 C.ar   15  TYR15      -0.0198
     48  CD1        4.4550   21.3690   23.1950 C.ar   15  TYR15      -0.0009
     49  CD2        2.2900   22.0260   23.9590 C.ar   15  TYR15      -0.0009
     50  CE1        4.8310   22.7090   23.0640 C.ar   15  TYR15       0.0417
     51  CE2        2.6680   23.3800   23.8380 C.ar   15  TYR15       0.0417
     52  CZ         3.9230   23.6950   23.4190 C.ar   15  TYR15       0.1957
     53  OH         4.2400   25.0270   23.3160 O.3    15  TYR15      -0.2866
     54  N         -4.4600   23.8760   27.4980 N.3    35  GLN35      -0.1245
     55  CA        -4.0160   25.1470   28.0280 C.3    35  GLN35       0.1566
     56  C         -5.2930   25.9480   28.1810 C.2    35  GLN35       0.2260
     57  O         -5.9730   26.2130   27.1830 O.2    35  GLN35      -0.2867
     58  CB        -3.0120   25.8460   27.0840 C.3    35  GLN35       0.0367
     59  CG        -1.6920   25.0900   26.9770 C.3    35  GLN35       0.0905
     60  CD        -0.7360   25.7130   25.9890 C.2    35  GLN35       0.2608
     61  OE1       -1.1750   26.2870   25.0130 O.2    35  GLN35      -0.2717
     62  NE2        0.5840   25.5520   26.2050 N.am   35  GLN35      -0.0878
     63  N         -4.5940   22.3460   22.6680 N.3    40  VAL40      -0.1231
     64  CA        -3.6570   22.9860   21.8230 C.3    40  VAL40       0.1692
     65  C         -3.0490   21.9700   20.8830 C.2    40  VAL40       0.2592
     66  O         -2.7040   22.2940   19.7420 O.2    40  VAL40      -0.2718
     67  CB        -2.5570   23.7750   22.6460 C.3    40  VAL40       0.0266
     68  CG1       -1.4810   22.8460   23.2040 C.3    40  VAL40       0.0020
     69  CG2       -1.8730   24.7030   21.7320 C.3    40  VAL40       0.0020
     70  N         -2.9060   20.7280   21.3500 N.am   41  THR41      -0.1953
     71  CA        -2.4790   19.6560   20.4480 C.3    41  THR41       0.1897
     72  C         -2.9450   18.3080   21.0060 C.2    41  THR41       0.2313
     73  O         -3.3450   18.2300   22.1560 O.2    41  THR41      -0.2863
     74  CB        -0.9540   19.6490   20.1010 C.3    41  THR41       0.1794
     75  OG1       -0.7330   18.8190   18.9450 O.3    41  THR41      -0.2208
     76  CG2       -0.0650   19.1100   21.2540 C.3    41  THR41       0.0378
     77  N         -1.9190   11.1970   17.5640 N.3    44  TYR44      -0.1241
     78  CA        -2.6020   10.7880   16.3120 C.3    44  TYR44       0.1605
     79  C         -3.8080    9.9050   16.5900 C.2    44  TYR44       0.2264
     80  O         -4.6960    9.8230   15.7550 O.2    44  TYR44      -0.2867
     81  CB        -1.6380   10.3020   15.1650 C.3    44  TYR44       0.0534
     82  CG        -0.8590   11.4630   14.4550 C.ar   44  TYR44      -0.0201
     83  CD1       -1.1520   11.8740   13.1180 C.ar   44  TYR44      -0.0009
     84  CD2        0.1570   12.1320   15.1060 C.ar   44  TYR44      -0.0009
     85  CE1       -0.4210   12.9610   12.4900 C.ar   44  TYR44       0.0417
     86  CE2        0.8600   13.1850   14.5110 C.ar   44  TYR44       0.0417
     87  CZ         0.5690   13.6130   13.2000 C.ar   44  TYR44       0.1957
     88  OH         1.3160   14.6900   12.6540 O.3    44  TYR44      -0.2866
     89  N         -6.5610   12.5010   16.9510 N.3    47  ARG47      -0.1245
     90  CA        -6.8990   12.9970   15.5990 C.3    47  ARG47       0.1563
     91  C         -7.8060   12.0700   14.7830 C.2    47  ARG47       0.2260
     92  O         -8.6460   12.5660   14.0180 O.2    47  ARG47      -0.2867
     93  CB        -5.6370   13.3280   14.7800 C.3    47  ARG47       0.0307
     94  CG        -4.9720   14.6330   15.2660 C.3    47  ARG47       0.0489
     95  CD        -3.5630   14.8120   14.6720 C.3    47  ARG47       0.2205
     96  NE        -2.7160   15.6620   15.5320 N.pl3  47  ARG47      -0.0865
     97  CZ        -1.7140   16.4220   15.0840 C.cat  47  ARG47       0.5346
     98  NH1       -1.4360   16.4750   13.7740 N.pl3  47  ARG47       0.1354
     99  NH2       -0.9940   17.1410   15.9380 N.pl3  47  ARG47       0.1354
    100  N         -6.3190   20.1660   16.1590 N.3    53  LYS53      -0.1231
    101  CA        -5.4050   21.1010   16.7980 C.3    53  LYS53       0.1693
    102  C         -6.0890   22.4520   17.0250 C.2    53  LYS53       0.2591
    103  O         -6.7670   22.9700   16.1260 O.2    53  LYS53      -0.2718
    104  CB        -4.1170   21.2360   15.9690 C.3    53  LYS53       0.0285
    105  CG        -3.2890   19.9380   15.8980 C.3    53  LYS53       0.0035
    106  CD        -1.9080   20.1960   15.3170 C.3    53  LYS53       0.0206
    107  CE        -1.9490   20.1400   13.7850 C.3    53  LYS53       0.1093
    108  NZ        -0.6360   20.5310   13.2050 N.3    53  LYS53      -0.1314
    109  N         -5.9190   22.9950   18.2320 N.am   54  LEU54      -0.1980
    110  CA        -6.5900   24.2390   18.6800 C.3    54  LEU54       0.1596
    111  C         -8.1300   24.1770   18.5840 C.2    54  LEU54       0.2287
    112  O         -8.7960   25.1140   18.1240 O.2    54  LEU54      -0.2864
    113  CB        -6.0180   25.4960   17.9870 C.3    54  LEU54       0.0297
    114  CG        -4.4850   25.5880   17.9970 C.3    54  LEU54       0.0022
    115  CD1       -3.9540   26.0940   16.6480 C.3    54  LEU54       0.0001
    116  CD2       -4.0130   26.4440   19.1700 C.3    54  LEU54       0.0001
    117  N          8.8350   25.6910   18.7050 N.3   101  PHE101     -0.1227
    118  CA         9.5240   24.6960   19.5410 C.3   101  PHE101      0.1736
    119  C          9.6790   23.3950   18.8180 C.2   101  PHE101      0.2595
    120  O         10.3960   22.5430   19.3020 O.2   101  PHE101     -0.2718
    121  CB         8.6860   24.3930   20.7910 C.3   101  PHE101      0.0547
    122  CG         8.8260   25.3680   21.9040 C.ar  101  PHE101     -0.0202
    123  CD1        8.3510   25.0070   23.1820 C.ar  101  PHE101     -0.0042
    124  CD2        9.4580   26.5900   21.7560 C.ar  101  PHE101     -0.0042
    125  CE1        8.5050   25.8850   24.2570 C.ar  101  PHE101     -0.0003
    126  CE2        9.5930   27.4520   22.8390 C.ar  101  PHE101     -0.0003
    127  CZ         9.0980   27.1090   24.0730 C.ar  101  PHE101     -0.0000
    128  N          8.9970   23.2010   17.6950 N.am  102  ASP102     -0.1960
    129  CA         8.9970   21.8410   17.1050 C.3   102  ASP102      0.1840
    130  C          9.4610   21.7200   15.6740 C.2   102  ASP102      0.2621
    131  O          9.3680   20.6250   15.0970 O.2   102  ASP102     -0.2715
    132  CB         7.6110   21.1460   17.2770 C.3   102  ASP102      0.1450
    133  CG         6.4410   21.8790   16.5790 C.2   102  ASP102      0.3671
    134  OD1        5.2790   21.6880   17.0390 O.co2 102  ASP102     -0.2456
    135  OD2        6.6470   22.6690   15.6240 O.co2 102  ASP102     -0.2456
    136  N          9.9750   22.8060   15.1090 N.am  103  GLU103     -0.1977
    137  CA        10.4740   22.7690   13.7080 C.3   103  GLU103      0.1602
    138  C         11.9000   23.3250   13.6910 C.2   103  GLU103      0.2287
    139  O         12.2250   24.3240   14.4300 O.2   103  GLU103     -0.2864
    140  CB         9.5940   23.6260   12.8090 C.3   103  GLU103      0.0415
    141  CG         8.1610   23.0690   12.5750 C.3   103  GLU103      0.1163
    142  CD         7.2760   23.8800   11.6130 C.2   103  GLU103      0.3649
    143  OE1        7.7670   24.6230   10.7240 O.co2 103  GLU103     -0.2457
    144  OE2        6.0470   23.7530   11.7420 O.co2 103  GLU103     -0.2457
    145  N          2.7150   12.1030    6.5670 N.3   190  LYS190     -0.1245
    146  CA         2.8460   12.2090    8.0200 C.3   190  LYS190      0.1561
    147  C          1.8870   11.2000    8.6190 C.2   190  LYS190      0.2260
    148  O          0.8940   10.8030    7.9620 O.2   190  LYS190     -0.2867
    149  CB         2.5830   13.6730    8.4590 C.3   190  LYS190      0.0271
    150  CG         1.1390   14.1360    8.3390 C.3   190  LYS190      0.0035
    151  CD         1.0520   15.7260    8.3080 C.3   190  LYS190      0.0206
    152  CE         1.6370   16.4370    9.5520 C.3   190  LYS190      0.1093
    153  NZ         0.6860   17.5000   10.1080 N.3   190  LYS190     -0.1314
@<TRIPOS>BOND
     1   145   146    1
     2   148   147    2
     3   146   149    1
     4   146   147    1
     5   151   150    1
     6   151   152    1
     7   150   149    1
     8   152   153    1
     9     7     6   ar
    10   143   142   ar
    11     5     6    1
    12     5     2    1
    13     6     8   ar
    14     1     2    1
    15   142   144   ar
    16   142   141    1
    17     2     3    1
    18     4     3    2
    19    85    83   ar
    20    85    87   ar
    21   141   140    1
    22    88    87    1
    23    23    22   ar
    24   140   137    1
    25     3     9   am
    26    83    82   ar
    27    87    86   ar
    28   108   107    1
    29   138   137    1
    30   138   139    2
    31   137   136    1
    32    98    97    1
    33   107   106    1
    34    22    24   ar
    35    22    21    1
    36    92    91    2
    37     9    10    1
    38    82    84   ar
    39    82    81    1
    40    86    84   ar
    41    95    94    1
    42    95    96    1
    43    93    94    1
    44    93    90    1
    45    91    90    1
    46    12    11    2
    47    11    10    1
    48    11    17   am
    49    10    13    1
    50    97    96    2
    51    97    99    1
    52   131   130    2
    53   136   130   am
    54    81    78    1
    55    15    14    1
    56    21    18    1
    57    17    18    1
    58    18    19    1
    59   106   105    1
    60    90    89    1
    61   135   133   ar
    62   130   129    1
    63    80    79    2
    64   105   104    1
    65   104   101    1
    66   103   102    2
    67   100   101    1
    68    78    79    1
    69    78    77    1
    70    13    14    1
    71    14    16    1
    72   133   134   ar
    73   133   132    1
    74   115   114    1
    75    25    19   am
    76    25    26    1
    77    19    20    2
    78   101   102    1
    79   102   109   am
    80   129   132    1
    81   129   128    1
    82   128   119   am
    83    26    29    1
    84    26    27    1
    85   113   114    1
    86   113   110    1
    87   114   116    1
    88   112   111    2
    89    29    30    1
    90   109   110    1
    91   111   110    1
    92   117   118    1
    93   119   120    2
    94   119   118    1
    95    75    74    1
    96    31    27   am
    97    31    32    1
    98    27    28    2
    99   118   121    1
   100    35    32    1
   101    35    36    1
   102    66    65    2
   103    32    33    1
   104    74    71    1
   105    74    76    1
   106    71    72    1
   107    71    70    1
   108    36    37   ar
   109    36    38   ar
   110    37    39   ar
   111   121   122    1
   112    65    70   am
   113    65    64    1
   114    72    73    2
   115    38    40   ar
   116    39    41   ar
   117    33    42   am
   118    33    34    2
   119    69    67    1
   120   124   122   ar
   121   124   126   ar
   122    64    67    1
   123    64    63    1
   124   122   123   ar
   125    42    43    1
   126    40    41   ar
   127    67    68    1
   128   126   127   ar
   129    50    48   ar
   130    50    52   ar
   131   123   125   ar
   132    48    47   ar
   133    53    52    1
   134    43    44    1
   135    43    46    1
   136    52    51   ar
   137    47    46    1
   138    47    49   ar
   139    44    45    2
   140    51    49   ar
   141   127   125   ar
   142    61    60    2
   143    60    62   am
   144    60    59    1
   145    59    58    1
   146    58    55    1
   147    57    56    2
   148    54    55    1
   149    55    56    1
