@<TRIPOS>MOLECULE
tmp/3osqA00.pdb
 179 175 0 0 0
SMALL
GASTEIGER

@<TRIPOS>ATOM
      1  N        -25.6470   16.6120   21.4800 N.3    11  ASN11      -0.1240
      2  CA       -26.4630   17.8030   21.1880 C.3    11  ASN11       0.1653
      3  C        -27.7520   17.4580   20.4600 C.2    11  ASN11       0.2266
      4  O        -27.8290   16.5050   19.6800 O.2    11  ASN11      -0.2867
      5  CB       -25.6650   18.8750   20.4310 C.3    11  ASN11       0.1155
      6  CG       -26.2540   20.2580   20.5510 C.2    11  ASN11       0.2627
      7  OD1      -26.5160   20.7250   21.6410 O.2    11  ASN11      -0.2716
      8  ND2      -26.3290   20.9720   19.4170 N.am   11  ASN11      -0.0877
      9  N        -29.2890   18.7510   18.0370 N.3    13  ASP13      -0.1225
     10  CA       -29.3590   18.7770   16.5840 C.3    13  ASP13       0.1805
     11  C        -28.7610   17.5020   15.8750 C.2    13  ASP13       0.2597
     12  O        -28.8790   17.3400   14.6700 O.2    13  ASP13      -0.2718
     13  CB       -28.7820   20.0960   16.0770 C.3    13  ASP13       0.1424
     14  CG       -27.2530   20.2460   16.3590 C.2    13  ASP13       0.3668
     15  OD1      -26.6410   19.3290   17.0080 O.co2  13  ASP13      -0.2456
     16  OD2      -26.7470   21.3520   16.0360 O.co2  13  ASP13      -0.2456
     17  N        -28.2870   16.5130   16.6420 N.am   14  LYS14      -0.1979
     18  CA       -27.6730   15.2940   16.1220 C.3    14  LYS14       0.1596
     19  C        -28.5970   14.1010   16.2030 C.2    14  LYS14       0.2287
     20  O        -29.7080   14.2030   16.7500 O.2    14  LYS14      -0.2864
     21  CB       -26.3700   15.0220   16.8970 C.3    14  LYS14       0.0298
     22  CG       -25.2480   16.1480   16.9440 C.3    14  LYS14       0.0038
     23  CD       -24.9740   16.6310   15.5850 C.3    14  LYS14       0.0206
     24  CE       -23.8390   17.7270   15.4060 C.3    14  LYS14       0.1093
     25  NZ       -23.9400   18.7700   16.3370 N.3    14  LYS14      -0.1314
     26  N        -22.7320   21.9080   26.3330 N.3    43  GLU43      -0.1245
     27  CA       -21.2670   22.2220   26.2980 C.3    43  GLU43       0.1567
     28  C        -20.8130   23.1130   27.4820 C.2    43  GLU43       0.2260
     29  O        -19.6200   23.1170   27.8250 O.2    43  GLU43      -0.2867
     30  CB       -20.8940   22.8130   24.9400 C.3    43  GLU43       0.0388
     31  CG       -21.1260   24.2640   24.7430 C.3    43  GLU43       0.1160
     32  CD       -22.6270   24.6200   24.4870 C.2    43  GLU43       0.3649
     33  OE1      -23.4840   23.7590   24.7660 O.co2  43  GLU43      -0.2457
     34  OE2      -22.8710   25.7220   23.9180 O.co2  43  GLU43      -0.2457
     35  N        -19.3930   16.3850   21.3830 N.3    61  TRP61      -0.1227
     36  CA       -19.4210   17.7330   20.9250 C.3    61  TRP61       0.1737
     37  C        -18.3660   17.8100   19.7990 C.2    61  TRP61       0.2595
     38  O        -17.5240   16.9300   19.6100 O.2    61  TRP61      -0.2718
     39  CB       -19.0200   18.7390   22.0400 C.3    61  TRP61       0.0564
     40  CG       -19.4120   20.1890   21.7100 C.ar   61  TRP61       0.0003
     41  CD1      -18.5940   21.1840   21.2290 C.ar   61  TRP61       0.0946
     42  CD2      -20.7340   20.7520   21.7520 C.ar   61  TRP61       0.0152
     43  NE1      -19.3410   22.3380   21.0150 N.ar   61  TRP61      -0.2442
     44  CE2      -20.6440   22.0810   21.2870 C.ar   61  TRP61       0.0810
     45  CE3      -21.9780   20.2620   22.1670 C.ar   61  TRP61       0.0012
     46  CZ2      -21.7620   22.9260   21.2390 C.ar   61  TRP61       0.0191
     47  CZ3      -23.0790   21.0800   22.0880 C.ar   61  TRP61       0.0001
     48  CH2      -22.9720   22.3910   21.6670 C.ar   61  TRP61       0.0015
     49  N        -18.4070   18.8700   19.0250 N.am   62  ALA62      -0.1980
     50  CA       -17.2800   19.1680   18.1770 C.3    62  ALA62       0.1597
     51  C        -15.9590   19.2800   18.9950 C.2    62  ALA62       0.2287
     52  O        -15.9500   19.6960   20.1860 O.2    62  ALA62      -0.2864
     53  CB       -17.5270   20.4490   17.3650 C.3    62  ALA62       0.0319
     54  N        -13.5670   21.3450   19.1980 N.3    64  ASP64      -0.1225
     55  CA       -13.0010   22.6040   19.6370 C.3    64  ASP64       0.1805
     56  C        -13.1670   22.8100   21.1160 C.2    64  ASP64       0.2597
     57  O        -12.2780   23.4220   21.7230 O.2    64  ASP64      -0.2718
     58  CB       -13.5850   23.8310   18.9080 C.3    64  ASP64       0.1424
     59  CG       -15.1060   23.9740   19.0870 C.2    64  ASP64       0.3668
     60  OD1      -15.8340   22.9550   18.7790 O.co2  64  ASP64      -0.2456
     61  OD2      -15.5780   25.0310   19.5680 O.co2  64  ASP64      -0.2456
     62  N        -14.2020   22.2340   21.7300 N.am   65  ARG65      -0.1979
     63  CA       -14.3650   22.3740   23.2040 C.3    65  ARG65       0.1597
     64  C        -13.5120   21.4910   24.0970 C.2    65  ARG65       0.2287
     65  O        -13.3930   21.7390   25.3050 O.2    65  ARG65      -0.2864
     66  CB       -15.8010   22.1390   23.6490 C.3    65  ARG65       0.0334
     67  CG       -16.7280   23.1660   23.2040 C.3    65  ARG65       0.0492
     68  CD       -16.8570   24.3510   24.0630 C.3    65  ARG65       0.2205
     69  NE       -17.7220   25.3180   23.3350 N.pl3  65  ARG65      -0.0865
     70  CZ       -18.0200   26.5350   23.7590 C.cat  65  ARG65       0.5346
     71  NH1      -17.5680   26.9530   24.9660 N.pl3  65  ARG65       0.1354
     72  NH2      -18.8130   27.2960   23.0170 N.pl3  65  ARG65       0.1354
     73  N        -17.5060   17.7640   10.1100 N.3   110  GLU110     -0.1245
     74  CA       -18.6100   18.6790    9.8200 C.3   110  GLU110      0.1567
     75  C        -18.0760   20.0020    9.1890 C.2   110  GLU110      0.2260
     76  O        -17.1120   20.5940    9.7070 O.2   110  GLU110     -0.2867
     77  CB       -19.3200   19.0990   11.0990 C.3   110  GLU110      0.0388
     78  CG       -19.8700   17.9070   11.9570 C.3   110  GLU110      0.1160
     79  CD       -20.4010   18.3110   13.3090 C.2   110  GLU110      0.3649
     80  OE1      -20.2630   19.5020   13.6990 O.co2 110  GLU110     -0.2457
     81  OE2      -20.9870   17.4430   14.0180 O.co2 110  GLU110     -0.2457
     82  N        -29.0330   30.8510   10.4520 N.3   149  ASN149     -0.1240
     83  CA       -28.9890   31.1960   11.8450 C.3   149  ASN149      0.1653
     84  C        -28.0120   32.3320   12.0890 C.2   149  ASN149      0.2266
     85  O        -26.7820   32.1470   11.9600 O.2   149  ASN149     -0.2867
     86  CB       -28.6100   29.9640   12.6580 C.3   149  ASN149      0.1155
     87  CG       -28.6490   30.2030   14.1680 C.2   149  ASN149      0.2627
     88  OD1      -29.0740   31.2800   14.5980 O.2   149  ASN149     -0.2716
     89  ND2      -28.2150   29.2150   14.9700 N.am  149  ASN149     -0.0877
     90  N        -25.6780   32.3020   16.1820 N.3   152  GLU152     -0.1231
     91  CA       -24.4870   31.5430   16.5660 C.3   152  GLU152      0.1684
     92  C        -23.3830   31.8790   15.5690 C.2   152  GLU152      0.2434
     93  O        -23.5840   31.6800   14.3570 O.2   152  GLU152     -0.2733
     94  CB       -24.7630   30.0420   16.5490 C.3   152  GLU152      0.0402
     95  CG       -25.6060   29.4970   17.7280 C.3   152  GLU152      0.1161
     96  CD       -24.8130   29.5780   18.9860 C.2   152  GLU152      0.3649
     97  OE1      -23.5360   29.6320   18.9350 O.co2 152  GLU152     -0.2457
     98  OE2      -25.4710   29.5630   20.0170 O.co2 152  GLU152     -0.2457
     99  N        -22.2560   32.3550   16.0480 N.am  153  PRO153     -0.2718
    100  CA       -21.2230   32.8650   15.1760 C.3   153  PRO153      0.1535
    101  C        -20.6000   31.7830   14.2630 C.2   153  PRO153      0.2599
    102  O        -20.1190   32.1200   13.1560 O.2   153  PRO153     -0.2715
    103  CB       -20.1740   33.4020   16.1410 C.3   153  PRO153      0.0310
    104  CG       -20.4610   32.7230   17.4500 C.3   153  PRO153      0.0237
    105  CD       -21.9180   32.5980   17.4570 C.3   153  PRO153      0.0939
    106  N        -20.8420   30.5080   14.5790 N.am  154  TYR154     -0.1960
    107  CA       -20.4540   29.4190   13.6480 C.3   154  TYR154      0.1771
    108  C        -20.9120   29.6660   12.1980 C.2   154  TYR154      0.2619
    109  O        -20.1840   29.3830   11.2380 O.2   154  TYR154     -0.2715
    110  CB       -21.0260   28.1180   14.1940 C.3   154  TYR154      0.0574
    111  CG       -20.7120   26.8320   13.4290 C.ar  154  TYR154     -0.0198
    112  CD1      -19.4840   26.2420   13.5110 C.ar  154  TYR154     -0.0009
    113  CD2      -21.6690   26.1810   12.6980 C.ar  154  TYR154     -0.0009
    114  CE1      -19.1890   25.0540   12.8670 C.ar  154  TYR154      0.0417
    115  CE2      -21.3950   24.9740   12.0600 C.ar  154  TYR154      0.0417
    116  CZ       -20.1790   24.4120   12.1460 C.ar  154  TYR154      0.1957
    117  OH       -19.9430   23.2140   11.5460 O.3   154  TYR154     -0.2866
    118  N        -22.1460   30.1330   12.0610 N.am  155  PHE155     -0.1974
    119  CA       -22.7620   30.2890   10.7580 C.3   155  PHE155      0.1639
    120  C        -22.3760   31.5640   10.0190 C.2   155  PHE155      0.2290
    121  O        -22.4250   31.5580    8.7870 O.2   155  PHE155     -0.2864
    122  CB       -24.2790   30.2510   10.9080 C.3   155  PHE155      0.0560
    123  CG       -24.8190   28.9820   11.4350 C.ar  155  PHE155     -0.0200
    124  CD1      -25.2480   27.9690   10.5670 C.ar  155  PHE155     -0.0042
    125  CD2      -24.9080   28.7500   12.8080 C.ar  155  PHE155     -0.0042
    126  CE1      -25.8080   26.7340   11.0870 C.ar  155  PHE155     -0.0003
    127  CE2      -25.3690   27.5760   13.3150 C.ar  155  PHE155     -0.0003
    128  CZ       -25.8360   26.5450   12.4920 C.ar  155  PHE155     -0.0000
    129  N        -26.2790   17.4900    9.4740 N.3   468  TRP468     -0.1241
    130  CA       -27.3470   17.1120   10.3950 C.3   468  TRP468      0.1605
    131  C        -28.7180   17.5940    9.9080 C.2   468  TRP468      0.2264
    132  O        -29.7570   16.9810   10.1640 O.2   468  TRP468     -0.2867
    133  CB       -27.0310   17.5720   11.8590 C.3   468  TRP468      0.0550
    134  CG       -26.7720   18.9940   11.8850 C.ar  468  TRP468      0.0003
    135  CD1      -27.7200   20.0130   11.8940 C.ar  468  TRP468      0.0946
    136  CD2      -25.4900   19.6280   11.8460 C.ar  468  TRP468      0.0152
    137  NE1      -27.0850   21.2310   11.8610 N.ar  468  TRP468     -0.2442
    138  CE2      -25.7280   21.0280   11.7270 C.ar  468  TRP468      0.0810
    139  CE3      -24.1670   19.1460   11.7820 C.ar  468  TRP468      0.0012
    140  CZ2      -24.6990   21.9600   11.6840 C.ar  468  TRP468      0.0191
    141  CZ3      -23.1190   20.0920   11.7210 C.ar  468  TRP468      0.0001
    142  CH2      -23.3980   21.4890   11.6560 C.ar  468  TRP468      0.0015
    143  N        -15.4300   21.2790   12.0810 N.3   498  GLY498     -0.1225
    144  CA       -15.5900   20.6150   13.3940 C.3   498  GLY498      0.1811
    145  C        -15.4490   19.1230   13.1760 C.2   498  GLY498      0.2280
    146  O        -15.9140   18.5890   12.1450 O.2   498  GLY498     -0.2866
    147  N        -10.9700   23.7670   13.2860 N.3   568  MET568     -0.1245
    148  CA       -10.9770   24.5700   14.4890 C.3   568  MET568      0.1570
    149  C         -9.7760   24.1760   15.3560 C.2   568  MET568      0.2261
    150  O         -9.4880   22.9860   15.5030 O.2   568  MET568     -0.2867
    151  CB       -12.2310   24.3800   15.2940 C.3   568  MET568      0.0387
    152  CG       -13.4110   25.0720   14.6680 C.3   568  MET568      0.0595
    153  SD       -14.8930   24.9950   15.6460 S.3   568  MET568     -0.1393
    154  CE       -15.3900   23.4210   15.4730 C.3   568  MET568      0.0692
    155  N        -15.2460   32.2060   20.9160 N.3   578  TRP578     -0.1241
    156  CA       -16.6320   32.0690   20.4520 C.3   578  TRP578      0.1605
    157  C        -17.5870   32.9760   21.2310 C.2   578  TRP578      0.2264
    158  O        -18.4580   33.5910   20.6490 O.2   578  TRP578     -0.2867
    159  CB       -17.1210   30.6270   20.5760 C.3   578  TRP578      0.0550
    160  CG       -16.6710   29.6610   19.5060 C.ar  578  TRP578      0.0003
    161  CD1      -16.0140   28.4750   19.7360 C.ar  578  TRP578      0.0946
    162  CD2      -16.7990   29.7650   18.0960 C.ar  578  TRP578      0.0152
    163  NE1      -15.7560   27.8470   18.5760 N.ar  578  TRP578     -0.2442
    164  CE2      -16.2260   28.6020   17.5400 C.ar  578  TRP578      0.0810
    165  CE3      -17.3470   30.7190   17.2370 C.ar  578  TRP578      0.0012
    166  CZ2      -16.2030   28.3670   16.1530 C.ar  578  TRP578      0.0191
    167  CZ3      -17.3610   30.4840   15.8850 C.ar  578  TRP578      0.0001
    168  CH2      -16.7550   29.3570   15.3420 C.ar  578  TRP578      0.0015
    169  N        -19.6670   35.8570   19.2290 N.3   582  ARG582     -0.1245
    170  CA       -21.1110   35.7740   19.3060 C.3   582  ARG582      0.1563
    171  C        -21.7180   37.1440   19.6260 C.2   582  ARG582      0.2260
    172  O        -22.6700   37.6190   18.9570 O.2   582  ARG582     -0.2867
    173  CB       -21.5430   34.7720   20.3920 C.3   582  ARG582      0.0307
    174  CG       -23.1010   34.4890   20.4300 C.3   582  ARG582      0.0489
    175  CD       -23.6500   33.5800   21.5760 C.3   582  ARG582      0.2205
    176  NE       -23.1980   32.1490   21.8800 N.pl3 582  ARG582     -0.0865
    177  CZ       -22.3250   31.2970   21.2580 C.cat 582  ARG582      0.5346
    178  NH1      -21.6880   31.6210   20.1820 N.pl3 582  ARG582      0.1354
    179  NH2      -22.0600   30.0820   21.7490 N.pl3 582  ARG582      0.1354
@<TRIPOS>BOND
     1   121   120    2
     2    75    76    2
     3    75    74    1
     4   129   130    1
     5    74    73    1
     6    74    77    1
     7   131   132    2
     8   131   130    1
     9   120   119    1
    10   130   133    1
    11    82    83    1
    12   124   126   ar
    13   124   123   ar
    14   119   122    1
    15   119   118    1
    16   122   123    1
    17   126   128   ar
    18    77    78    1
    19   109   108    2
    20   123   125   ar
    21   117   116    1
    22   142   140   ar
    23   142   141   ar
    24   140   138   ar
    25   141   139   ar
    26   138   136   ar
    27   138   137   ar
    28   139   136   ar
    29    83    84    1
    30    83    86    1
    31   136   134   ar
    32   133   134    1
    33   137   135   ar
    34   134   135   ar
    35    78    79    1
    36    85    84    2
    37   115   116   ar
    38   115   113   ar
    39   118   108   am
    40   143   144    1
    41   146   145    2
    42   116   114   ar
    43   108   107    1
    44   128   127   ar
    45    86    87    1
    46   113   111   ar
    47   125   127   ar
    48   114   112   ar
    49   102   101    2
    50   145   144    1
    51   147   148    1
    52    79    80   ar
    53    79    81   ar
    54   111   112   ar
    55   111   110    1
    56   107   110    1
    57   107   106    1
    58    87    88    2
    59    87    89   am
    60   101   106   am
    61   101   100    1
    62    93    92    2
    63   148   151    1
    64   148   149    1
    65   152   151    1
    66   152   153    1
    67    12    11    2
    68   100    99    1
    69   100   103    1
    70   168   167   ar
    71   168   166   ar
    72   149   150    2
    73    24    23    1
    74    24    25    1
    75   154   153    1
    76    92    99   am
    77    92    91    1
    78    23    22    1
    79    11    10    1
    80    11    17   am
    81   167   165   ar
    82    16    14   ar
    83    99   105    1
    84    13    14    1
    85    13    10    1
    86    18    19    1
    87    18    17    1
    88    18    21    1
    89   103   104    1
    90   166   164   ar
    91    90    91    1
    92    19    20    2
    93    14    15   ar
    94    94    91    1
    95    94    95    1
    96    10     9    1
    97    21    22    1
    98   165   162   ar
    99    53    50    1
   100   104   105    1
   101   164   162   ar
   102   164   163   ar
   103    95    96    1
   104   162   160   ar
   105    50    51    1
   106    50    49    1
   107   163   161   ar
   108    60    59   ar
   109    58    59    1
   110    58    55    1
   111    97    96   ar
   112   172   171    2
   113    96    98   ar
   114    51    52    2
   115    49    37   am
   116    59    61   ar
   117    54    55    1
   118   169   170    1
   119   170   171    1
   120   170   173    1
   121     8     6   am
   122   160   161   ar
   123   160   159    1
   124    38    37    2
   125    55    56    1
   126     4     3    2
   127    37    36    1
   128   178   177    1
   129   173   174    1
   130   174   175    1
   131     5     6    1
   132     5     2    1
   133   156   159    1
   134   156   155    1
   135   156   157    1
   136     3     2    1
   137     6     7    2
   138   158   157    2
   139    36    35    1
   140    36    39    1
   141    43    41   ar
   142    43    44   ar
   143    56    57    2
   144    56    62   am
   145     2     1    1
   146    41    40   ar
   147    46    44   ar
   148    46    48   ar
   149   177   179    1
   150   177   176    2
   151    44    42   ar
   152   175   176    1
   153    48    47   ar
   154    40    42   ar
   155    40    39    1
   156    62    63    1
   157    42    45   ar
   158    47    45   ar
   159    72    70    1
   160    63    66    1
   161    63    64    1
   162    67    66    1
   163    67    68    1
   164    69    70    2
   165    69    68    1
   166    70    71    1
   167    34    32   ar
   168    64    65    2
   169    32    31    1
   170    32    33   ar
   171    31    30    1
   172    30    27    1
   173    27    26    1
   174    27    28    1
   175    28    29    2
