@<TRIPOS>MOLECULE
tmp/3osrA00.pdb
 199 194 0 0 0
SMALL
GASTEIGER

@<TRIPOS>ATOM
      1  N         11.2150   54.5010   34.1370 N.3    16  ASN16      -0.1240
      2  CA         9.9110   54.9650   33.6610 C.3    16  ASN16       0.1653
      3  C          8.7350   54.5000   34.4870 C.2    16  ASN16       0.2266
      4  O          8.6900   53.3600   34.9740 O.2    16  ASN16      -0.2867
      5  CB         9.6800   54.6280   32.1790 C.3    16  ASN16       0.1155
      6  CG         8.7250   55.6360   31.4930 C.2    16  ASN16       0.2627
      7  OD1        8.7860   56.8580   31.7340 O.2    16  ASN16      -0.2716
      8  ND2        7.8870   55.1280   30.6450 N.am   16  ASN16      -0.0877
      9  N          5.8560   53.4660   33.7370 N.3    18  ASP18      -0.1225
     10  CA         5.1410   52.2380   33.3100 C.3    18  ASP18       0.1805
     11  C          5.8460   50.9260   33.6620 C.2    18  ASP18       0.2597
     12  O          5.2540   49.8580   33.4590 O.2    18  ASP18      -0.2718
     13  CB         4.7660   52.2740   31.8150 C.3    18  ASP18       0.1424
     14  CG         5.9780   52.4020   30.8960 C.2    18  ASP18       0.3668
     15  OD1        7.1660   52.3340   31.3390 O.co2  18  ASP18      -0.2456
     16  OD2        5.7240   52.6700   29.7140 O.co2  18  ASP18      -0.2456
     17  N          7.0540   51.0040   34.2480 N.am   19  LYS19      -0.1979
     18  CA         7.8090   49.8240   34.7020 C.3    19  LYS19       0.1596
     19  C          7.6370   49.4870   36.1870 C.2    19  LYS19       0.2287
     20  O          6.9910   50.2360   36.9640 O.2    19  LYS19      -0.2864
     21  CB         9.2730   49.9670   34.3550 C.3    19  LYS19       0.0298
     22  CG         9.5560   50.3960   32.9030 C.3    19  LYS19       0.0038
     23  CD         9.0320   49.3370   31.9230 C.3    19  LYS19       0.0206
     24  CE         9.3090   49.5290   30.4260 C.3    19  LYS19       0.1093
     25  NZ         9.1410   50.8880   29.8990 N.3    19  LYS19      -0.1314
     26  N         13.5400   60.7620   30.0900 N.3    48  GLU48      -0.1245
     27  CA        14.4870   60.5840   29.0150 C.3    48  GLU48       0.1567
     28  C         14.8140   61.9500   28.4520 C.2    48  GLU48       0.2260
     29  O         15.8290   62.1320   27.8440 O.2    48  GLU48      -0.2867
     30  CB        13.9410   59.6540   27.9250 C.3    48  GLU48       0.0388
     31  CG        12.9670   60.2800   26.9280 C.3    48  GLU48       0.1160
     32  CD        11.5590   60.4740   27.4500 C.2    48  GLU48       0.3649
     33  OE1       11.2820   60.5040   28.7080 O.co2  48  GLU48      -0.2457
     34  OE2       10.7240   60.6420   26.5580 O.co2  48  GLU48      -0.2457
     35  N         16.1600   52.9460   30.6970 N.3    66  TRP66      -0.1227
     36  CA        15.3720   53.2550   29.5170 C.3    66  TRP66       0.1737
     37  C         15.6680   52.2020   28.4210 C.2    66  TRP66       0.2595
     38  O         16.6030   51.4210   28.5350 O.2    66  TRP66      -0.2718
     39  CB        15.6980   54.6700   28.9780 C.3    66  TRP66       0.0564
     40  CG        14.6520   55.1970   28.0620 C.ar   66  TRP66       0.0003
     41  CD1       14.6400   55.1550   26.6910 C.ar   66  TRP66       0.0946
     42  CD2       13.4050   55.8230   28.4590 C.ar   66  TRP66       0.0152
     43  NE1       13.4770   55.6930   26.2070 N.ar   66  TRP66      -0.2442
     44  CE2       12.7050   56.1340   27.2680 C.ar   66  TRP66       0.0810
     45  CE3       12.8520   56.1800   29.6880 C.ar   66  TRP66       0.0012
     46  CZ2       11.4630   56.7500   27.2830 C.ar   66  TRP66       0.0191
     47  CZ3       11.6190   56.8190   29.7070 C.ar   66  TRP66       0.0001
     48  CH2       10.9300   57.0850   28.4930 C.ar   66  TRP66       0.0015
     49  N         14.8080   52.1490   27.3970 N.am   67  ALA67      -0.1980
     50  CA        15.1090   51.3400   26.2400 C.3    67  ALA67       0.1597
     51  C         16.4310   51.8620   25.6350 C.2    67  ALA67       0.2287
     52  O         16.7840   53.0380   25.8040 O.2    67  ALA67      -0.2864
     53  CB        13.9790   51.3660   25.2190 C.3    67  ALA67       0.0319
     54  N         17.5370   52.7270   22.8790 N.3    69  ASP69      -0.1225
     55  CA        17.6480   53.6290   21.7410 C.3    69  ASP69       0.1805
     56  C         18.2330   55.0140   22.1250 C.2    69  ASP69       0.2597
     57  O         19.0030   55.5900   21.3470 O.2    69  ASP69      -0.2718
     58  CB        16.3280   53.7450   20.9800 C.3    69  ASP69       0.1424
     59  CG        15.2130   54.3460   21.8100 C.2    69  ASP69       0.3668
     60  OD1       14.9450   53.7510   22.8930 O.co2  69  ASP69      -0.2456
     61  OD2       14.6390   55.4580   21.4260 O.co2  69  ASP69      -0.2456
     62  N         17.8830   55.5180   23.3140 N.am   70  ARG70      -0.1979
     63  CA        18.2690   56.8380   23.7500 C.3    70  ARG70       0.1597
     64  C         19.6870   56.8860   24.2860 C.2    70  ARG70       0.2287
     65  O         20.2180   57.9700   24.4420 O.2    70  ARG70      -0.2864
     66  CB        17.3930   57.3130   24.8920 C.3    70  ARG70       0.0334
     67  CG        15.9200   57.5360   24.5860 C.3    70  ARG70       0.0492
     68  CD        15.5510   58.9550   24.2030 C.3    70  ARG70       0.2205
     69  NE        14.2120   59.0580   23.5700 N.pl3  70  ARG70      -0.0865
     70  CZ        13.8290   60.1120   22.8510 C.cat  70  ARG70       0.5346
     71  NH1       14.6380   61.1570   22.7800 N.pl3  70  ARG70       0.1354
     72  NH2       12.6290   60.1830   22.2800 N.pl3  70  ARG70       0.1354
     73  N         11.8910   43.9730   24.8200 N.3   115  GLU115     -0.1245
     74  CA        10.4750   44.4110   24.7510 C.3   115  GLU115      0.1567
     75  C         10.0250   44.5030   23.2880 C.2   115  GLU115      0.2260
     76  O         10.7440   45.0470   22.4410 O.2   115  GLU115     -0.2867
     77  CB        10.3610   45.8530   25.2790 C.3   115  GLU115      0.0388
     78  CG        10.7410   46.0420   26.7480 C.3   115  GLU115      0.1160
     79  CD        10.7360   47.4610   27.1880 C.2   115  GLU115      0.3649
     80  OE1       10.5740   48.3630   26.3590 O.co2 115  GLU115     -0.2457
     81  OE2       10.8880   47.6760   28.3950 O.co2 115  GLU115     -0.2457
     82  N         -2.6810   53.4950   21.7550 N.3   154  ASN154     -0.1240
     83  CA        -2.0510   54.8070   21.8350 C.3   154  ASN154      0.1653
     84  C         -1.5460   55.3190   20.4720 C.2   154  ASN154      0.2266
     85  O         -0.5280   54.9200   19.9820 O.2   154  ASN154     -0.2867
     86  CB        -0.9300   54.7250   22.8200 C.3   154  ASN154      0.1155
     87  CG        -0.3330   56.0660   23.1410 C.2   154  ASN154      0.2627
     88  OD1       -0.8930   57.0880   22.7710 O.2   154  ASN154     -0.2716
     89  ND2        0.8130   56.0750   23.8720 N.am  154  ASN154     -0.0877
     90  N          1.9210   58.3070   20.7250 N.3   157  GLU157     -0.1231
     91  CA         3.3400   57.9350   20.6170 C.3   157  GLU157      0.1684
     92  C          3.6780   57.0560   19.3600 C.2   157  GLU157      0.2434
     93  O          3.1620   55.9860   19.2330 O.2   157  GLU157     -0.2733
     94  CB         3.7240   57.1850   21.8710 C.3   157  GLU157      0.0402
     95  CG         3.9220   58.0320   23.1450 C.3   157  GLU157      0.1161
     96  CD         5.1410   58.9800   23.0030 C.2   157  GLU157      0.3649
     97  OE1        6.1190   58.7330   22.2150 O.co2 157  GLU157     -0.2457
     98  OE2        5.0740   60.0380   23.6420 O.co2 157  GLU157     -0.2457
     99  N          4.6880   57.4500   18.5440 N.am  158  PRO158     -0.2718
    100  CA         4.9850   56.7180   17.3400 C.3   158  PRO158      0.1535
    101  C          5.4720   55.2860   17.5220 C.2   158  PRO158      0.2599
    102  O          5.4150   54.5000   16.5890 O.2   158  PRO158     -0.2715
    103  CB         6.0530   57.5730   16.6460 C.3   158  PRO158      0.0310
    104  CG         6.6440   58.4000   17.6630 C.3   158  PRO158      0.0237
    105  CD         5.5830   58.6040   18.7200 C.3   158  PRO158      0.0939
    106  N          5.9830   54.9650   18.7000 N.am  159  TYR159     -0.1960
    107  CA         6.3670   53.5770   18.9900 C.3   159  TYR159      0.1771
    108  C          5.2110   52.6010   18.7210 C.2   159  TYR159      0.2619
    109  O          5.4290   51.4720   18.3480 O.2   159  TYR159     -0.2715
    110  CB         6.7440   53.5170   20.4260 C.3   159  TYR159      0.0574
    111  CG         7.1700   52.1700   20.9900 C.ar  159  TYR159     -0.0198
    112  CD1        8.4180   51.6460   20.7540 C.ar  159  TYR159     -0.0009
    113  CD2        6.3400   51.4940   21.8250 C.ar  159  TYR159     -0.0009
    114  CE1        8.7790   50.3760   21.3360 C.ar  159  TYR159      0.0417
    115  CE2        6.6740   50.2430   22.3550 C.ar  159  TYR159      0.0417
    116  CZ         7.8710   49.7300   22.1520 C.ar  159  TYR159      0.1957
    117  OH         8.0990   48.5260   22.7950 O.3   159  TYR159     -0.2866
    118  N          3.9870   53.0420   18.9760 N.am  160  PHE160     -0.1974
    119  CA         2.8290   52.1580   18.8850 C.3   160  PHE160      0.1639
    120  C          2.2450   52.0350   17.4890 C.2   160  PHE160      0.2290
    121  O          1.6150   50.9850   17.1390 O.2   160  PHE160     -0.2864
    122  CB         1.7220   52.6080   19.8740 C.3   160  PHE160      0.0560
    123  CG         2.0780   52.4730   21.2920 C.ar  160  PHE160     -0.0200
    124  CD1        1.6990   51.3420   22.0060 C.ar  160  PHE160     -0.0042
    125  CD2        2.7310   53.4930   21.9680 C.ar  160  PHE160     -0.0042
    126  CE1        1.9860   51.2160   23.3540 C.ar  160  PHE160     -0.0003
    127  CE2        3.0460   53.3980   23.2880 C.ar  160  PHE160     -0.0003
    128  CZ         2.6670   52.2310   24.0210 C.ar  160  PHE160     -0.0000
    129  N         -2.5170   56.5580   25.6430 N.3   214  TYR214     -0.1241
    130  CA        -2.1800   55.3810   26.4180 C.3   214  TYR214      0.1605
    131  C         -3.2300   55.0870   27.4850 C.2   214  TYR214      0.2264
    132  O         -3.7510   53.9760   27.5720 O.2   214  TYR214     -0.2867
    133  CB        -0.8280   55.5530   27.0900 C.3   214  TYR214      0.0534
    134  CG        -0.3890   54.2390   27.7180 C.ar  214  TYR214     -0.0201
    135  CD1       -0.8470   53.8380   29.0070 C.ar  214  TYR214     -0.0009
    136  CD2        0.4610   53.3690   27.0190 C.ar  214  TYR214     -0.0009
    137  CE1       -0.4020   52.6550   29.5560 C.ar  214  TYR214      0.0417
    138  CE2        0.8940   52.1890   27.5700 C.ar  214  TYR214      0.0417
    139  CZ         0.4780   51.8320   28.8220 C.ar  214  TYR214      0.1957
    140  OH         0.9160   50.6320   29.2590 O.3   214  TYR214     -0.2866
    141  N          4.8660   45.2270   30.0450 N.3   234  TRP234     -0.1241
    142  CA         4.6240   46.0180   31.2310 C.3   234  TRP234      0.1605
    143  C          3.1510   46.2050   31.5290 C.2   234  TRP234      0.2264
    144  O          2.8130   46.4590   32.6850 O.2   234  TRP234     -0.2867
    145  CB         5.3180   47.4020   31.1330 C.3   234  TRP234      0.0550
    146  CG         4.9330   48.1140   29.8830 C.ar  234  TRP234      0.0003
    147  CD1        3.8290   48.8760   29.7320 C.ar  234  TRP234      0.0946
    148  CD2        5.5980   48.1170   28.6210 C.ar  234  TRP234      0.0152
    149  NE1        3.7170   49.3230   28.4510 N.ar  234  TRP234     -0.2442
    150  CE2        4.7990   48.8830   27.7380 C.ar  234  TRP234      0.0810
    151  CE3        6.7730   47.5240   28.1140 C.ar  234  TRP234      0.0012
    152  CZ2        5.1530   49.1010   26.4020 C.ar  234  TRP234      0.0191
    153  CZ3        7.1240   47.7690   26.8140 C.ar  234  TRP234      0.0001
    154  CH2        6.2980   48.5270   25.9560 C.ar  234  TRP234      0.0015
    155  N         12.9270   47.0300   21.7250 N.3   264  GLY264     -0.1225
    156  CA        13.6080   47.8310   22.7220 C.3   264  GLY264      0.1811
    157  C         14.2070   46.8380   23.7600 C.2   264  GLY264      0.2280
    158  O         13.6370   45.7700   24.0310 O.2   264  GLY264     -0.2866
    159  N         15.3430   47.1580   27.3770 N.3   266  LEU266     -0.1245
    160  CA        15.3150   48.0070   28.5510 C.3   266  LEU266      0.1561
    161  C         16.6460   47.8260   29.1600 C.2   266  LEU266      0.2260
    162  O         17.0670   46.6830   29.3280 O.2   266  LEU266     -0.2867
    163  CB        14.2760   47.5560   29.5350 C.3   266  LEU266      0.0270
    164  CG        14.2990   48.2530   30.9100 C.3   266  LEU266      0.0019
    165  CD1       13.8530   49.6590   30.8160 C.3   266  LEU266      0.0001
    166  CD2       13.3440   47.4960   31.8200 C.3   266  LEU266      0.0001
    167  N         15.7090   48.7370   17.5120 N.3   563  MET563     -0.1245
    168  CA        15.9470   50.1760   17.4490 C.3   563  MET563      0.1570
    169  C         17.4310   50.4940   17.2560 C.2   563  MET563      0.2261
    170  O         18.3350   49.9220   17.9350 O.2   563  MET563     -0.2867
    171  CB        15.4350   50.8390   18.6870 C.3   563  MET563      0.0387
    172  CG        13.9320   50.7800   18.8040 C.3   563  MET563      0.0595
    173  SD        13.2470   51.7160   20.2220 S.3   563  MET563     -0.1393
    174  CE        14.2130   51.1190   21.4230 C.3   563  MET563      0.0692
    175  N         12.2570   60.2440   16.3340 N.3   573  TRP573     -0.1241
    176  CA        11.0470   60.1170   17.1060 C.3   573  TRP573      0.1605
    177  C         10.1650   61.3390   17.0570 C.2   573  TRP573      0.2264
    178  O          8.9770   61.1900   16.8660 O.2   573  TRP573     -0.2867
    179  CB        11.3420   59.7510   18.5370 C.3   573  TRP573      0.0550
    180  CG        11.7880   58.2830   18.7460 C.ar  573  TRP573      0.0003
    181  CD1       12.9550   57.8850   19.3350 C.ar  573  TRP573      0.0946
    182  CD2       11.1440   57.0820   18.3070 C.ar  573  TRP573      0.0152
    183  NE1       13.0530   56.5210   19.3240 N.ar  573  TRP573     -0.2442
    184  CE2       11.9510   55.9970   18.7290 C.ar  573  TRP573      0.0810
    185  CE3        9.9500   56.7980   17.6410 C.ar  573  TRP573      0.0012
    186  CZ2       11.5990   54.6650   18.4950 C.ar  573  TRP573      0.0191
    187  CZ3        9.6030   55.4960   17.4280 C.ar  573  TRP573      0.0001
    188  CH2       10.4160   54.4420   17.8540 C.ar  573  TRP573      0.0015
    189  N          6.5250   61.2610   15.3900 N.3   577  ARG577     -0.1245
    190  CA         5.3930   61.5800   16.2760 C.3   577  ARG577      0.1563
    191  C          4.5310   62.6710   15.6720 C.2   577  ARG577      0.2260
    192  O          3.3080   62.5720   15.6250 O.2   577  ARG577     -0.2867
    193  CB         5.8780   62.1270   17.6100 C.3   577  ARG577      0.0307
    194  CG         4.7150   62.4390   18.6030 C.3   577  ARG577      0.0489
    195  CD         5.1780   63.0840   19.9360 C.3   577  ARG577      0.2205
    196  NE         6.6380   63.2160   19.9540 N.pl3 577  ARG577     -0.0865
    197  CZ         7.5160   62.3040   20.4220 C.cat 577  ARG577      0.5346
    198  NH1        7.1270   61.1410   20.9800 N.pl3 577  ARG577      0.1354
    199  NH2        8.8310   62.5760   20.3310 N.pl3 577  ARG577      0.1354
@<TRIPOS>BOND
     1   189   190    1
     2   192   191    2
     3   191   190    1
     4   190   193    1
     5   175   176    1
     6   102   101    2
     7   103   100    1
     8   103   104    1
     9   178   177    2
    10   177   176    1
    11   176   179    1
    12   121   120    2
    13   169   168    1
    14   169   170    2
    15   100   101    1
    16   100    99    1
    17   187   185   ar
    18   187   188   ar
    19   168   167    1
    20   168   171    1
    21   120   119    1
    22   101   106   am
    23   193   194    1
    24   185   182   ar
    25   104   105    1
    26   188   186   ar
    27   182   184   ar
    28   182   180   ar
    29   109   108    2
    30   186   184   ar
    31   179   180    1
    32    99   105    1
    33    99    92   am
    34   194   195    1
    35   171   172    1
    36   106   107    1
    37   108   118   am
    38   108   107    1
    39   184   183   ar
    40   180   181   ar
    41   172   173    1
    42   119   118    1
    43   119   122    1
    44   107   110    1
    45    93    92    2
    46   183   181   ar
    47    92    91    1
    48   122   123    1
    49   195   196    1
    50   196   197    2
    51    85    84    2
    52   173   174    1
    53   199   197    1
    54   197   198    1
    55   110   111    1
    56    84    83    1
    57    91    90    1
    58    91    94    1
    59   112   111   ar
    60   112   114   ar
    61    58    55    1
    62    58    59    1
    63   111   113   ar
    64   123   125   ar
    65   123   124   ar
    66   114   116   ar
    67    57    56    2
    68    61    59   ar
    69   155   156    1
    70    55    56    1
    71    55    54    1
    72    82    83    1
    73    59    60   ar
    74   113   115   ar
    75    83    86    1
    76    94    95    1
    77   125   127   ar
    78   124   126   ar
    79    56    62   am
    80   116   115   ar
    81   116   117    1
    82    97    96   ar
    83    72    70    1
    84    76    75    2
    85   156   157    1
    86    88    87    2
    87    71    70    1
    88    86    87    1
    89    70    69    2
    90    96    95    1
    91    96    98   ar
    92    87    89   am
    93    75    74    1
    94   127   128   ar
    95    62    63    1
    96   126   128   ar
    97    69    68    1
    98    63    64    1
    99    63    66    1
   100   157   158    2
   101    68    67    1
   102    64    65    2
   103    67    66    1
   104    74    73    1
   105    74    77    1
   106    53    50    1
   107    77    78    1
   108    51    52    2
   109    51    50    1
   110   129   130    1
   111   154   152   ar
   112   154   153   ar
   113    43    41   ar
   114    43    44   ar
   115    50    49    1
   116    80    79   ar
   117   152   150   ar
   118   130   133    1
   119   130   131    1
   120    34    32   ar
   121    41    40   ar
   122    78    79    1
   123   153   151   ar
   124    31    32    1
   125    31    30    1
   126   136   138   ar
   127   136   134   ar
   128   133   134    1
   129    79    81   ar
   130    44    46   ar
   131    44    42   ar
   132    46    48   ar
   133   159   160    1
   134    49    37   am
   135    32    33   ar
   136   131   132    2
   137   138   139   ar
   138   134   135   ar
   139   150   149   ar
   140   150   148   ar
   141    29    28    2
   142    30    27    1
   143    40    42   ar
   144    40    39    1
   145   151   148   ar
   146    37    38    2
   147    37    36    1
   148   149   147   ar
   149    28    27    1
   150    42    45   ar
   151    48    47   ar
   152   160   161    1
   153   160   163    1
   154   148   146   ar
   155   139   140    1
   156   139   137   ar
   157    39    36    1
   158   135   137   ar
   159    27    26    1
   160   161   162    2
   161    36    35    1
   162   163   164    1
   163    45    47   ar
   164    16    14   ar
   165   147   146   ar
   166   146   145    1
   167    25    24    1
   168   141   142    1
   169    24    23    1
   170     8     6   am
   171   165   164    1
   172    14    15   ar
   173    14    13    1
   174   164   166    1
   175   145   142    1
   176   142   143    1
   177     6     7    2
   178     6     5    1
   179   143   144    2
   180    13    10    1
   181    23    22    1
   182     5     2    1
   183    22    21    1
   184    10    11    1
   185    10     9    1
   186    12    11    2
   187     2     1    1
   188     2     3    1
   189    11    17   am
   190    17    18    1
   191    21    18    1
   192     3     4    2
   193    18    19    1
   194    19    20    2
