@<TRIPOS>MOLECULE
tmp/3osuB03.pdb
 87 78 0 0 0
SMALL
GASTEIGER

@<TRIPOS>ATOM
      1  N         14.0960   -1.6540    4.6820 N.3     7  GLY7       -0.1225
      2  CA        13.3100   -0.4350    4.8100 C.3     7  GLY7        0.1811
      3  C         14.1330    0.7010    5.3950 C.2     7  GLY7        0.2280
      4  O         13.7120    1.3670    6.3430 O.2     7  GLY7       -0.2866
      5  N         14.2580    5.7820    5.0910 N.3    10  ARG10      -0.1245
      6  CA        13.8870    6.8800    5.9770 C.3    10  ARG10       0.1563
      7  C         13.5940    6.4210    7.3970 C.2    10  ARG10       0.2260
      8  O         13.6600    5.2290    7.7060 O.2    10  ARG10      -0.2867
      9  CB        12.6800    7.6380    5.4180 C.3    10  ARG10       0.0307
     10  CG        11.3780    6.8590    5.4780 C.3    10  ARG10       0.0489
     11  CD        10.2040    7.7360    5.0800 C.3    10  ARG10       0.2205
     12  NE        10.4600    8.4380    3.8260 N.pl3  10  ARG10      -0.0865
     13  CZ        10.2430    7.9200    2.6210 C.cat  10  ARG10       0.5346
     14  NH1        9.7640    6.6890    2.5030 N.pl3  10  ARG10       0.1354
     15  NH2       10.5060    8.6320    1.5330 N.pl3  10  ARG10       0.1354
     16  N         13.2720    5.3090   11.1760 N.3    12  ILE12      -0.1231
     17  CA        14.1020    4.4750   12.0440 C.3    12  ILE12       0.1692
     18  C         15.1340    3.6790   11.2380 C.2    12  ILE12       0.2592
     19  O         16.2880    3.5680   11.6420 O.2    12  ILE12      -0.2718
     20  CB        13.2270    3.5480   12.9210 C.3    12  ILE12       0.0266
     21  CG1       12.5310    4.3640   14.0140 C.3    12  ILE12       0.0019
     22  CG2       14.0590    2.4560   13.5770 C.3    12  ILE12       0.0020
     23  CD1       11.4220    3.6020   14.7230 C.3    12  ILE12       0.0001
     24  N         14.7310    3.1490   10.0840 N.am   13  GLY13      -0.1957
     25  CA        15.6490    2.3560    9.2650 C.3    13  GLY13       0.1869
     26  C         16.8930    3.1210    8.8460 C.2    13  GLY13       0.2309
     27  O         18.0210    2.6270    8.9210 O.2    13  GLY13      -0.2863
     28  N         18.3980   -1.4290    1.9750 N.3    30  ASN30      -0.1240
     29  CA        17.2540   -1.9790    1.2590 C.3    30  ASN30       0.1653
     30  C         16.0760   -1.0210    1.2860 C.2    30  ASN30       0.2266
     31  O         15.7980   -0.3860    2.3080 O.2    30  ASN30      -0.2867
     32  CB        16.8220   -3.3250    1.8430 C.3    30  ASN30       0.1155
     33  CG        15.3780   -3.6670    1.5080 C.2    30  ASN30       0.2627
     34  OD1       14.4820   -3.4950    2.3350 O.2    30  ASN30      -0.2716
     35  ND2       15.1460   -4.1430    0.2900 N.am   30  ASN30      -0.0877
     36  N         11.9490   -0.1890   -0.7230 N.3    32  ALA32      -0.1245
     37  CA        10.8570   -0.6670   -1.5590 C.3    32  ALA32       0.1562
     38  C         10.3660    0.4490   -2.4710 C.2    32  ALA32       0.2260
     39  O         10.0070    0.2100   -3.6230 O.2    32  ALA32      -0.2867
     40  CB         9.7130   -1.1850   -0.6960 C.3    32  ALA32       0.0290
     41  N         10.3730   -7.3890    0.7560 N.3    59  VAL59      -0.1245
     42  CA        10.7540   -8.4320    1.7140 C.3    59  VAL59       0.1561
     43  C          9.7250   -9.5590    1.8020 C.2    59  VAL59       0.2260
     44  O         10.0150  -10.6480    2.3050 O.2    59  VAL59      -0.2867
     45  CB        11.0170   -7.8640    3.1350 C.3    59  VAL59       0.0252
     46  CG1       12.2960   -7.0220    3.1430 C.3    59  VAL59       0.0019
     47  CG2        9.7970   -7.0670    3.6700 C.3    59  VAL59       0.0019
     48  N         13.8640   -4.2550    9.6400 N.3    84  ASN84      -0.1225
     49  CA        13.1540   -3.0610   10.0940 C.3    84  ASN84       0.1785
     50  C         11.9330   -2.7470    9.2370 C.2    84  ASN84       0.2597
     51  O         11.0290   -2.0360    9.6820 O.2    84  ASN84      -0.2718
     52  CB        14.1190   -1.8560   10.1210 C.3    84  ASN84       0.1169
     53  CG        13.3970   -0.5140   10.1500 C.2    84  ASN84       0.2627
     54  OD1       13.0150   -0.0310   11.2150 O.2    84  ASN84      -0.2716
     55  ND2       13.2240    0.1000    8.9820 N.am   84  ASN84      -0.0877
     56  N         11.8990   -3.2860    8.0190 N.am   85  ALA85      -0.1966
     57  CA        10.7910   -3.0120    7.1000 C.3    85  ALA85       0.1728
     58  C          9.4600   -3.4420    7.7050 C.2    85  ALA85       0.2617
     59  O          9.3470   -4.5200    8.2740 O.2    85  ALA85      -0.2715
     60  CB        11.0150   -3.7010    5.7440 C.3    85  ALA85       0.0334
     61  N          8.4510   -2.5960    7.5670 N.am   86  GLY86      -0.1940
     62  CA         7.1480   -2.8720    8.1420 C.3    86  GLY86       0.2014
     63  C          6.1500   -1.8210    7.7030 C.2    86  GLY86       0.2638
     64  O          6.5200   -0.6830    7.4100 O.2    86  GLY86      -0.2714
     65  N          4.8820   -2.2080    7.6430 N.am   87  ILE87      -0.1977
     66  CA         3.8170   -1.2870    7.2550 C.3    87  ILE87       0.1596
     67  C          2.6560   -1.4340    8.2170 C.2    87  ILE87       0.2287
     68  O          2.5870   -2.4090    8.9680 O.2    87  ILE87      -0.2864
     69  CB         3.3090   -1.5690    5.8170 C.3    87  ILE87       0.0276
     70  CG1        2.8030   -3.0180    5.7000 C.3    87  ILE87       0.0022
     71  CG2        4.4060   -1.2920    4.8030 C.3    87  ILE87       0.0022
     72  CD1        2.0190   -3.2960    4.4320 C.3    87  ILE87       0.0001
     73  N          4.1950   -8.6030    4.6660 N.3   105  THR105     -0.1218
     74  CA         5.3330   -7.6920    4.7720 C.3   105  THR105      0.1862
     75  C          6.0500   -7.7850    6.1230 C.2   105  THR105      0.2287
     76  O          7.2820   -7.8900    6.1880 O.2   105  THR105     -0.2866
     77  CB         4.9140   -6.2350    4.5290 C.3   105  THR105      0.1770
     78  OG1        4.3820   -6.1100    3.2070 O.3   105  THR105     -0.2211
     79  CG2        6.1090   -5.3040    4.6780 C.3   105  THR105      0.0375
     80  N          8.0550    8.1430   13.5420 N.3   182  ASP182     -0.1239
     81  CA         6.8000    7.4640   13.2220 C.3   182  ASP182      0.1674
     82  C          5.6100    8.4240   13.2020 C.2   182  ASP182      0.2266
     83  O          4.6260    8.1890   12.4970 O.2   182  ASP182     -0.2867
     84  CB         6.5280    6.3200   14.2080 C.3   182  ASP182      0.1410
     85  CG         7.4690    5.1390   14.0180 C.2   182  ASP182      0.3668
     86  OD1        7.9850    4.9620   12.8940 O.co2 182  ASP182     -0.2456
     87  OD2        7.6850    4.3840   14.9920 O.co2 182  ASP182     -0.2456
@<TRIPOS>BOND
     1    39    38    2
     2    38    37    1
     3    37    36    1
     4    37    40    1
     5    35    33   am
     6    41    42    1
     7    29    30    1
     8    29    32    1
     9    29    28    1
    10    30    31    2
    11    33    32    1
    12    33    34    2
    13    15    13    1
    14    42    43    1
    15    42    45    1
    16    43    44    2
    17    14    13    1
    18    13    12    2
    19    45    46    1
    20    45    47    1
    21    78    77    1
    22    12    11    1
    23    72    70    1
    24    77    79    1
    25    77    74    1
    26    73    74    1
    27     1     2    1
    28    74    75    1
    29    71    69    1
    30     2     3    1
    31    11    10    1
    32     5     6    1
    33     3     4    2
    34     9    10    1
    35     9     6    1
    36    70    69    1
    37    60    57    1
    38    69    66    1
    39     6     7    1
    40    75    76    2
    41    57    58    1
    42    57    56    1
    43    66    65    1
    44    66    67    1
    45     7     8    2
    46    64    63    2
    47    61    58   am
    48    61    62    1
    49    65    63   am
    50    63    62    1
    51    58    59    2
    52    56    50   am
    53    67    68    2
    54    26    27    2
    55    26    25    1
    56    55    53   am
    57    50    51    2
    58    50    49    1
    59    25    24    1
    60    48    49    1
    61    24    18   am
    62    49    52    1
    63    52    53    1
    64    53    54    2
    65    16    17    1
    66    18    19    2
    67    18    17    1
    68    17    20    1
    69    83    82    2
    70    86    85   ar
    71    20    22    1
    72    20    21    1
    73    82    81    1
    74    81    80    1
    75    81    84    1
    76    21    23    1
    77    85    84    1
    78    85    87   ar
