@<TRIPOS>MOLECULE
tmp/3oswA00.pdb
 173 166 0 0 0
SMALL
GASTEIGER

@<TRIPOS>ATOM
      1  N          4.3270   15.0620   10.3210 N.3    24  LEU24      -0.1245
      2  CA         5.0720   14.3460    9.2740 C.3    24  LEU24       0.1561
      3  C          5.3070   12.8750    9.6390 C.2    24  LEU24       0.2260
      4  O          6.3630   12.5050   10.1660 O.2    24  LEU24      -0.2867
      5  CB         6.3810   15.0730    8.9200 C.3    24  LEU24       0.0270
      6  CG         7.1830   14.7220    7.6460 C.3    24  LEU24       0.0019
      7  CD1        6.3240   14.2020    6.4850 C.3    24  LEU24       0.0001
      8  CD2        8.0570   15.8980    7.1710 C.3    24  LEU24       0.0001
      9  N         18.8180   25.7430   12.7500 N.3    69  GLY69      -0.1210
     10  CA        17.5850   25.2360   12.1890 C.3    69  GLY69       0.1956
     11  C         17.2030   23.9220   12.8250 C.2    69  GLY69       0.2612
     12  O         16.0990   23.7920   13.3380 O.2    69  GLY69      -0.2717
     13  N         18.1180   22.9550   12.8050 N.am   70  CYS70      -0.1956
     14  CA        17.8720   21.6440   13.4000 C.3    70  CYS70       0.1843
     15  C         17.4310   21.7350   14.8660 C.2    70  CYS70       0.2625
     16  O         16.6150   20.9390   15.3350 O.2    70  CYS70      -0.2714
     17  CB        19.1040   20.7490   13.2570 C.3    70  CYS70       0.0997
     18  SG        19.5940   20.4640   11.5140 S.3    70  CYS70      -0.0797
     19  N         17.9600   22.7270   15.5750 N.am   71  GLN71      -0.1963
     20  CA        17.6530   22.9370   16.9920 C.3    71  GLN71       0.1733
     21  C         16.2350   23.4610   17.2130 C.2    71  GLN71       0.2616
     22  O         15.5000   22.9380   18.0610 O.2    71  GLN71      -0.2715
     23  CB        18.6790   23.8850   17.6200 C.3    71  GLN71       0.0408
     24  CG        20.1210   23.3350   17.5790 C.3    71  GLN71       0.0908
     25  CD        20.3030   22.0720   18.4230 C.2    71  GLN71       0.2608
     26  OE1       20.0680   20.9510   17.9560 O.2    71  GLN71      -0.2717
     27  NE2       20.7200   22.2540   19.6760 N.am   71  GLN71      -0.0878
     28  N         15.8470   24.4780   16.4430 N.am   72  PHE72      -0.1960
     29  CA        14.4970   25.0420   16.5350 C.3    72  PHE72       0.1771
     30  C         13.4570   23.9790   16.1950 C.2    72  PHE72       0.2619
     31  O         12.3950   23.9050   16.8190 O.2    72  PHE72      -0.2715
     32  CB        14.3290   26.2660   15.6150 C.3    72  PHE72       0.0574
     33  CG        13.0330   26.2650   14.8290 C.ar   72  PHE72      -0.0200
     34  CD1       11.8450   26.7160   15.4010 C.ar   72  PHE72      -0.0042
     35  CD2       13.0030   25.7910   13.5200 C.ar   72  PHE72      -0.0042
     36  CE1       10.6500   26.6940   14.6760 C.ar   72  PHE72      -0.0003
     37  CE2       11.8170   25.7690   12.7870 C.ar   72  PHE72      -0.0003
     38  CZ        10.6400   26.2240   13.3620 C.ar   72  PHE72      -0.0000
     39  N         13.7650   23.1670   15.1920 N.am   73  ARG73      -0.1963
     40  CA        12.9140   22.0420   14.8420 C.3    73  ARG73       0.1729
     41  C         12.8490   21.0460   16.0110 C.2    73  ARG73       0.2616
     42  O         11.7980   20.4580   16.2760 O.2    73  ARG73      -0.2715
     43  CB        13.4110   21.3770   13.5510 C.3    73  ARG73       0.0348
     44  CG        12.7740   20.0350   13.2390 C.3    73  ARG73       0.0492
     45  CD        11.2550   20.1340   13.0860 C.3    73  ARG73       0.2205
     46  NE        10.6260   18.8150   13.1330 N.pl3  73  ARG73      -0.0865
     47  CZ         9.3580   18.6030   13.4710 C.cat  73  ARG73       0.5346
     48  NH1        8.5780   19.6310   13.7910 N.pl3  73  ARG73       0.1354
     49  NH2        8.8710   17.3620   13.4920 N.pl3  73  ARG73       0.1354
     50  N         13.9660   20.8830   16.7240 N.am   74  SER74      -0.1950
     51  CA        14.0010   20.0550   17.9350 C.3    74  SER74       0.1924
     52  C         12.9680   20.4970   18.9740 C.2    74  SER74       0.2314
     53  O         12.2020   19.6880   19.4880 O.2    74  SER74      -0.2863
     54  CB        15.3860   20.0880   18.5770 C.3    74  SER74       0.2116
     55  OG        16.3060   19.2650   17.8920 O.3    74  SER74      -0.2180
     56  N         13.1790   11.6600   19.2630 N.3   111  ILE111     -0.1231
     57  CA        13.4500   12.5490   18.1560 C.3   111  ILE111      0.1692
     58  C         14.2410   11.8150   17.0860 C.2   111  ILE111      0.2592
     59  O         13.9180   11.8900   15.9030 O.2   111  ILE111     -0.2718
     60  CB        14.2250   13.8030   18.6280 C.3   111  ILE111      0.0266
     61  CG1       13.2600   14.8110   19.2660 C.3   111  ILE111      0.0019
     62  CG2       15.0060   14.4400   17.4780 C.3   111  ILE111      0.0020
     63  CD1       13.9290   16.0650   19.8320 C.3   111  ILE111      0.0001
     64  N         15.2620   11.0810   17.5120 N.am  112  TYR112     -0.1976
     65  CA        16.1220   10.3530   16.5840 C.3   112  TYR112      0.1639
     66  C         15.4660    9.0880   16.0000 C.2   112  TYR112      0.2290
     67  O         15.7600    8.7060   14.8700 O.2   112  TYR112     -0.2864
     68  CB        17.4640   10.0390   17.2570 C.3   112  TYR112      0.0560
     69  CG        18.1450   11.2810   17.7710 C.ar  112  TYR112     -0.0198
     70  CD1       18.7490   11.3080   19.0310 C.ar  112  TYR112     -0.0009
     71  CD2       18.1530   12.4480   17.0090 C.ar  112  TYR112     -0.0009
     72  CE1       19.3590   12.4700   19.5080 C.ar  112  TYR112      0.0417
     73  CE2       18.7570   13.6080   17.4700 C.ar  112  TYR112      0.0417
     74  CZ        19.3610   13.6160   18.7120 C.ar  112  TYR112      0.1957
     75  OH        19.9610   14.7810   19.1390 O.3   112  TYR112     -0.2866
     76  N         13.1770   10.8320   13.4740 N.3   115  LEU115     -0.1245
     77  CA        14.0340   11.3810   12.4310 C.3   115  LEU115      0.1561
     78  C         14.4090   10.3130   11.4030 C.2   115  LEU115      0.2260
     79  O         14.5160   10.6090   10.2080 O.2   115  LEU115     -0.2867
     80  CB        15.3000   11.9940   13.0160 C.3   115  LEU115      0.0270
     81  CG        16.2140   12.6350   11.9780 C.3   115  LEU115      0.0019
     82  CD1       15.4590   13.7650   11.3080 C.3   115  LEU115      0.0001
     83  CD2       17.5280   13.1280   12.5730 C.3   115  LEU115      0.0001
     84  N         12.4170   10.2100    8.4040 N.3   118  LEU118     -0.1245
     85  CA        12.6520   11.2390    7.4010 C.3   118  LEU118      0.1561
     86  C         13.9710   11.0130    6.6340 C.2   118  LEU118      0.2260
     87  O         14.4100   11.8770    5.8580 O.2   118  LEU118     -0.2867
     88  CB        12.6790   12.6220    8.0680 C.3   118  LEU118      0.0270
     89  CG        11.4040   13.3350    8.5270 C.3   118  LEU118      0.0019
     90  CD1       10.4400   12.3890    9.2100 C.3   118  LEU118      0.0001
     91  CD2       11.7470   14.5090    9.4470 C.3   118  LEU118      0.0001
     92  N         18.0850   13.6130    4.1040 N.3   124  VAL124     -0.1231
     93  CA        17.0180   13.7800    5.0770 C.3   124  VAL124      0.1692
     94  C         16.0230   14.8640    4.7150 C.2   124  VAL124      0.2592
     95  O         16.4110   15.9810    4.3750 O.2   124  VAL124     -0.2718
     96  CB        17.5700   14.0570    6.5140 C.3   124  VAL124      0.0266
     97  CG1       18.4120   15.3320    6.5570 C.3   124  VAL124      0.0020
     98  CG2       16.4320   14.1400    7.5190 C.3   124  VAL124      0.0020
     99  N         14.7360   14.5380    4.8320 N.am  125  LEU125     -0.1966
    100  CA        13.6740   15.5050    4.5860 C.3   125  LEU125      0.1728
    101  C         13.7550   16.6550    5.5810 C.2   125  LEU125      0.2616
    102  O         13.9590   16.4290    6.7720 O.2   125  LEU125     -0.2715
    103  CB        12.3070   14.8250    4.7020 C.3   125  LEU125      0.0311
    104  CG        11.9760   13.7800    3.6310 C.3   125  LEU125      0.0022
    105  CD1       10.6710   13.0620    3.9560 C.3   125  LEU125      0.0001
    106  CD2       11.9230   14.4450    2.2500 C.3   125  LEU125      0.0001
    107  N         13.6090   17.8850    5.0970 N.am  126  ILE126     -0.1963
    108  CA        13.5140   19.0420    5.9820 C.3   126  ILE126      0.1727
    109  C         12.3040   19.8960    5.6500 C.2   126  ILE126      0.2617
    110  O         11.5450   19.5860    4.7380 O.2   126  ILE126     -0.2715
    111  CB        14.7430   19.9520    5.8930 C.3   126  ILE126      0.0290
    112  CG1       14.9160   20.4620    4.4650 C.3   126  ILE126      0.0022
    113  CG2       15.9940   19.2340    6.3960 C.3   126  ILE126      0.0023
    114  CD1       15.5450   21.8270    4.3980 C.3   126  ILE126      0.0001
    115  N         12.1430   20.9830    6.4010 N.am  127  SER127     -0.1936
    116  CA        11.0430   21.9190    6.2030 C.3   127  SER127      0.2055
    117  C          9.7280   21.2010    5.9340 C.2   127  SER127      0.2642
    118  O          9.0310   21.4990    4.9620 O.2   127  SER127     -0.2714
    119  CB        11.3620   22.8680    5.0520 C.3   127  SER127      0.2130
    120  OG        10.2600   23.7090    4.7860 O.3   127  SER127     -0.2179
    121  N          9.4040   20.2430    6.7930 N.am  128  GLU128     -0.1976
    122  CA         8.1700   19.4790    6.6620 C.3   128  GLU128      0.1602
    123  C          8.0980   18.6580    5.3740 C.2   128  GLU128      0.2287
    124  O          7.0200   18.4490    4.8320 O.2   128  GLU128     -0.2864
    125  CB         6.9640   20.4100    6.7520 C.3   128  GLU128      0.0415
    126  CG         6.6480   20.8920    8.1520 C.3   128  GLU128      0.1163
    127  CD         6.2590   19.8320    9.1420 C.2   128  GLU128      0.3649
    128  OE1        5.9930   18.6890    8.6410 O.co2 128  GLU128     -0.2457
    129  OE2        6.1780   20.1070   10.3410 O.co2 128  GLU128     -0.2457
    130  N         17.8410   17.4600    2.2360 N.3   133  MET133     -0.1245
    131  CA        19.2160   17.8900    2.3780 C.3   133  MET133      0.1570
    132  C         20.0460   16.6340    2.4520 C.2   133  MET133      0.2261
    133  O         19.7980   15.7550    3.2900 O.2   133  MET133     -0.2867
    134  CB        19.3890   18.7210    3.6350 C.3   133  MET133      0.0387
    135  CG        20.7740   19.2800    3.8020 C.3   133  MET133      0.0595
    136  SD        20.8760   20.3660    5.2340 S.3   133  MET133     -0.1393
    137  CE        19.6080   21.5750    4.8620 C.3   133  MET133      0.0692
    138  N         25.7360   17.9370    4.3100 N.3   138  LEU138     -0.1245
    139  CA        25.8970   17.9840    5.7650 C.3   138  LEU138      0.1561
    140  C         27.3070   17.5780    6.2140 C.2   138  LEU138      0.2260
    141  O         28.0140   18.3480    6.8670 O.2   138  LEU138     -0.2867
    142  CB        24.8590   17.0820    6.4380 C.3   138  LEU138      0.0270
    143  CG        23.4310   17.5810    6.3010 C.3   138  LEU138      0.0019
    144  CD1       22.4710   16.4920    6.7070 C.3   138  LEU138      0.0001
    145  CD2       23.2370   18.8270    7.1570 C.3   138  LEU138      0.0001
    146  N         27.4570   16.4850   13.1760 N.3   148  PHE148     -0.1227
    147  CA        26.2690   16.2880   13.9980 C.3   148  PHE148      0.1736
    148  C         25.2420   15.3110   13.4090 C.2   148  PHE148      0.2595
    149  O         24.5140   14.6620   14.1650 O.2   148  PHE148     -0.2718
    150  CB        25.6350   17.6140   14.4530 C.3   148  PHE148      0.0547
    151  CG        24.9120   18.3580   13.3700 C.ar  148  PHE148     -0.0202
    152  CD1       23.5200   18.3560   13.3090 C.ar  148  PHE148     -0.0042
    153  CD2       25.6170   19.0870   12.4300 C.ar  148  PHE148     -0.0042
    154  CE1       22.8490   19.0590   12.3180 C.ar  148  PHE148     -0.0003
    155  CE2       24.9540   19.7930   11.4350 C.ar  148  PHE148     -0.0003
    156  CZ        23.5660   19.7790   11.3790 C.ar  148  PHE148     -0.0000
    157  N         25.1990   15.1690   12.0840 N.am  149  MET149     -0.1979
    158  CA        24.1930   14.2860   11.4850 C.3   149  MET149      0.1605
    159  C         24.6490   12.8510   11.1810 C.2   149  MET149      0.2287
    160  O         23.8280   11.9380   11.1830 O.2   149  MET149     -0.2864
    161  CB        23.5140   14.9380   10.2790 C.3   149  MET149      0.0413
    162  CG        22.7030   16.1730   10.6580 C.3   149  MET149      0.0598
    163  SD        21.4230   15.8750   11.9090 S.3   149  MET149     -0.1393
    164  CE        20.4260   14.6600   11.0580 C.3   149  MET149      0.0692
    165  N         23.3250    9.9550   13.3320 N.3   152  LYS152     -0.1245
    166  CA        21.9000    9.8160   13.0560 C.3   152  LYS152      0.1561
    167  C         21.6920    8.9340   11.8280 C.2   152  LYS152      0.2260
    168  O         21.0110    7.9000   11.8970 O.2   152  LYS152     -0.2867
    169  CB        21.2590   11.1830   12.8350 C.3   152  LYS152      0.0271
    170  CG        20.8420   11.8870   14.1040 C.3   152  LYS152      0.0035
    171  CD        22.0280   12.2570   14.9400 C.3   152  LYS152      0.0206
    172  CE        22.0280   13.7310   15.2600 C.3   152  LYS152      0.1093
    173  NZ        22.8850   14.0090   16.4500 N.3   152  LYS152     -0.1314
@<TRIPOS>BOND
     1   130   131    1
     2   106   104    1
     3   131   132    1
     4   131   134    1
     5   132   133    2
     6   104   105    1
     7   104   103    1
     8   134   135    1
     9   135   136    1
    10    92    93    1
    11   138   139    1
    12    95    94    2
    13   114   112    1
    14   112   111    1
    15   100   103    1
    16   100    99    1
    17   100   101    1
    18    94    99   am
    19    94    93    1
    20   110   109    2
    21   120   119    1
    22   124   123    2
    23   137   136    1
    24   118   117    2
    25   119   116    1
    26    93    96    1
    27   107   101   am
    28   107   108    1
    29   123   122    1
    30   101   102    2
    31   109   108    1
    32   109   115   am
    33   139   140    1
    34   139   142    1
    35    87    86    2
    36   111   108    1
    37   111   113    1
    38   117   116    1
    39   117   121   am
    40   116   115    1
    41   140   141    2
    42   143   142    1
    43   143   144    1
    44   143   145    1
    45     7     6    1
    46    96    97    1
    47    96    98    1
    48    86    85    1
    49   122   125    1
    50   122   121    1
    51   125   126    1
    52     8     6    1
    53    85    88    1
    54    85    84    1
    55     6     5    1
    56    88    89    1
    57   126   127    1
    58    89    90    1
    59    89    91    1
    60   128   127   ar
    61     5     2    1
    62   127   129   ar
    63     2     3    1
    64     2     1    1
    65     3     4    2
    66    79    78    2
    67   161   162    1
    68   161   158    1
    69   162   163    1
    70   164   163    1
    71   159   160    2
    72   159   158    1
    73    82    81    1
    74   156   155   ar
    75   156   154   ar
    76    78    77    1
    77   155   153   ar
    78   158   157    1
    79    18    17    1
    80   167   168    2
    81   167   166    1
    82    81    83    1
    83    81    80    1
    84   157   148   am
    85    10     9    1
    86    10    11    1
    87   154   152   ar
    88   153   151   ar
    89    77    80    1
    90    77    76    1
    91    37    38   ar
    92    37    35   ar
    93    13    11   am
    94    13    14    1
    95    11    12    2
    96   169   166    1
    97   169   170    1
    98   166   165    1
    99    45    46    1
   100    45    44    1
   101    46    47    2
   102   146   147    1
   103    44    43    1
   104    17    14    1
   105   152   151   ar
   106    38    36   ar
   107   151   150    1
   108    14    15    1
   109   148   147    1
   110   148   149    2
   111    47    49    1
   112    47    48    1
   113    35    33   ar
   114    43    40    1
   115   147   150    1
   116   170   171    1
   117    36    34   ar
   118    33    34   ar
   119    33    32    1
   120    40    39    1
   121    40    41    1
   122    15    16    2
   123    15    19   am
   124    67    66    2
   125   171   172    1
   126    39    30   am
   127   172   173    1
   128    19    20    1
   129    32    29    1
   130    59    58    2
   131    66    65    1
   132    41    42    2
   133    41    50   am
   134    30    29    1
   135    30    31    2
   136    28    29    1
   137    28    21   am
   138    65    68    1
   139    65    64    1
   140    50    51    1
   141    20    21    1
   142    20    23    1
   143    71    73   ar
   144    71    69   ar
   145    58    64   am
   146    58    57    1
   147    21    22    2
   148    68    69    1
   149    73    74   ar
   150    62    60    1
   151    24    23    1
   152    24    25    1
   153    69    70   ar
   154    55    54    1
   155    51    54    1
   156    51    52    1
   157    26    25    2
   158    57    60    1
   159    57    56    1
   160    25    27   am
   161    60    61    1
   162    74    75    1
   163    74    72   ar
   164    52    53    2
   165    70    72   ar
   166    61    63    1
