@<TRIPOS>MOLECULE
tmp/3oszA00.pdb
 212 203 0 0 0
SMALL
GASTEIGER

@<TRIPOS>ATOM
      1  N         15.8650   -7.6860    8.7080 N.3    40  THR40      -0.1218
      2  CA        16.6990   -6.7990    9.5320 C.3    40  THR40       0.1862
      3  C         17.5370   -5.8300    8.7040 C.2    40  THR40       0.2287
      4  O         18.3510   -5.0840    9.2540 O.2    40  THR40      -0.2866
      5  CB        17.6680   -7.5940   10.4300 C.3    40  THR40       0.1770
      6  OG1       18.5570   -8.3530    9.6000 O.3    40  THR40      -0.2211
      7  CG2       16.9120   -8.5230   11.3660 C.3    40  THR40       0.0375
      8  N         22.3130   -7.1760   12.5010 N.3    67  ASN67      -0.1240
      9  CA        22.0260   -8.5260   12.9560 C.3    67  ASN67       0.1653
     10  C         22.6560   -9.6030   12.0760 C.2    67  ASN67       0.2266
     11  O         23.3770  -10.4770   12.5670 O.2    67  ASN67      -0.2867
     12  CB        20.5160   -8.7340   13.0350 C.3    67  ASN67       0.1155
     13  CG        20.1540  -10.0990   13.5530 C.2    67  ASN67       0.2627
     14  OD1       20.1920  -11.0860   12.8260 O.2    67  ASN67      -0.2716
     15  ND2       19.8150  -10.1690   14.8360 N.am   67  ASN67      -0.0877
     16  N         20.7530  -11.5620    9.8940 N.3    69  HIS69      -0.1241
     17  CA        19.6560  -12.3850    9.3840 C.3    69  HIS69       0.1621
     18  C         19.1890  -11.9190    7.9930 C.2    69  HIS69       0.2264
     19  O         19.1050  -12.7160    7.0560 O.2    69  HIS69      -0.2867
     20  CB        18.4940  -12.3500   10.3880 C.3    69  HIS69       0.0745
     21  CG        17.3560  -13.2710   10.0550 C.ar   69  HIS69       0.0817
     22  ND1       16.2160  -12.8370    9.4240 N.ar   69  HIS69      -0.2268
     23  CD2       17.1770  -14.5950   10.2960 C.ar   69  HIS69       0.1154
     24  CE1       15.3750  -13.8520    9.2910 C.ar   69  HIS69       0.1986
     25  NE2       15.9380  -14.9270    9.8120 N.ar   69  HIS69      -0.2212
     26  N         12.7170   -5.2250   11.1520 N.3    96  LEU96      -0.1245
     27  CA        13.1570   -5.8920   12.3800 C.3    96  LEU96       0.1561
     28  C         14.3750   -5.1630   12.9310 C.2    96  LEU96       0.2260
     29  O         15.2170   -4.6990   12.1600 O.2    96  LEU96      -0.2867
     30  CB        13.5380   -7.3520   12.0960 C.3    96  LEU96       0.0270
     31  CG        12.4490   -8.2860   11.5590 C.3    96  LEU96       0.0019
     32  CD1       13.0220   -9.6800   11.3540 C.3    96  LEU96       0.0001
     33  CD2       11.2790   -8.3330   12.5340 C.3    96  LEU96       0.0001
     34  N         18.0770   -7.1130   16.8690 N.3    99  ASN99      -0.1225
     35  CA        17.9670   -8.2930   17.7200 C.3    99  ASN99       0.1785
     36  C         17.0670   -9.3020   17.0150 C.2    99  ASN99       0.2598
     37  O         16.8420  -10.4060   17.5160 O.2    99  ASN99      -0.2718
     38  CB        17.3790   -7.9500   19.0970 C.3    99  ASN99       0.1169
     39  CG        18.3470   -7.1740   19.9690 C.2    99  ASN99       0.2627
     40  OD1       19.5460   -7.4480   19.9760 O.2    99  ASN99      -0.2716
     41  ND2       17.8270   -6.2100   20.7210 N.am   99  ASN99      -0.0877
     42  N         16.5760   -8.9180   15.8400 N.am  100  GLY100     -0.1942
     43  CA        15.7140   -9.7980   15.0710 C.3   100  GLY100      0.2014
     44  C         14.2660   -9.6590   15.4790 C.2   100  GLY100      0.2640
     45  O         13.4390  -10.4970   15.1220 O.2   100  GLY100     -0.2714
     46  N         13.9690   -8.5900   16.2160 N.am  101  SER101     -0.1935
     47  CA        12.6280   -8.3160   16.7300 C.3   101  SER101      0.2055
     48  C         11.9140   -7.1990   15.9850 C.2   101  SER101      0.2643
     49  O         12.5420   -6.3200   15.4000 O.2   101  SER101     -0.2714
     50  CB        12.6930   -7.9250   18.2120 C.3   101  SER101      0.2130
     51  OG        12.6140   -9.0500   19.0550 O.3   101  SER101     -0.2179
     52  N         10.5880   -7.2360   16.0310 N.am  102  GLY102     -0.1954
     53  CA         9.7790   -6.2250   15.3820 C.3   102  GLY102      0.1869
     54  C          8.3420   -6.3150   15.8530 C.2   102  GLY102      0.2309
     55  O          7.8400   -7.4040   16.1330 O.2   102  GLY102     -0.2863
     56  N          4.2450   -5.9870   15.3480 N.3   104  TYR104     -0.1241
     57  CA         3.3270   -6.2590   14.2580 C.3   104  TYR104      0.1605
     58  C          2.9430   -5.0320   13.4400 C.2   104  TYR104      0.2264
     59  O          2.8200   -5.1190   12.2240 O.2   104  TYR104     -0.2867
     60  CB         2.0850   -6.9740   14.7860 C.3   104  TYR104      0.0534
     61  CG         2.2720   -8.4790   14.8580 C.ar  104  TYR104     -0.0201
     62  CD1        3.3980   -9.0870   14.2900 C.ar  104  TYR104     -0.0009
     63  CD2        1.2940   -9.3040   15.4110 C.ar  104  TYR104     -0.0009
     64  CE1        3.5410  -10.4720   14.2610 C.ar  104  TYR104      0.0417
     65  CE2        1.4300  -10.6960   15.3910 C.ar  104  TYR104      0.0417
     66  CZ         2.5540  -11.2720   14.8090 C.ar  104  TYR104      0.1957
     67  OH         2.6800  -12.6400   14.7370 O.3   104  TYR104     -0.2866
     68  N          5.7820   -4.2890   10.9910 N.3   107  ILE107     -0.1245
     69  CA         5.8250   -5.2890    9.9370 C.3   107  ILE107      0.1561
     70  C          4.7290   -5.0230    8.9010 C.2   107  ILE107      0.2260
     71  O          4.9530   -5.1530    7.6960 O.2   107  ILE107     -0.2867
     72  CB         5.6490   -6.6960   10.5500 C.3   107  ILE107      0.0252
     73  CG1        6.8860   -7.0300   11.3810 C.3   107  ILE107      0.0019
     74  CG2        5.4220   -7.7310    9.4640 C.3   107  ILE107      0.0019
     75  CD1        6.7030   -8.2060   12.3050 C.3   107  ILE107      0.0001
     76  N         10.8890  -13.7260    5.7980 N.3   132  SER132     -0.1202
     77  CA        11.4720  -14.6850    6.6750 C.3   132  SER132      0.2020
     78  C         11.2610  -14.2250    8.1100 C.2   132  SER132      0.2619
     79  O         12.2190  -13.9330    8.8300 O.2   132  SER132     -0.2717
     80  CB        12.9650  -14.9030    6.4260 C.3   132  SER132      0.2103
     81  OG        13.1950  -15.3930    5.1210 O.3   132  SER132     -0.2182
     82  N          9.9980  -14.1620    8.5160 N.am  133  LEU133     -0.1965
     83  CA         9.6410  -13.7190    9.8560 C.3   133  LEU133      0.1728
     84  C          8.2150  -14.1560   10.1600 C.2   133  LEU133      0.2617
     85  O          7.5160  -14.6740    9.2850 O.2   133  LEU133     -0.2715
     86  CB         9.7580  -12.1930    9.9450 C.3   133  LEU133      0.0311
     87  CG         9.0100  -11.4130    8.8480 C.3   133  LEU133      0.0022
     88  CD1        7.5200  -11.3930    9.1450 C.3   133  LEU133      0.0001
     89  CD2        9.5310   -9.9880    8.7730 C.3   133  LEU133      0.0001
     90  N          7.7880  -13.9450   11.3980 N.am  134  GLY134     -0.1940
     91  CA         6.4430  -14.3230   11.7830 C.3   134  GLY134      0.2014
     92  C          6.2930  -14.4520   13.2790 C.2   134  GLY134      0.2639
     93  O          7.2760  -14.4020   14.0120 O.2   134  GLY134     -0.2714
     94  N          5.0580  -14.6170   13.7320 N.am  135  GLY135     -0.1939
     95  CA         4.7920  -14.7620   15.1500 C.3   135  GLY135      0.2014
     96  C          3.4390  -15.4160   15.3080 C.2   135  GLY135      0.2639
     97  O          2.9770  -16.0860   14.3910 O.2   135  GLY135     -0.2714
     98  N          2.8100  -15.2330   16.4650 N.am  136  GLY136     -0.1954
     99  CA         1.5080  -15.8350   16.6990 C.3   136  GLY136      0.1869
    100  C          0.4660  -15.2900   15.7390 C.2   136  GLY136      0.2309
    101  O          0.6200  -14.1860   15.2080 O.2   136  GLY136     -0.2863
    102  N          7.8320  -17.5120    5.5550 N.3   158  ALA158     -0.1231
    103  CA         8.3210  -18.6870    6.2750 C.3   158  ALA158      0.1694
    104  C          7.1840  -19.3500    7.0410 C.2   158  ALA158      0.2592
    105  O          6.3100  -18.6710    7.5870 O.2   158  ALA158     -0.2718
    106  CB         9.4360  -18.2800    7.2420 C.3   158  ALA158      0.0304
    107  N          7.1840  -20.6770    7.0730 N.am  159  ALA159     -0.1966
    108  CA         6.1500  -21.4120    7.7930 C.3   159  ALA159      0.1728
    109  C          6.3230  -21.2740    9.3020 C.2   159  ALA159      0.2617
    110  O          5.3450  -21.3100   10.0420 O.2   159  ALA159     -0.2715
    111  CB         6.1850  -22.8920    7.4000 C.3   159  ALA159      0.0334
    112  N          7.5680  -21.1110    9.7500 N.am  160  GLY160     -0.1940
    113  CA         7.8450  -20.9940   11.1760 C.3   160  GLY160      0.2014
    114  C          8.6520  -22.1770   11.6850 C.2   160  GLY160      0.2639
    115  O          8.5990  -23.2620   11.1030 O.2   160  GLY160     -0.2714
    116  N          9.3980  -21.9770   12.7670 N.am  161  ASN161     -0.1958
    117  CA        10.2550  -23.0200   13.3030 C.3   161  ASN161      0.1819
    118  C          9.7860  -23.6130   14.6310 C.2   161  ASN161      0.2621
    119  O         10.6000  -23.8290   15.5360 O.2   161  ASN161     -0.2715
    120  CB        11.6660  -22.4570   13.4940 C.3   161  ASN161      0.1195
    121  CG        12.1750  -21.7090   12.2700 C.2   161  ASN161      0.2630
    122  OD1       12.1410  -22.2280   11.1510 O.2   161  ASN161     -0.2716
    123  ND2       12.6480  -20.4810   12.4750 N.am  161  ASN161     -0.0877
    124  N          8.4970  -23.9100   14.7500 N.am  162  ASN162     -0.1972
    125  CA         7.9690  -24.4520   15.9980 C.3   162  ASN162      0.1688
    126  C          7.6020  -25.9400   15.9280 C.2   162  ASN162      0.2292
    127  O          7.0760  -26.4930   16.8990 O.2   162  ASN162     -0.2864
    128  CB         6.7310  -23.6570   16.3970 C.3   162  ASN162      0.1181
    129  CG         6.9090  -22.1590   16.2070 C.2   162  ASN162      0.2629
    130  OD1        7.5030  -21.4810   17.0430 O.2   162  ASN162     -0.2716
    131  ND2        6.3980  -21.6390   15.0980 N.am  162  ASN162     -0.0877
    132  N          0.1240  -19.3600   13.1210 N.3   169  TYR169     -0.1241
    133  CA         1.1610  -18.3560   12.9110 C.3   169  TYR169      0.1605
    134  C          0.8810  -17.4490   11.7160 C.2   169  TYR169      0.2264
    135  O          0.2500  -17.8580   10.7420 O.2   169  TYR169     -0.2867
    136  CB         2.5270  -19.0280   12.7450 C.3   169  TYR169      0.0534
    137  CG         2.9380  -19.8780   13.9230 C.ar  169  TYR169     -0.0201
    138  CD1        3.6550  -19.3340   14.9790 C.ar  169  TYR169     -0.0009
    139  CD2        2.6080  -21.2260   13.9810 C.ar  169  TYR169     -0.0009
    140  CE1        4.0330  -20.1070   16.0610 C.ar  169  TYR169      0.0417
    141  CE2        2.9820  -22.0070   15.0580 C.ar  169  TYR169      0.0417
    142  CZ         3.6940  -21.4430   16.0950 C.ar  169  TYR169      0.1957
    143  OH         4.0680  -22.2170   17.1700 O.3   169  TYR169     -0.2866
    144  N         13.7290  -30.7320   11.2360 N.3   191  SER191     -0.1202
    145  CA        13.1360  -31.0410   12.5360 C.3   191  SER191      0.2020
    146  C         12.3650  -29.9010   13.1940 C.2   191  SER191      0.2618
    147  O         11.4400  -30.1440   13.9600 O.2   191  SER191     -0.2717
    148  CB        14.2130  -31.5520   13.4880 C.3   191  SER191      0.2103
    149  OG        15.3070  -30.6520   13.5510 O.3   191  SER191     -0.2182
    150  N         12.7170  -28.6650   12.8680 N.am  192  PHE192     -0.1975
    151  CA        12.0520  -27.4990   13.4360 C.3   192  PHE192      0.1639
    152  C         10.9110  -26.9510   12.5840 C.2   192  PHE192      0.2290
    153  O         10.1020  -26.1450   13.0500 O.2   192  PHE192     -0.2864
    154  CB        13.0810  -26.3900   13.6380 C.3   192  PHE192      0.0560
    155  CG        13.8650  -26.0710   12.4010 C.ar  192  PHE192     -0.0200
    156  CD1       13.2690  -25.4010   11.3350 C.ar  192  PHE192     -0.0042
    157  CD2       15.1890  -26.4820   12.2750 C.ar  192  PHE192     -0.0042
    158  CE1       13.9830  -25.1490   10.1610 C.ar  192  PHE192     -0.0003
    159  CE2       15.9100  -26.2300   11.1070 C.ar  192  PHE192     -0.0003
    160  CZ        15.3030  -25.5650   10.0480 C.ar  192  PHE192     -0.0000
    161  N         26.8680  -12.8280    5.2110 N.3   212  TRP212     -0.1241
    162  CA        26.6690  -12.3490    6.5740 C.3   212  TRP212      0.1605
    163  C         27.2760  -10.9540    6.6740 C.2   212  TRP212      0.2264
    164  O         27.9770  -10.5120    5.7590 O.2   212  TRP212     -0.2867
    165  CB        27.3300  -13.2990    7.5800 C.3   212  TRP212      0.0550
    166  CG        26.8290  -13.1230    8.9980 C.ar  212  TRP212      0.0003
    167  CD1       27.4870  -12.5240   10.0340 C.ar  212  TRP212      0.0946
    168  CD2       25.5600  -13.5480    9.5240 C.ar  212  TRP212      0.0152
    169  NE1       26.7150  -12.5560   11.1710 N.ar  212  TRP212     -0.2442
    170  CE2       25.5280  -13.1770   10.8880 C.ar  212  TRP212      0.0810
    171  CE3       24.4500  -14.2070    8.9750 C.ar  212  TRP212      0.0012
    172  CZ2       24.4210  -13.4410   11.7140 C.ar  212  TRP212      0.0191
    173  CZ3       23.3440  -14.4700    9.8010 C.ar  212  TRP212      0.0001
    174  CH2       23.3450  -14.0870   11.1550 C.ar  212  TRP212      0.0015
    175  N         28.2680  -17.3810    6.5800 N.3   218  ARG218     -0.1245
    176  CA        28.0140  -18.3230    7.6540 C.3   218  ARG218      0.1563
    177  C         26.8080  -19.1830    7.3420 C.2   218  ARG218      0.2260
    178  O         25.9400  -18.8090    6.5520 O.2   218  ARG218     -0.2867
    179  CB        27.8530  -17.6150    9.0100 C.3   218  ARG218      0.0307
    180  CG        26.4780  -17.0950    9.3550 C.3   218  ARG218      0.0489
    181  CD        26.4400  -16.7260   10.8440 C.3   218  ARG218      0.2205
    182  NE        27.5770  -15.8870   11.2280 N.pl3 218  ARG218     -0.0865
    183  CZ        27.7620  -15.3590   12.4360 C.cat 218  ARG218      0.5346
    184  NH1       26.8820  -15.5700   13.4040 N.pl3 218  ARG218      0.1354
    185  NH2       28.8370  -14.6190   12.6740 N.pl3 218  ARG218      0.1354
    186  N         23.4840  -21.2010    8.6660 N.3   220  ILE220     -0.1231
    187  CA        22.4760  -21.2600    9.7160 C.3   220  ILE220      0.1692
    188  C         21.2740  -22.0390    9.1990 C.2   220  ILE220      0.2592
    189  O         21.2420  -22.4240    8.0280 O.2   220  ILE220     -0.2718
    190  CB        22.0360  -19.8540   10.1860 C.3   220  ILE220      0.0266
    191  CG1       21.5420  -19.0170    9.0020 C.3   220  ILE220      0.0019
    192  CG2       23.1900  -19.1690   10.9100 C.3   220  ILE220      0.0020
    193  CD1       20.9190  -17.6840    9.4290 C.3   220  ILE220      0.0001
    194  N         20.2880  -22.2750   10.0600 N.am  221  SER221     -0.1952
    195  CA        19.1150  -23.0510    9.6770 C.3   221  SER221      0.1924
    196  C         17.7860  -22.4090   10.0610 C.2   221  SER221      0.2314
    197  O         17.7160  -21.6130   11.0020 O.2   221  SER221     -0.2863
    198  CB        19.2000  -24.4390   10.3160 C.3   221  SER221      0.2116
    199  OG        20.4280  -25.0680   10.0040 O.3   221  SER221     -0.2180
    200  N         13.2130  -22.0180    8.6060 N.3   223  THR223     -0.1203
    201  CA        12.3020  -21.8370    7.4820 C.3   223  THR223      0.1994
    202  C         12.6160  -20.4670    6.8750 C.2   223  THR223      0.2618
    203  O         12.1730  -20.1540    5.7720 O.2   223  THR223     -0.2717
    204  CB        10.8070  -21.8880    7.9120 C.3   223  THR223      0.1784
    205  OG1       10.5780  -21.0020    9.0150 O.3   223  THR223     -0.2211
    206  CG2       10.4060  -23.3020    8.2850 C.3   223  THR223      0.0376
    207  N         13.3820  -19.6610    7.6130 N.am  224  SER224     -0.1951
    208  CA        13.8050  -18.3440    7.1480 C.3   224  SER224      0.1924
    209  C         14.8130  -18.4870    6.0090 C.2   224  SER224      0.2314
    210  O         14.9990  -17.5650    5.2140 O.2   224  SER224     -0.2863
    211  CB        14.4630  -17.5510    8.2810 C.3   224  SER224      0.2116
    212  OG        13.5000  -16.8940    9.0800 O.3   224  SER224     -0.2180
@<TRIPOS>BOND
     1    81    80    1
     2   161   162    1
     3   210   209    2
     4   102   103    1
     5   164   163    2
     6   203   202    2
     7    76    77    1
     8   209   208    1
     9   103   104    1
    10   103   106    1
    11    80    77    1
    12   178   177    2
    13   162   163    1
    14   162   165    1
    15   175   176    1
    16    77    78    1
    17   202   201    1
    18   202   207   am
    19   104   107   am
    20   104   105    2
    21    19    18    2
    22   107   108    1
    23   208   207    1
    24   208   211    1
    25   177   176    1
    26   111   108    1
    27   201   204    1
    28   201   200    1
    29   165   166    1
    30   176   179    1
    31    71    70    2
    32   108   109    1
    33   204   206    1
    34   204   205    1
    35    18    17    1
    36   189   188    2
    37    78    82   am
    38    78    79    2
    39   211   212    1
    40    82    83    1
    41   186   187    1
    42     3     4    2
    43     3     2    1
    44     1     2    1
    45    89    87    1
    46    87    88    1
    47    87    86    1
    48    70    69    1
    49   171   168   ar
    50   171   173   ar
    51   166   168   ar
    52   166   167   ar
    53   191   193    1
    54   191   190    1
    55   179   180    1
    56   188   187    1
    57   188   194   am
    58    85    84    2
    59    24    22   ar
    60    24    25   ar
    61   109   112   am
    62   109   110    2
    63   180   181    1
    64    17    16    1
    65    17    20    1
    66    22    21   ar
    67    74    72    1
    68   168   170   ar
    69     2     5    1
    70     6     5    1
    71   195   194    1
    72   195   196    1
    73   195   198    1
    74   187   190    1
    75   112   113    1
    76   173   174   ar
    77    25    23   ar
    78    83    86    1
    79    83    84    1
    80    69    72    1
    81    69    68    1
    82   199   198    1
    83   167   169   ar
    84   160   158   ar
    85   160   159   ar
    86    21    23   ar
    87    21    20    1
    88   196   197    2
    89    84    90   am
    90   158   156   ar
    91   190   192    1
    92     5     7    1
    93    72    73    1
    94   135   134    2
    95   181   182    1
    96   170   169   ar
    97   170   172   ar
    98   115   114    2
    99   159   157   ar
   100   122   121    2
   101    26    27    1
   102   174   172   ar
   103   113   114    1
   104   182   183    2
   105   144   145    1
   106   156   155   ar
   107    32    31    1
   108    73    75    1
   109    90    91    1
   110    31    30    1
   111    31    33    1
   112   114   116   am
   113   134   133    1
   114    91    92    1
   115    10    11    2
   116    10     9    1
   117    30    27    1
   118    29    28    2
   119    59    58    2
   120   121   123   am
   121   121   120    1
   122   157   155   ar
   123    27    28    1
   124   155   154    1
   125   183   185    1
   126   183   184    1
   127     8     9    1
   128   145   146    1
   129   145   148    1
   130   152   153    2
   131   152   151    1
   132   136   133    1
   133   136   137    1
   134   116   117    1
   135    14    13    2
   136   150   146   am
   137   150   151    1
   138   133   132    1
   139     9    12    1
   140    12    13    1
   141   146   147    2
   142    92    94   am
   143    92    93    2
   144   117   120    1
   145   117   118    1
   146   151   154    1
   147    58    57    1
   148   148   149    1
   149    13    15   am
   150    94    95    1
   151   137   139   ar
   152   137   138   ar
   153   139   141   ar
   154    57    60    1
   155    57    56    1
   156    64    62   ar
   157    64    66   ar
   158    62    61   ar
   159    97    96    2
   160   118   124   am
   161   118   119    2
   162    67    66    1
   163   124   125    1
   164    60    61    1
   165    66    65   ar
   166    61    63   ar
   167   138   140   ar
   168   141   142   ar
   169    43    44    1
   170    43    42    1
   171   131   129   am
   172    45    44    2
   173    95    96    1
   174   101   100    2
   175    96    98   am
   176    53    54    1
   177    53    52    1
   178    65    63   ar
   179    49    48    2
   180    44    46   am
   181   100    99    1
   182    42    36   am
   183    54    55    2
   184   126   125    1
   185   126   127    2
   186    48    52   am
   187    48    47    1
   188   125   128    1
   189   140   142   ar
   190   142   143    1
   191   129   128    1
   192   129   130    2
   193    46    47    1
   194    98    99    1
   195    47    50    1
   196    34    35    1
   197    36    37    2
   198    36    35    1
   199    35    38    1
   200    50    51    1
   201    38    39    1
   202    39    40    2
   203    39    41   am
