@<TRIPOS>MOLECULE
tmp/3ot3A00.pdb
 155 145 0 0 0
SMALL
GASTEIGER

@<TRIPOS>ATOM
      1  N         17.8280   -7.3230    5.9870 N.3    12  LEU12      -0.1231
      2  CA        18.4310   -6.4520    6.9880 C.3    12  LEU12       0.1693
      3  C         18.6540   -7.1990    8.2870 C.2    12  LEU12       0.2593
      4  O         19.5500   -6.8720    9.0560 O.2    12  LEU12      -0.2718
      5  CB        17.5540   -5.2250    7.2180 C.3    12  LEU12       0.0284
      6  CG        17.4840   -4.2560    6.0360 C.3    12  LEU12       0.0019
      7  CD1       16.4790   -3.1330    6.3030 C.3    12  LEU12       0.0001
      8  CD2       18.8660   -3.6910    5.7230 C.3    12  LEU12       0.0001
      9  N         17.8490   -8.2210    8.5200 N.am   13  GLY13      -0.1942
     10  CA        17.9940   -9.0260    9.7200 C.3    13  GLY13       0.2014
     11  C         16.7420   -9.8060   10.0010 C.2    13  GLY13       0.2639
     12  O         15.8020   -9.8060    9.2100 O.2    13  GLY13      -0.2714
     13  N         16.7290  -10.4750   11.1410 N.am   14  GLU14      -0.1963
     14  CA        15.5780  -11.2590   11.5420 C.3    14  GLU14       0.1733
     15  C         15.1770  -10.8790   12.9510 C.2    14  GLU14       0.2616
     16  O         15.9690  -10.3060   13.6960 O.2    14  GLU14      -0.2715
     17  CB        15.8990  -12.7570   11.4790 C.3    14  GLU14       0.0429
     18  CG        15.3190  -13.4640   10.2680 C.3    14  GLU14       0.1163
     19  CD        16.2850  -14.4640    9.6640 C.2    14  GLU14       0.3649
     20  OE1       16.5270  -15.5120   10.2980 O.co2  14  GLU14      -0.2457
     21  OE2       16.8050  -14.1990    8.5570 O.co2  14  GLU14      -0.2457
     22  N         13.9430  -11.2130   13.3070 N.am   15  GLY15      -0.1955
     23  CA        13.4130  -10.9500   14.6370 C.3    15  GLY15       0.1869
     24  C         12.5660  -12.1470   15.0530 C.2    15  GLY15       0.2309
     25  O         12.3390  -13.0590   14.2520 O.2    15  GLY15      -0.2863
     26  N         13.2190   -8.7110    8.2430 N.3    19  VAL19      -0.1245
     27  CA        13.0850   -7.3480    7.7730 C.3    19  VAL19       0.1561
     28  C         13.9660   -7.2200    6.5430 C.2    19  VAL19       0.2260
     29  O         15.1510   -7.5430    6.5810 O.2    19  VAL19      -0.2867
     30  CB        13.4770   -6.3180    8.8620 C.3    19  VAL19       0.0252
     31  CG1       13.4150   -4.8970    8.2980 C.3    19  VAL19       0.0019
     32  CG2       12.5640   -6.4530   10.0690 C.3    19  VAL19       0.0019
     33  N         12.2050   -0.0900    4.7580 N.3    32  ALA32      -0.1245
     34  CA        12.3590   -1.3580    5.4200 C.3    32  ALA32       0.1562
     35  C         11.0030   -2.0590    5.4110 C.2    32  ALA32       0.2260
     36  O          9.9690   -1.4320    5.6110 O.2    32  ALA32      -0.2867
     37  CB        12.8580   -1.1420    6.8640 C.3    32  ALA32       0.0290
     38  N          8.9330   -5.1280    7.1100 N.3    34  LYS34      -0.1245
     39  CA         8.8340   -6.1480    8.1500 C.3    34  LYS34       0.1561
     40  C          7.8600   -7.2100    7.6580 C.2    34  LYS34       0.2260
     41  O          6.6860   -6.9170    7.4000 O.2    34  LYS34      -0.2867
     42  CB         8.3250   -5.5320    9.4680 C.3    34  LYS34       0.0271
     43  CG         8.2410   -6.5200   10.6430 C.3    34  LYS34       0.0035
     44  CD         8.2420   -5.7850   11.9810 C.3    34  LYS34       0.0206
     45  CE         7.7740   -6.6820   13.1140 C.3    34  LYS34       0.1093
     46  NZ         7.9670   -6.0390   14.4510 N.3    34  LYS34      -0.1314
     47  N          0.5170   -3.6820   16.5240 N.3    44  GLU44      -0.1245
     48  CA         1.7340   -3.0280   16.0580 C.3    44  GLU44       0.1567
     49  C          1.4350   -2.0350   14.9410 C.2    44  GLU44       0.2260
     50  O          1.9770   -0.9430   14.9230 O.2    44  GLU44      -0.2867
     51  CB         2.7850   -4.0480   15.6110 C.3    44  GLU44       0.0388
     52  CG         4.0660   -3.4140   15.0890 C.3    44  GLU44       0.1160
     53  CD         5.1580   -4.4320   14.8120 C.2    44  GLU44       0.3649
     54  OE1        4.9280   -5.6320   15.0640 O.co2  44  GLU44      -0.2457
     55  OE2        6.2490   -4.0320   14.3460 O.co2  44  GLU44      -0.2457
     56  N         10.8900    5.6270   14.1380 N.3    57  VAL57      -0.1245
     57  CA        10.7480    5.0520   12.8040 C.3    57  VAL57       0.1561
     58  C          9.3350    5.3560   12.2780 C.2    57  VAL57       0.2260
     59  O          8.3390    5.0550   12.9340 O.2    57  VAL57      -0.2867
     60  CB        11.0020    3.5410   12.8370 C.3    57  VAL57       0.0252
     61  CG1       10.4810    2.8790   11.5390 C.3    57  VAL57       0.0019
     62  CG2       12.4750    3.2660   13.0090 C.3    57  VAL57       0.0019
     63  N          8.1510    0.4040    6.5850 N.3    73  LEU73      -0.1231
     64  CA         8.7120    1.3030    7.5770 C.3    73  LEU73       0.1693
     65  C          9.9330    2.0780    7.1180 C.2    73  LEU73       0.2592
     66  O         10.6020    1.7230    6.1520 O.2    73  LEU73      -0.2718
     67  CB         9.0600    0.4870    8.8150 C.3    73  LEU73       0.0284
     68  CG         7.9210   -0.3600    9.3880 C.3    73  LEU73       0.0019
     69  CD1        8.4360   -1.7080    9.8840 C.3    73  LEU73       0.0001
     70  CD2        7.2220    0.4060   10.5140 C.3    73  LEU73       0.0001
     71  N         10.2430    3.1410    7.8450 N.am   74  GLU74      -0.1966
     72  CA        11.3720    3.9670    7.5200 C.3    74  GLU74       0.1733
     73  C         12.6860    3.2010    7.5630 C.2    74  GLU74       0.2616
     74  O         12.9980    2.5260    8.5510 O.2    74  GLU74      -0.2715
     75  CB        11.4120    5.1710    8.4650 C.3    74  GLU74       0.0429
     76  CG        12.5870    6.0780    8.2830 C.3    74  GLU74       0.1163
     77  CD        12.5720    7.2540    9.2570 C.2    74  GLU74       0.3649
     78  OE1       11.6410    7.3300   10.0910 O.co2  74  GLU74      -0.2457
     79  OE2       13.4970    8.0910    9.1870 O.co2  74  GLU74      -0.2457
     80  N         13.4380    3.2640    6.4700 N.am   75  TYR75      -0.1960
     81  CA        14.7320    2.5900    6.3910 C.3    75  TYR75       0.1771
     82  C         15.8040    3.4370    7.0590 C.2    75  TYR75       0.2620
     83  O         15.8700    4.6480    6.8550 O.2    75  TYR75      -0.2715
     84  CB        15.1020    2.3120    4.9160 C.3    75  TYR75       0.0574
     85  CG        16.5290    1.8160    4.7120 C.ar   75  TYR75      -0.0198
     86  CD1       16.9960    0.6670    5.3540 C.ar   75  TYR75      -0.0009
     87  CD2       17.3880    2.4650    3.8270 C.ar   75  TYR75      -0.0009
     88  CE1       18.2900    0.2240    5.1720 C.ar   75  TYR75       0.0417
     89  CE2       18.6700    2.0230    3.6280 C.ar   75  TYR75       0.0417
     90  CZ        19.1160    0.8890    4.2770 C.ar   75  TYR75       0.1957
     91  OH        20.4130    0.4510    4.0600 O.3    75  TYR75      -0.2866
     92  N         16.6400    2.7920    7.8730 N.am   76  CYS76      -0.1954
     93  CA        17.6930    3.4900    8.6000 C.3    76  CYS76       0.1843
     94  C         19.0350    2.9510    8.1540 C.2    76  CYS76       0.2626
     95  O         19.4840    1.9040    8.6120 O.2    76  CYS76      -0.2714
     96  CB        17.4820    3.2900   10.1110 C.3    76  CYS76       0.0997
     97  SG        15.8940    4.0160   10.6900 S.3    76  CYS76      -0.0797
     98  N         19.6430    3.6320    7.1840 N.am   77  SER77      -0.1950
     99  CA        20.8990    3.1580    6.6050 C.3    77  SER77       0.1924
    100  C         22.1070    3.0460    7.4840 C.2    77  SER77       0.2314
    101  O         23.0780    2.3700    7.1220 O.2    77  SER77      -0.2863
    102  CB        21.2400    3.9330    5.3280 C.3    77  SER77       0.2116
    103  OG        21.5280    5.2870    5.6070 O.3    77  SER77      -0.2180
    104  N         22.1250    1.6400   10.3530 N.3    79  GLY79      -0.1210
    105  CA        22.0280    0.3890   11.1110 C.3    79  GLY79       0.1956
    106  C         21.7140    0.6110   12.5980 C.2    79  GLY79       0.2611
    107  O         21.0820    1.6000   12.9660 O.2    79  GLY79      -0.2717
    108  N         22.1490   -0.3320   13.4240 N.am   80  GLU80      -0.1979
    109  CA        21.8570   -0.3070   14.8640 C.3    80  GLU80       0.1602
    110  C         22.8440    0.4840   15.6440 C.2    80  GLU80       0.2287
    111  O         24.0570    0.3810   15.4400 O.2    80  GLU80      -0.2864
    112  CB        21.9020   -1.7260   15.4270 C.3    80  GLU80       0.0415
    113  CG        20.8120   -2.6370   14.9330 C.3    80  GLU80       0.1163
    114  CD        20.9270   -4.0470   15.5350 C.2    80  GLU80       0.3649
    115  OE1       21.8310   -4.2870   16.3780 O.co2  80  GLU80      -0.2457
    116  OE2       20.0900   -4.8950   15.1930 O.co2  80  GLU80      -0.2457
    117  N         19.9210   -2.4640   20.1050 N.3   123  GLU123     -0.1231
    118  CA        19.5580   -3.2060   18.9130 C.3   123  GLU123      0.1699
    119  C         18.3040   -2.6540   18.2590 C.2   123  GLU123      0.2592
    120  O         18.0960   -2.8590   17.0650 O.2   123  GLU123     -0.2718
    121  CB        19.3300   -4.6770   19.2590 C.3   123  GLU123      0.0402
    122  CG        20.5690   -5.4030   19.8130 C.3   123  GLU123      0.1161
    123  CD        20.6680   -5.3780   21.3550 C.2   123  GLU123      0.3649
    124  OE1       20.2720   -4.3810   21.9950 O.co2 123  GLU123     -0.2457
    125  OE2       21.1830   -6.3620   21.9270 O.co2 123  GLU123     -0.2457
    126  N         17.4760   -1.9440   19.0410 N.am  124  ASN124     -0.1974
    127  CA        16.2080   -1.3690   18.5540 C.3   124  ASN124      0.1688
    128  C         16.3040    0.1130   18.2430 C.2   124  ASN124      0.2292
    129  O         15.3480    0.6890   17.7470 O.2   124  ASN124     -0.2864
    130  CB        15.0540   -1.6010   19.5620 C.3   124  ASN124      0.1181
    131  CG        14.5800   -3.0120   19.5720 C.2   124  ASN124      0.2629
    132  OD1       14.5900   -3.6920   18.5300 O.2   124  ASN124     -0.2716
    133  ND2       14.0820   -3.4460   20.6960 N.am  124  ASN124     -0.0877
    134  N         17.8670    2.6430   15.8870 N.3   126  LEU126     -0.1245
    135  CA        18.5240    2.6420   14.5720 C.3   126  LEU126      0.1561
    136  C         19.0270    4.0260   14.1920 C.2   126  LEU126      0.2260
    137  O         18.6580    5.0300   14.8080 O.2   126  LEU126     -0.2867
    138  CB        17.5680    2.0960   13.5100 C.3   126  LEU126      0.0270
    139  CG        16.8520    0.7850   13.9030 C.3   126  LEU126      0.0019
    140  CD1       15.9340    0.3190   12.7410 C.3   126  LEU126      0.0001
    141  CD2       17.8570   -0.3070   14.2530 C.3   126  LEU126      0.0001
    142  N         12.9080    2.0490   16.9610 N.3   136  SER136     -0.1202
    143  CA        12.2370    1.0640   16.1120 C.3   136  SER136      0.2020
    144  C         11.5960   -0.0560   16.8710 C.2   136  SER136      0.2618
    145  O         11.9260   -0.3300   18.0330 O.2   136  SER136     -0.2717
    146  CB        13.2250    0.4750   15.1040 C.3   136  SER136      0.2103
    147  OG        14.0210   -0.5350   15.6990 O.3   136  SER136     -0.2182
    148  N         10.6960   -0.7300   16.1700 N.am  137  ASP137     -0.1973
    149  CA         9.9810   -1.8820   16.6440 C.3   137  ASP137      0.1709
    150  C          8.9920   -1.6640   17.7360 C.2   137  ASP137      0.2293
    151  O          9.3550   -1.6070   18.9210 O.2   137  ASP137     -0.2864
    152  CB        10.8640   -3.0440   16.9670 C.3   137  ASP137      0.1436
    153  CG        10.1540   -4.3480   16.7270 C.2   137  ASP137      0.3671
    154  OD1        9.1300   -4.5750   17.3970 O.co2 137  ASP137     -0.2456
    155  OD2       10.4430   -4.9860   15.6820 O.co2 137  ASP137     -0.2456
@<TRIPOS>BOND
     1    89    87   ar
     2    89    90   ar
     3    87    85   ar
     4    91    90    1
     5    90    88   ar
     6    85    84    1
     7    85    86   ar
     8    33    34    1
     9    84    81    1
    10    88    86   ar
    11   102   103    1
    12   102    99    1
    13    35    34    1
    14    35    36    2
    15    34    37    1
    16     8     6    1
    17     1     2    1
    18     6     7    1
    19     6     5    1
    20    66    65    2
    21    81    80    1
    22    81    82    1
    23    80    73   am
    24    28    29    2
    25    28    27    1
    26    63    64    1
    27    99    98    1
    28    99   100    1
    29    83    82    2
    30     2     5    1
    31     2     3    1
    32    82    92   am
    33    38    39    1
    34    65    64    1
    35    65    71   am
    36   101   100    2
    37    98    94   am
    38    41    40    2
    39    72    73    1
    40    72    71    1
    41    72    75    1
    42    73    74    2
    43    64    67    1
    44    40    39    1
    45    27    26    1
    46    27    30    1
    47    92    93    1
    48    39    42    1
    49    94    93    1
    50    94    95    2
    51    76    75    1
    52    76    77    1
    53     3     9   am
    54     3     4    2
    55    31    30    1
    56     9    10    1
    57    21    19   ar
    58    93    96    1
    59    67    68    1
    60    30    32    1
    61    79    77   ar
    62    12    11    2
    63    77    78   ar
    64    68    69    1
    65    68    70    1
    66    42    43    1
    67    19    18    1
    68    19    20   ar
    69    10    11    1
    70    11    13   am
    71    96    97    1
    72    18    17    1
    73   104   105    1
    74    43    44    1
    75   105   106    1
    76    13    14    1
    77    17    14    1
    78    61    60    1
    79    14    15    1
    80    44    45    1
    81    58    57    1
    82    58    59    2
    83   106   107    2
    84   106   108   am
    85   140   139    1
    86    57    60    1
    87    57    56    1
    88    60    62    1
    89    15    22   am
    90    15    16    2
    91    45    46    1
    92    22    23    1
    93   108   109    1
    94   138   139    1
    95   138   135    1
    96   139   141    1
    97   136   135    1
    98   136   137    2
    99    25    24    2
   100    55    53   ar
   101   135   134    1
   102    23    24    1
   103    53    54   ar
   104    53    52    1
   105   109   112    1
   106   109   110    1
   107    50    49    2
   108   113   112    1
   109   113   114    1
   110    49    48    1
   111    52    51    1
   112   146   147    1
   113   146   143    1
   114   116   114   ar
   115   111   110    2
   116   114   115   ar
   117    51    48    1
   118   155   153   ar
   119    48    47    1
   120   143   144    1
   121   143   142    1
   122   148   149    1
   123   148   144   am
   124   149   152    1
   125   149   150    1
   126   153   152    1
   127   153   154   ar
   128   144   145    2
   129   120   119    2
   130   150   151    2
   131   129   128    2
   132   128   127    1
   133   119   118    1
   134   119   126   am
   135   132   131    2
   136   127   126    1
   137   127   130    1
   138   118   121    1
   139   118   117    1
   140   121   122    1
   141   130   131    1
   142   131   133   am
   143   122   123    1
   144   123   125   ar
   145   123   124   ar
