@<TRIPOS>MOLECULE
tmp/3ot5A01.pdb
 96 91 0 0 0
SMALL
GASTEIGER

@<TRIPOS>ATOM
      1  N         28.0310  -17.0840    9.5940 N.3   171  ILE171     -0.1245
      2  CA        27.1100  -17.6350   10.5640 C.3   171  ILE171      0.1561
      3  C         27.6570  -18.9960   11.0120 C.2   171  ILE171      0.2260
      4  O         27.6180  -19.3010   12.2030 O.2   171  ILE171     -0.2867
      5  CB        25.6940  -17.7070    9.9840 C.3   171  ILE171      0.0252
      6  CG1       25.2380  -16.2860    9.5970 C.3   171  ILE171      0.0019
      7  CG2       24.7430  -18.3350   10.9800 C.3   171  ILE171      0.0019
      8  CD1       23.9450  -16.2180    8.8090 C.3   171  ILE171      0.0001
      9  N         30.1100  -18.8520   13.9080 N.3   174  LEU174     -0.1231
     10  CA        29.5910  -18.6950   15.2700 C.3   174  LEU174      0.1693
     11  C         29.5950  -20.0180   16.0500 C.2   174  LEU174      0.2591
     12  O         29.7370  -20.0250   17.2790 O.2   174  LEU174     -0.2718
     13  CB        28.1720  -18.1120   15.2330 C.3   174  LEU174      0.0284
     14  CG        28.0080  -16.7250   14.5720 C.3   174  LEU174      0.0019
     15  CD1       26.5180  -16.3350   14.4080 C.3   174  LEU174      0.0001
     16  CD2       28.7590  -15.6470   15.3410 C.3   174  LEU174      0.0001
     17  N         29.4600  -21.1430   15.3510 N.am  175  LYS175     -0.1980
     18  CA        29.4530  -22.4270   16.0410 C.3   175  LYS175      0.1596
     19  C         30.8050  -22.6530   16.7160 C.2   175  LYS175      0.2287
     20  O         30.8880  -23.3350   17.7250 O.2   175  LYS175     -0.2864
     21  CB        29.1140  -23.5750   15.0790 C.3   175  LYS175      0.0298
     22  CG        27.7170  -23.4770   14.4410 C.3   175  LYS175      0.0038
     23  CD        27.4140  -24.6490   13.5010 C.3   175  LYS175      0.0206
     24  CE        28.3760  -24.6930   12.3070 C.3   175  LYS175      0.1093
     25  NZ        28.0350  -25.7750   11.3480 N.3   175  LYS175     -0.1314
     26  N         31.8210  -18.7850   19.2830 N.3   178  VAL178     -0.1231
     27  CA        31.0210  -18.6800   20.4990 C.3   178  VAL178      0.1692
     28  C         31.4050  -19.8360   21.3980 C.2   178  VAL178      0.2592
     29  O         31.2160  -21.0040   21.0400 O.2   178  VAL178     -0.2718
     30  CB        29.5160  -18.7650   20.2210 C.3   178  VAL178      0.0266
     31  CG1       28.7450  -18.7560   21.5360 C.3   178  VAL178      0.0020
     32  CG2       29.0810  -17.6180   19.3200 C.3   178  VAL178      0.0020
     33  N         31.9430  -19.5050   22.5660 N.am  179  GLN179     -0.1966
     34  CA        32.4050  -20.4990   23.5110 C.3   179  GLN179      0.1733
     35  C         31.3000  -21.0520   24.3920 C.2   179  GLN179      0.2616
     36  O         30.3450  -20.3570   24.7210 O.2   179  GLN179     -0.2715
     37  CB        33.4700  -19.8890   24.4140 C.3   179  GLN179      0.0408
     38  CG        34.6930  -19.3450   23.6950 C.3   179  GLN179      0.0908
     39  CD        35.7440  -18.8350   24.6720 C.2   179  GLN179      0.2608
     40  OE1       35.4860  -18.7150   25.8700 O.2   179  GLN179     -0.2717
     41  NE2       36.9350  -18.5500   24.1660 N.am  179  GLN179     -0.0878
     42  N         31.4710  -22.3110   24.7860 N.am  180  LYS180     -0.1977
     43  CA        30.5460  -23.0200   25.6670 C.3   180  LYS180      0.1596
     44  C         30.1970  -22.1310   26.8640 C.2   180  LYS180      0.2287
     45  O         29.0300  -21.8210   27.1060 O.2   180  LYS180     -0.2864
     46  CB        31.2190  -24.3140   26.1460 C.3   180  LYS180      0.0298
     47  CG        30.4000  -25.2350   27.0380 C.3   180  LYS180      0.0038
     48  CD        31.3170  -26.3350   27.6000 C.3   180  LYS180      0.0206
     49  CE        30.5900  -27.3860   28.4330 C.3   180  LYS180      0.1093
     50  NZ        29.7370  -28.2960   27.6120 N.3   180  LYS180     -0.1314
     51  N         26.0960  -13.1090   21.9140 N.3   269  ARG269     -0.1245
     52  CA        25.2850  -14.2480   22.3620 C.3   269  ARG269      0.1563
     53  C         24.4240  -13.9730   23.5880 C.2   269  ARG269      0.2260
     54  O         23.2840  -14.4490   23.6610 O.2   269  ARG269     -0.2867
     55  CB        26.1460  -15.4880   22.6260 C.3   269  ARG269      0.0307
     56  CG        25.3220  -16.6640   23.1570 C.3   269  ARG269      0.0489
     57  CD        26.0840  -17.9510   23.1990 C.3   269  ARG269      0.2205
     58  NE        25.2560  -19.0360   23.7160 N.pl3 269  ARG269     -0.0865
     59  CZ        24.4060  -19.7600   22.9890 C.cat 269  ARG269      0.5346
     60  NH1       23.7050  -20.7270   23.5710 N.pl3 269  ARG269      0.1354
     61  NH2       24.2450  -19.5290   21.6860 N.pl3 269  ARG269      0.1354
     62  N         21.8190  -14.8020   13.8410 N.3   287  GLY287     -0.1210
     63  CA        22.3050  -16.1800   13.9240 C.3   287  GLY287      0.1956
     64  C         22.2830  -16.6010   15.3920 C.2   287  GLY287      0.2611
     65  O         22.1960  -17.7840   15.7050 O.2   287  GLY287     -0.2717
     66  N         22.3830  -15.6160   16.2880 N.am  288  MET288     -0.1979
     67  CA        22.3330  -15.8410   17.7370 C.3   288  MET288      0.1605
     68  C         20.9020  -15.6190   18.2250 C.2   288  MET288      0.2287
     69  O         20.5970  -15.8410   19.3860 O.2   288  MET288     -0.2864
     70  CB        23.2170  -14.8290   18.4620 C.3   288  MET288      0.0413
     71  CG        24.6990  -14.7630   18.0140 C.3   288  MET288      0.0598
     72  SD        25.7050  -16.1030   18.6390 S.3   288  MET288     -0.1393
     73  CE        24.8510  -17.5080   17.9640 C.3   288  MET288      0.0692
     74  N         21.7850  -20.3200    7.9350 N.3   346  ASP346     -0.1225
     75  CA        21.4130  -21.1230    9.0940 C.3   346  ASP346      0.1805
     76  C         22.6490  -21.7070    9.7840 C.2   346  ASP346      0.2598
     77  O         22.5210  -22.4410   10.7630 O.2   346  ASP346     -0.2718
     78  CB        20.4730  -22.2590    8.6870 C.3   346  ASP346      0.1424
     79  CG        21.1060  -23.2330    7.6870 C.2   346  ASP346      0.3668
     80  OD1       22.2350  -22.9870    7.1830 O.co2 346  ASP346     -0.2456
     81  OD2       20.4490  -24.2460    7.3830 O.co2 346  ASP346     -0.2456
     82  N         23.8380  -21.3940    9.2740 N.am  347  GLY347     -0.1942
     83  CA        25.0750  -21.8990    9.8750 C.3   347  GLY347      0.2014
     84  C         25.6140  -23.1550    9.2080 C.2   347  GLY347      0.2638
     85  O         26.5270  -23.8100    9.7250 O.2   347  GLY347     -0.2714
     86  N         25.0620  -23.4930    8.0480 N.am  348  PHE348     -0.1973
     87  CA        25.5090  -24.6710    7.3350 C.3   348  PHE348      0.1639
     88  C         25.8660  -24.3510    5.9050 C.2   348  PHE348      0.2290
     89  O         25.7740  -25.2000    5.0350 O.2   348  PHE348     -0.2864
     90  CB        24.4630  -25.7940    7.4190 C.3   348  PHE348      0.0560
     91  CG        24.2330  -26.2870    8.8110 C.ar  348  PHE348     -0.0200
     92  CD1       25.0840  -27.2220    9.3760 C.ar  348  PHE348     -0.0042
     93  CD2       23.1660  -25.8220    9.5600 C.ar  348  PHE348     -0.0042
     94  CE1       24.8810  -27.6770   10.6680 C.ar  348  PHE348     -0.0003
     95  CE2       22.9510  -26.2780   10.8460 C.ar  348  PHE348     -0.0003
     96  CZ        23.8110  -27.2050   11.4030 C.ar  348  PHE348     -0.0000
@<TRIPOS>BOND
     1    89    88    2
     2    88    87    1
     3    80    79   ar
     4    87    90    1
     5    87    86    1
     6    81    79   ar
     7    90    91    1
     8    79    78    1
     9    74    75    1
    10    86    84   am
    11    78    75    1
    12     8     6    1
    13    91    92   ar
    14    91    93   ar
    15    75    76    1
    16    84    85    2
    17    84    83    1
    18    82    76   am
    19    82    83    1
    20    92    94   ar
    21    93    95   ar
    22     1     2    1
    23     6     5    1
    24    76    77    2
    25     5     2    1
    26     5     7    1
    27     2     3    1
    28    94    96   ar
    29    95    96   ar
    30     3     4    2
    31    25    24    1
    32    24    23    1
    33    23    22    1
    34    62    63    1
    35     9    10    1
    36    63    64    1
    37    15    14    1
    38    22    21    1
    39    14    13    1
    40    14    16    1
    41    21    18    1
    42    13    10    1
    43    10    11    1
    44    17    18    1
    45    17    11   am
    46    64    65    2
    47    64    66   am
    48    18    19    1
    49    11    12    2
    50    66    67    1
    51    19    20    2
    52    67    68    1
    53    67    70    1
    54    73    72    1
    55    71    70    1
    56    71    72    1
    57    68    69    2
    58    26    27    1
    59    32    30    1
    60    30    27    1
    61    30    31    1
    62    27    28    1
    63    29    28    2
    64    28    33   am
    65    61    59    1
    66    51    52    1
    67    52    55    1
    68    52    53    1
    69    33    34    1
    70    55    56    1
    71    59    60    1
    72    59    58    2
    73    56    57    1
    74    57    58    1
    75    34    35    1
    76    34    37    1
    77    53    54    2
    78    38    37    1
    79    38    39    1
    80    41    39   am
    81    35    36    2
    82    35    42   am
    83    39    40    2
    84    42    43    1
    85    43    46    1
    86    43    44    1
    87    46    47    1
    88    44    45    2
    89    47    48    1
    90    48    49    1
    91    50    49    1
