@<TRIPOS>MOLECULE
tmp/3ot8A00.pdb
 168 158 0 0 0
SMALL
GASTEIGER

@<TRIPOS>ATOM
      1  N         17.6070   -6.5940   -0.0630 N.3    10  GLN10      -0.1245
      2  CA        18.4390   -7.2050    0.9660 C.3    10  GLN10       0.1566
      3  C         17.7790   -7.2910    2.3290 C.2    10  GLN10       0.2260
      4  O         16.9930   -6.4260    2.7100 O.2    10  GLN10      -0.2867
      5  CB        19.7890   -6.4880    1.0680 C.3    10  GLN10       0.0367
      6  CG        19.7940   -5.2700    1.9740 C.3    10  GLN10       0.0905
      7  CD        21.1900   -4.7050    2.1820 C.2    10  GLN10       0.2608
      8  OE1       21.4020   -3.8260    3.0190 O.2    10  GLN10      -0.2717
      9  NE2       22.1510   -5.2120    1.4190 N.am   10  GLN10      -0.0878
     10  N         17.6470   -6.8580    6.1350 N.3    12  LEU12      -0.1231
     11  CA        18.2890   -5.9630    7.0890 C.3    12  LEU12       0.1693
     12  C         18.6030   -6.6400    8.4180 C.2    12  LEU12       0.2593
     13  O         19.4580   -6.1750    9.1690 O.2    12  LEU12      -0.2718
     14  CB        17.4420   -4.7120    7.3020 C.3    12  LEU12       0.0284
     15  CG        17.2500   -3.8880    6.0300 C.3    12  LEU12       0.0019
     16  CD1       16.4620   -2.6250    6.3010 C.3    12  LEU12       0.0001
     17  CD2       18.5970   -3.5660    5.4000 C.3    12  LEU12       0.0001
     18  N         17.9170   -7.7380    8.7040 N.am   13  GLY13      -0.1942
     19  CA        18.1570   -8.4650    9.9400 C.3    13  GLY13       0.2014
     20  C         16.9110   -9.1610   10.4570 C.2    13  GLY13       0.2639
     21  O         15.8610   -9.1500    9.8110 O.2    13  GLY13      -0.2714
     22  N         17.0380   -9.7680   11.6320 N.am   14  GLU14      -0.1963
     23  CA        15.9360  -10.4770   12.2680 C.3    14  GLU14       0.1733
     24  C         15.4950   -9.7290   13.5170 C.2    14  GLU14       0.2616
     25  O         16.2080   -9.7220   14.5210 O.2    14  GLU14      -0.2715
     26  CB        16.3740  -11.8940   12.6450 C.3    14  GLU14       0.0429
     27  CG        15.4740  -12.9900   12.1140 C.3    14  GLU14       0.1163
     28  CD        16.0030  -14.3740   12.4390 C.2    14  GLU14       0.3649
     29  OE1       16.5670  -14.5520   13.5410 O.co2  14  GLU14      -0.2457
     30  OE2       15.8710  -15.2780   11.5870 O.co2  14  GLU14      -0.2457
     31  N         14.4250   -8.9960   13.4250 N.am   15  GLY15      -0.1955
     32  CA        13.8160   -8.3340   14.5840 C.3    15  GLY15       0.1869
     33  C         12.7680   -9.0420   15.2860 C.2    15  GLY15       0.2309
     34  O         12.0250   -8.4850   16.0760 O.2    15  GLY15      -0.2863
     35  N         13.1840   -8.1490    8.4090 N.3    18  VAL18      -0.1245
     36  CA        13.1170   -6.7940    7.8960 C.3    18  VAL18       0.1561
     37  C         13.9940   -6.7230    6.6640 C.2    18  VAL18       0.2260
     38  O         15.1780   -7.0540    6.7120 O.2    18  VAL18      -0.2867
     39  CB        13.5390   -5.7420    8.9600 C.3    18  VAL18       0.0252
     40  CG1       13.5970   -4.3560    8.3360 C.3    18  VAL18       0.0019
     41  CG2       12.5750   -5.7520   10.1370 C.3    18  VAL18       0.0019
     42  N         12.0450    0.3360    4.6210 N.3    31  ALA31      -0.1245
     43  CA        12.2300   -0.9270    5.3120 C.3    31  ALA31       0.1562
     44  C         10.8980   -1.6500    5.3320 C.2    31  ALA31       0.2260
     45  O          9.8550   -1.0490    5.5840 O.2    31  ALA31      -0.2867
     46  CB        12.7320   -0.6840    6.7510 C.3    31  ALA31       0.0290
     47  N          8.8510   -4.7030    7.0370 N.3    33  LYS33      -0.1245
     48  CA         8.7750   -5.6960    8.0950 C.3    33  LYS33       0.1561
     49  C          7.8230   -6.7890    7.6390 C.2    33  LYS33       0.2260
     50  O          6.6240   -6.5540    7.4930 O.2    33  LYS33      -0.2867
     51  CB         8.2690   -5.0630    9.3960 C.3    33  LYS33       0.0271
     52  CG         8.0410   -6.0630   10.5280 C.3    33  LYS33       0.0035
     53  CD         8.1760   -5.3940   11.8970 C.3    33  LYS33       0.0206
     54  CE         7.7960   -6.3420   13.0240 C.3    33  LYS33       0.1093
     55  NZ         7.5830   -5.6140   14.3150 N.3    33  LYS33      -0.1314
     56  N          0.3270   -3.2100   16.3640 N.3    42  GLU42      -0.1245
     57  CA         1.5280   -2.5470   15.8730 C.3    42  GLU42       0.1567
     58  C          1.1780   -1.5100   14.8100 C.2    42  GLU42       0.2260
     59  O          1.6220   -0.3710   14.8740 O.2    42  GLU42      -0.2867
     60  CB         2.5280   -3.5510   15.3130 C.3    42  GLU42       0.0388
     61  CG         3.7860   -2.9070   14.7650 C.3    42  GLU42       0.1160
     62  CD         4.9300   -3.8900   14.5880 C.2    42  GLU42       0.3649
     63  OE1        4.7710   -5.0780   14.9410 O.co2  42  GLU42      -0.2457
     64  OE2        5.9930   -3.4720   14.0970 O.co2  42  GLU42      -0.2457
     65  N         10.7320    6.0890   14.0050 N.3    55  VAL55      -0.1245
     66  CA        10.6210    5.5120   12.6620 C.3    55  VAL55       0.1561
     67  C          9.2190    5.8000   12.1090 C.2    55  VAL55       0.2260
     68  O          8.2180    5.5370   12.7660 O.2    55  VAL55      -0.2867
     69  CB        10.9370    4.0110   12.6840 C.3    55  VAL55       0.0252
     70  CG1       10.4010    3.3120   11.4070 C.3    55  VAL55       0.0019
     71  CG2       12.4300    3.7950   12.8210 C.3    55  VAL55       0.0019
     72  N          7.9270    0.8570    6.4130 N.3    67  LEU67      -0.1231
     73  CA         8.4610    1.8030    7.3870 C.3    67  LEU67       0.1693
     74  C          9.7020    2.5480    6.9240 C.2    67  LEU67       0.2592
     75  O         10.3820    2.1450    5.9690 O.2    67  LEU67      -0.2718
     76  CB         8.7690    1.0560    8.6980 C.3    67  LEU67       0.0284
     77  CG         7.6320    0.2200    9.2980 C.3    67  LEU67       0.0019
     78  CD1        8.1510   -1.1260    9.7840 C.3    67  LEU67       0.0001
     79  CD2        6.9540    0.9730   10.4330 C.3    67  LEU67       0.0001
     80  N         10.0150    3.6230    7.6350 N.am   68  GLU68      -0.1966
     81  CA        11.1690    4.4440    7.3310 C.3    68  GLU68       0.1733
     82  C         12.4720    3.6540    7.3500 C.2    68  GLU68       0.2616
     83  O         12.7610    2.9370    8.3070 O.2    68  GLU68      -0.2715
     84  CB        11.2420    5.6180    8.3100 C.3    68  GLU68       0.0429
     85  CG        12.4000    6.5570    8.0740 C.3    68  GLU68       0.1163
     86  CD        12.3730    7.7420    9.0100 C.2    68  GLU68       0.3649
     87  OE1       11.4580    7.8050    9.8570 O.co2  68  GLU68      -0.2457
     88  OE2       13.2710    8.6020    8.9100 O.co2  68  GLU68      -0.2457
     89  N         13.2590    3.7780    6.2850 N.am   69  TYR69      -0.1960
     90  CA        14.5380    3.0860    6.2200 C.3    69  TYR69       0.1771
     91  C         15.6030    3.9430    6.8690 C.2    69  TYR69       0.2620
     92  O         15.6860    5.1370    6.6170 O.2    69  TYR69      -0.2715
     93  CB        14.9270    2.7690    4.7630 C.3    69  TYR69       0.0574
     94  CG        16.3420    2.2200    4.6080 C.ar   69  TYR69      -0.0198
     95  CD1       16.7110    1.0200    5.2010 C.ar   69  TYR69      -0.0009
     96  CD2       17.3020    2.9030    3.8630 C.ar   69  TYR69      -0.0009
     97  CE1       17.9910    0.5080    5.0510 C.ar   69  TYR69       0.0417
     98  CE2       18.5840    2.3990    3.7090 C.ar   69  TYR69       0.0417
     99  CZ        18.9220    1.1990    4.3040 C.ar   69  TYR69       0.1957
    100  OH        20.2000    0.6930    4.1580 O.3    69  TYR69      -0.2866
    101  N         16.4060    3.3280    7.7290 N.am   70  CYS70      -0.1954
    102  CA        17.4720    4.0330    8.4380 C.3    70  CYS70       0.1843
    103  C         18.8050    3.4630    7.9870 C.2    70  CYS70       0.2626
    104  O         19.2090    2.3810    8.4040 O.2    70  CYS70      -0.2714
    105  CB        17.2840    3.8890    9.9580 C.3    70  CYS70       0.0997
    106  SG        15.6930    4.5150   10.5310 S.3    70  CYS70      -0.0797
    107  N         19.4640    4.1890    7.0950 N.am   71  SER71      -0.1936
    108  CA        20.7080    3.7290    6.4730 C.3    71  SER71       0.2055
    109  C         21.9280    3.6090    7.3720 C.2    71  SER71       0.2644
    110  O         22.9040    2.9400    7.0170 O.2    71  SER71      -0.2714
    111  CB        21.0260    4.5730    5.2310 C.3    71  SER71       0.2130
    112  OG        21.2890    5.9190    5.5740 O.3    71  SER71      -0.2179
    113  N         21.8820    4.2570    8.5320 N.am   72  GLY72      -0.1939
    114  CA        22.9980    4.2230    9.4580 C.3    72  GLY72       0.2014
    115  C         23.0100    2.9510   10.3170 C.2    72  GLY72       0.2639
    116  O         23.9570    2.7110   11.0480 O.2    72  GLY72      -0.2714
    117  N         21.9560    2.1510   10.2230 N.am   73  GLY73      -0.1939
    118  CA        21.8830    0.8810   10.9540 C.3    73  GLY73       0.2014
    119  C         21.5640    1.0400   12.4480 C.2    73  GLY73       0.2638
    120  O         21.0200    2.0450   12.8600 O.2    73  GLY73      -0.2714
    121  N         21.9010    0.0200   13.2290 N.am   74  GLU74      -0.1977
    122  CA        21.6020   -0.0020   14.6670 C.3    74  GLU74       0.1602
    123  C         22.6240    0.7340   15.4920 C.2    74  GLU74       0.2287
    124  O         23.8300    0.6510   15.2450 O.2    74  GLU74      -0.2864
    125  CB        21.5580   -1.4430   15.1840 C.3    74  GLU74       0.0415
    126  CG        20.4530   -2.3180   14.6150 C.3    74  GLU74       0.1163
    127  CD        20.6040   -3.7530   15.0550 C.2    74  GLU74       0.3649
    128  OE1       21.4740   -4.0140   15.9090 O.co2  74  GLU74      -0.2457
    129  OE2       19.8580   -4.6190   14.5600 O.co2  74  GLU74      -0.2457
    130  N         19.6160   -2.3140   19.7970 N.3   117  GLU117     -0.1231
    131  CA        19.1900   -3.0290   18.5800 C.3   117  GLU117      0.1699
    132  C         17.9460   -2.3810   17.9410 C.2   117  GLU117      0.2592
    133  O         17.6900   -2.5700   16.7550 O.2   117  GLU117     -0.2718
    134  CB        18.8740   -4.4840   18.9160 C.3   117  GLU117      0.0402
    135  CG        20.0890   -5.2730   19.4200 C.3   117  GLU117      0.1161
    136  CD        20.2150   -5.3010   20.9460 C.2   117  GLU117      0.3649
    137  OE1       19.8960   -4.2800   21.6200 O.co2 117  GLU117     -0.2457
    138  OE2       20.7030   -6.3310   21.4730 O.co2 117  GLU117     -0.2457
    139  N         17.1660   -1.6440   18.7400 N.am  118  ASN118     -0.1974
    140  CA        15.9420   -1.0050   18.2550 C.3   118  ASN118      0.1688
    141  C         16.0890    0.4890   17.9950 C.2   118  ASN118      0.2292
    142  O         15.1550    1.1180   17.5320 O.2   118  ASN118     -0.2864
    143  CB        14.7940   -1.2210   19.2430 C.3   118  ASN118      0.1181
    144  CG        14.2680   -2.6190   19.2020 C.2   118  ASN118      0.2629
    145  OD1       14.2820   -3.2700   18.1510 O.2   118  ASN118     -0.2716
    146  ND2       13.7960   -3.1010   20.3300 N.am  118  ASN118     -0.0877
    147  N         17.7450    3.1500   15.8240 N.3   120  LEU120     -0.1245
    148  CA        18.3710    3.1940   14.5080 C.3   120  LEU120      0.1561
    149  C         18.9270    4.5370   14.1530 C.2   120  LEU120      0.2260
    150  O         18.5750    5.5550   14.7530 O.2   120  LEU120     -0.2867
    151  CB        17.3700    2.7270   13.4510 C.3   120  LEU120      0.0270
    152  CG        16.5930    1.4390   13.7900 C.3   120  LEU120      0.0019
    153  CD1       15.6360    1.0640   12.6580 C.3   120  LEU120      0.0001
    154  CD2       17.5420    0.2700   14.1110 C.3   120  LEU120      0.0001
    155  N         12.6710    2.5110   16.8280 N.3   130  SER130     -0.1202
    156  CA        12.0070    1.5480   15.9570 C.3   130  SER130      0.2020
    157  C         11.3510    0.4000   16.6990 C.2   130  SER130      0.2618
    158  O         11.6800    0.1110   17.8580 O.2   130  SER130     -0.2717
    159  CB        13.0050    0.9860   14.9340 C.3   130  SER130      0.2103
    160  OG        13.8170   -0.0360   15.5240 O.3   130  SER130     -0.2182
    161  N         10.4670   -0.2850   15.9760 N.am  131  ASP131     -0.1973
    162  CA         9.7510   -1.4470   16.4430 C.3   131  ASP131      0.1709
    163  C          8.7650   -1.2350   17.5570 C.2   131  ASP131      0.2293
    164  O          9.1310   -1.1970   18.7200 O.2   131  ASP131     -0.2864
    165  CB        10.6640   -2.6180   16.7360 C.3   131  ASP131      0.1436
    166  CG         9.9740   -3.9410   16.4950 C.2   131  ASP131      0.3671
    167  OD1        8.9630   -4.2040   17.1780 O.co2 131  ASP131     -0.2456
    168  OD2       10.3330   -4.6380   15.5160 O.co2 131  ASP131     -0.2456
@<TRIPOS>BOND
     1     1     2    1
     2     2     5    1
     3     2     3    1
     4     5     6    1
     5     9     7   am
     6     6     7    1
     7     7     8    2
     8     3     4    2
     9    98    96   ar
    10    98    99   ar
    11    96    94   ar
    12   100    99    1
    13    99    97   ar
    14    94    93    1
    15    94    95   ar
    16    42    43    1
    17    93    90    1
    18    97    95   ar
    19   111   112    1
    20   111   108    1
    21    43    44    1
    22    43    46    1
    23    44    45    2
    24    17    15    1
    25    75    74    2
    26    15    16    1
    27    15    14    1
    28    10    11    1
    29    90    89    1
    30    90    91    1
    31    89    82   am
    32    72    73    1
    33   108   107    1
    34   108   109    1
    35    92    91    2
    36    37    38    2
    37    37    36    1
    38    91   101   am
    39    74    73    1
    40    74    80   am
    41   110   109    2
    42    47    48    1
    43    11    14    1
    44    11    12    1
    45   107   103   am
    46    81    82    1
    47    81    80    1
    48    81    84    1
    49    82    83    2
    50   109   113   am
    51    73    76    1
    52    50    49    2
    53    49    48    1
    54   101   102    1
    55    36    35    1
    56    36    39    1
    57   103   104    2
    58   103   102    1
    59    85    84    1
    60    85    86    1
    61    48    51    1
    62    40    39    1
    63    12    18   am
    64    12    13    2
    65   102   105    1
    66   113   114    1
    67    76    77    1
    68    18    19    1
    69    88    86   ar
    70    39    41    1
    71    86    87   ar
    72    77    78    1
    73    77    79    1
    74    51    52    1
    75   114   115    1
    76    21    20    2
    77    19    20    1
    78   105   106    1
    79   117   115   am
    80   117   118    1
    81   115   116    2
    82    20    22   am
    83    52    53    1
    84   118   119    1
    85    70    69    1
    86    30    28   ar
    87    22    23    1
    88    53    54    1
    89    67    66    1
    90    67    68    2
    91    27    28    1
    92    27    26    1
    93    23    26    1
    94    23    24    1
    95    28    29   ar
    96   119   120    2
    97   119   121   am
    98   153   152    1
    99    66    69    1
   100    66    65    1
   101    69    71    1
   102    54    55    1
   103   121   122    1
   104    31    24   am
   105    31    32    1
   106   151   152    1
   107   151   148    1
   108    24    25    2
   109   152   154    1
   110    64    62   ar
   111   149   148    1
   112   149   150    2
   113   148   147    1
   114   129   127   ar
   115    32    33    1
   116    62    61    1
   117    62    63   ar
   118   126   127    1
   119   126   125    1
   120   122   125    1
   121   122   123    1
   122    61    60    1
   123    58    59    2
   124    58    57    1
   125   159   160    1
   126   159   156    1
   127   127   128   ar
   128   124   123    2
   129    33    34    2
   130    60    57    1
   131   168   166   ar
   132    57    56    1
   133   156   157    1
   134   156   155    1
   135   161   162    1
   136   161   157   am
   137   162   165    1
   138   162   163    1
   139   166   165    1
   140   166   167   ar
   141   157   158    2
   142   133   132    2
   143   142   141    2
   144   163   164    2
   145   132   131    1
   146   132   139   am
   147   141   140    1
   148   145   144    2
   149   140   139    1
   150   140   143    1
   151   131   134    1
   152   131   130    1
   153   134   135    1
   154   144   143    1
   155   144   146   am
   156   135   136    1
   157   136   138   ar
   158   136   137   ar
