@<TRIPOS>MOLECULE
tmp/3ot9A00.pdb
 134 121 0 0 0
SMALL
GASTEIGER

@<TRIPOS>ATOM
      1  N         25.2680    9.9930    5.2440 N.3   128  ALA128     -0.1231
      2  CA        25.6290    8.7170    5.8560 C.3   128  ALA128      0.1694
      3  C         24.3910    8.0720    6.4610 C.2   128  ALA128      0.2593
      4  O         23.4490    8.7630    6.8450 O.2   128  ALA128     -0.2718
      5  CB        26.6910    8.9190    6.9330 C.3   128  ALA128      0.0304
      6  N         24.3960    6.7440    6.5450 N.am  129  SER129     -0.1938
      7  CA        23.3970    6.0480    7.3490 C.3   129  SER129      0.2055
      8  C         23.7320    6.2830    8.8260 C.2   129  SER129      0.2643
      9  O         24.8930    6.5370    9.1730 O.2   129  SER129     -0.2714
     10  CB        23.3850    4.5510    7.0320 C.3   129  SER129      0.2130
     11  OG        24.4370    3.8790    7.6960 O.3   129  SER129     -0.2179
     12  N         22.7170    6.2040    9.6850 N.am  130  GLY130     -0.1954
     13  CA        22.9140    6.3130   11.1350 C.3   130  GLY130      0.1869
     14  C         23.9540    5.3520   11.6860 C.2   130  GLY130      0.2309
     15  O         24.7660    5.7240   12.5400 O.2   130  GLY130     -0.2863
     16  N         24.6560   15.1710   10.1560 N.3   150  TYR150     -0.1241
     17  CA        24.7250   14.4460    8.8950 C.3   150  TYR150      0.1605
     18  C         23.4250   14.5450    8.1030 C.2   150  TYR150      0.2264
     19  O         22.4240   15.0860    8.5810 O.2   150  TYR150     -0.2867
     20  CB        25.1600   12.9850    9.1160 C.3   150  TYR150      0.0534
     21  CG        24.2130   12.1200    9.9300 C.ar  150  TYR150     -0.0201
     22  CD1       23.5040   11.0750    9.3310 C.ar  150  TYR150     -0.0009
     23  CD2       24.0540   12.3210   11.3060 C.ar  150  TYR150     -0.0009
     24  CE1       22.6500   10.2570   10.0840 C.ar  150  TYR150      0.0417
     25  CE2       23.1990   11.5160   12.0630 C.ar  150  TYR150      0.0417
     26  CZ        22.5050   10.4900   11.4500 C.ar  150  TYR150      0.1957
     27  OH        21.6670    9.6960   12.2010 O.3   150  TYR150     -0.2866
     28  N         20.9760   12.5620    4.5950 N.3   152  SER152     -0.1217
     29  CA        20.7400   11.3630    3.7980 C.3   152  SER152      0.1889
     30  C         20.6730   11.7970    2.3350 C.2   152  SER152      0.2288
     31  O         21.1600   12.8750    1.9890 O.2   152  SER152     -0.2866
     32  CB        19.4440   10.6850    4.2420 C.3   152  SER152      0.2089
     33  OG        18.3200   11.4890    3.9420 O.3   152  SER152     -0.2183
     34  N         17.8160   12.4740    1.0320 N.3   154  ASP154     -0.1239
     35  CA        16.6730   13.3910    1.0690 C.3   154  ASP154      0.1674
     36  C         17.0020   14.7080    1.7750 C.2   154  ASP154      0.2266
     37  O         18.1140   14.8950    2.2630 O.2   154  ASP154     -0.2867
     38  CB        15.4610   12.7250    1.7370 C.3   154  ASP154      0.1410
     39  CG        14.7940   11.6990    0.8440 C.2   154  ASP154      0.3668
     40  OD1       14.6950   10.5250    1.2560 O.co2 154  ASP154     -0.2456
     41  OD2       14.3760   12.0610   -0.2760 O.co2 154  ASP154     -0.2456
     42  N         17.1350   16.4200    4.6000 N.3   156  VAL156     -0.1245
     43  CA        17.1130   16.3040    6.0620 C.3   156  VAL156      0.1561
     44  C         18.4270   16.7670    6.6830 C.2   156  VAL156      0.2260
     45  O         19.4830   16.6880    6.0600 O.2   156  VAL156     -0.2867
     46  CB        16.7980   14.8490    6.5610 C.3   156  VAL156      0.0252
     47  CG1       15.3990   14.3960    6.1310 C.3   156  VAL156      0.0019
     48  CG2       17.8570   13.8520    6.0870 C.3   156  VAL156      0.0019
     49  N         20.3180   15.8160   10.2310 N.3   158  GLN158     -0.1245
     50  CA        20.2300   14.9120   11.3750 C.3   158  GLN158      0.1566
     51  C         21.3250   15.2360   12.3690 C.2   158  GLN158      0.2260
     52  O         22.4760   15.4300   11.9750 O.2   158  GLN158     -0.2867
     53  CB        20.3510   13.4590   10.9090 C.3   158  GLN158      0.0367
     54  CG        19.4260   13.1150    9.7380 C.3   158  GLN158      0.0905
     55  CD        19.4690   11.6520    9.3650 C.2   158  GLN158      0.2608
     56  OE1       19.0170   10.7970   10.1240 O.2   158  GLN158     -0.2717
     57  NE2       20.0010   11.3540    8.1850 N.am  158  GLN158     -0.0878
     58  N         13.3210   18.6080    6.9320 N.3   191  ARG191     -0.1245
     59  CA        13.1820   17.9910    8.2360 C.3   191  ARG191      0.1563
     60  C         14.4960   18.0210    9.0040 C.2   191  ARG191      0.2260
     61  O         15.5380   17.6600    8.4640 O.2   191  ARG191     -0.2867
     62  CB        12.7340   16.5440    8.0220 C.3   191  ARG191      0.0307
     63  CG        12.3710   15.7630    9.2540 C.3   191  ARG191      0.0489
     64  CD        11.6060   14.5080    8.8220 C.3   191  ARG191      0.2205
     65  NE        10.4150   14.8800    8.0760 N.pl3 191  ARG191     -0.0865
     66  CZ         9.2080   15.0360    8.6110 C.cat 191  ARG191      0.5346
     67  NH1        9.0070   14.8180    9.9080 N.pl3 191  ARG191      0.1354
     68  NH2        8.1980   15.4010    7.8400 N.pl3 191  ARG191      0.1354
     69  N         16.1750   16.1890   12.2740 N.3   193  ILE193     -0.1245
     70  CA        15.8960   14.9940   13.0820 C.3   193  ILE193      0.1561
     71  C         16.8910   14.8460   14.2340 C.2   193  ILE193      0.2260
     72  O         18.1030   14.8100   14.0160 O.2   193  ILE193     -0.2867
     73  CB        15.8740   13.6890   12.2270 C.3   193  ILE193      0.0252
     74  CG1       14.9300   13.8340   11.0190 C.3   193  ILE193      0.0019
     75  CG2       15.4690   12.4820   13.0930 C.3   193  ILE193      0.0019
     76  CD1       15.0580   12.7200    9.9810 C.3   193  ILE193      0.0001
     77  N         18.7320   12.5650   16.6900 N.3   195  ARG195     -0.1245
     78  CA        19.1400   11.1640   16.6360 C.3   195  ARG195      0.1563
     79  C         19.9320   10.7760   17.8850 C.2   195  ARG195      0.2260
     80  O         21.1370   10.5200   17.7930 O.2   195  ARG195     -0.2867
     81  CB        19.9860   10.8950   15.3820 C.3   195  ARG195      0.0307
     82  CG        19.2310   11.0150   14.0500 C.3   195  ARG195      0.0489
     83  CD        18.2470    9.8730   13.8470 C.3   195  ARG195      0.2205
     84  NE        17.7320    9.8590   12.4840 N.pl3 195  ARG195     -0.0865
     85  CZ        16.9640    8.9040   11.9740 C.cat 195  ARG195      0.5346
     86  NH1       16.6010    7.8570   12.7080 N.pl3 195  ARG195      0.1354
     87  NH2       16.5670    8.9930   10.7150 N.pl3 195  ARG195      0.1354
     88  N         20.8610    3.7670   18.0750 N.3   206  ARG206     -0.1245
     89  CA        19.9550    4.9030   18.1510 C.3   206  ARG206      0.1563
     90  C         18.7340    4.5120   18.9820 C.2   206  ARG206      0.2260
     91  O         18.2600    3.3760   18.9070 O.2   206  ARG206     -0.2867
     92  CB        19.5370    5.3450   16.7490 C.3   206  ARG206      0.0307
     93  CG        20.6330    6.0950   15.9770 C.3   206  ARG206      0.0489
     94  CD        20.3050    6.1890   14.4970 C.3   206  ARG206      0.2205
     95  NE        20.3160    4.8720   13.8680 N.pl3 206  ARG206     -0.0865
     96  CZ        19.7930    4.5970   12.6780 C.cat 206  ARG206      0.5346
     97  NH1       19.2080    5.5510   11.9660 N.pl3 206  ARG206      0.1354
     98  NH2       19.8540    3.3610   12.1990 N.pl3 206  ARG206      0.1354
     99  N         14.2330    9.5790   19.2990 N.3   210  ARG210     -0.1245
    100  CA        14.2540   10.3470   18.0750 C.3   210  ARG210      0.1563
    101  C         13.0320   11.2600   17.9940 C.2   210  ARG210      0.2260
    102  O         11.9180   10.8420   18.3160 O.2   210  ARG210     -0.2867
    103  CB        14.2500    9.3830   16.8920 C.3   210  ARG210      0.0307
    104  CG        14.0240   10.0480   15.5590 C.3   210  ARG210      0.0489
    105  CD        13.3810    9.1030   14.6010 C.3   210  ARG210      0.2205
    106  NE        12.9860    9.8050   13.3900 N.pl3 210  ARG210     -0.0865
    107  CZ        12.9030    9.2370   12.1970 C.cat 210  ARG210      0.5346
    108  NH1       12.5350    9.9640   11.1520 N.pl3 210  ARG210      0.1354
    109  NH2       13.1860    7.9470   12.0480 N.pl3 210  ARG210      0.1354
    110  N          3.9380    7.7720    5.9250 N.3   238  LYS238     -0.1245
    111  CA         4.6390    9.0550    6.0900 C.3   238  LYS238      0.1561
    112  C          3.7450   10.2860    5.8850 C.2   238  LYS238      0.2260
    113  O          4.1820   11.4160    6.1060 O.2   238  LYS238     -0.2867
    114  CB         5.8330    9.1440    5.1140 C.3   238  LYS238      0.0271
    115  CG         6.9770    8.1440    5.3610 C.3   238  LYS238      0.0035
    116  CD         7.5110    8.2270    6.7590 C.3   238  LYS238      0.0206
    117  CE         8.8490    7.5090    6.8920 C.3   238  LYS238      0.1093
    118  NZ         9.3520    7.6670    8.2780 N.3   238  LYS238     -0.1314
    119  N         12.7530    5.1750   -0.7030 N.3   285  ALA285     -0.1245
    120  CA        13.7430    5.0570    0.3720 C.3   285  ALA285      0.1562
    121  C         14.7060    3.8810    0.2070 C.2   285  ALA285      0.2260
    122  O         15.9060    4.0130    0.4530 O.2   285  ALA285     -0.2867
    123  CB        13.0400    4.9920    1.7280 C.3   285  ALA285      0.0290
    124  N         18.9580    4.2870   -3.5080 N.3   290  ARG290     -0.1245
    125  CA        20.0510    3.3150   -3.4990 C.3   290  ARG290      0.1563
    126  C         20.3810    2.8240   -4.9130 C.2   290  ARG290      0.2260
    127  O         21.2610    1.9920   -5.0920 O.2   290  ARG290     -0.2867
    128  CB        19.7230    2.1400   -2.5590 C.3   290  ARG290      0.0307
    129  CG        19.5480    2.5790   -1.0960 C.3   290  ARG290      0.0489
    130  CD        19.2870    1.4180   -0.1410 C.3   290  ARG290      0.2205
    131  NE        18.9650    1.9170    1.1990 N.pl3 290  ARG290     -0.0865
    132  CZ        18.5830    1.1620    2.2310 C.cat 290  ARG290      0.5346
    133  NH1       18.4580   -0.1550    2.1050 N.pl3 290  ARG290      0.1354
    134  NH2       18.3170    1.7350    3.3980 N.pl3 290  ARG290      0.1354
@<TRIPOS>BOND
     1   127   126    2
     2   126   125    1
     3   124   125    1
     4   125   128    1
     5   128   129    1
     6   129   130    1
     7   119   120    1
     8    41    39   ar
     9   130   131    1
    10   121   120    1
    11   121   122    2
    12   120   123    1
    13    39    40   ar
    14    39    38    1
    15    34    35    1
    16    35    38    1
    17    35    36    1
    18   131   132    2
    19    36    37    2
    20    31    30    2
    21   133   132    1
    22   132   134    1
    23    30    29    1
    24    29    32    1
    25    29    28    1
    26    33    32    1
    27    42    43    1
    28   114   115    1
    29   114   111    1
    30     1     2    1
    31   115   116    1
    32     2     3    1
    33     2     5    1
    34   112   111    1
    35   112   113    2
    36   110   111    1
    37    45    44    2
    38    43    46    1
    39    43    44    1
    40    48    46    1
    41    47    46    1
    42     3     6   am
    43     3     4    2
    44     6     7    1
    45   116   117    1
    46   117   118    1
    47    58    59    1
    48    10     7    1
    49    10    11    1
    50     7     8    1
    51    68    66    1
    52    62    59    1
    53    62    63    1
    54    65    66    2
    55    65    64    1
    56    18    19    2
    57    18    17    1
    58    57    55   am
    59    59    60    1
    60    61    60    2
    61    66    67    1
    62    64    63    1
    63     8     9    2
    64     8    12   am
    65    17    20    1
    66    17    16    1
    67    20    21    1
    68    22    21   ar
    69    22    24   ar
    70    55    54    1
    71    55    56    2
    72    12    13    1
    73    54    53    1
    74    21    23   ar
    75    76    74    1
    76    24    26   ar
    77    49    50    1
    78    87    85    1
    79    53    50    1
    80    74    73    1
    81    13    14    1
    82   108   107    1
    83    23    25   ar
    84    50    51    1
    85    26    25   ar
    86    26    27    1
    87    14    15    2
    88    97    96    1
    89    85    84    2
    90    85    86    1
    91    52    51    2
    92   109   107    1
    93   107   106    2
    94    98    96    1
    95    73    70    1
    96    73    75    1
    97    69    70    1
    98    84    83    1
    99    96    95    2
   100    70    71    1
   101   106   105    1
   102    83    82    1
   103    95    94    1
   104    72    71    2
   105    82    81    1
   106    94    93    1
   107   105   104    1
   108    81    78    1
   109   104   103    1
   110    93    92    1
   111    78    77    1
   112    78    79    1
   113    92    89    1
   114   103   100    1
   115    80    79    2
   116   101   100    1
   117   101   102    2
   118   100    99    1
   119    88    89    1
   120    89    90    1
   121    91    90    2
