@<TRIPOS>MOLECULE
tmp/3otbA00.pdb
 132 131 0 0 0
SMALL
GASTEIGER

@<TRIPOS>ATOM
      1  N        -33.0300    3.8410   22.5840 N.3    26  ASP26      -0.1225
      2  CA       -32.4320    2.5290   22.7890 C.3    26  ASP26       0.1805
      3  C        -32.4230    2.2100   24.2770 C.2    26  ASP26       0.2598
      4  O        -31.7820    2.9120   25.0810 O.2    26  ASP26      -0.2718
      5  CB       -31.0060    2.4600   22.2200 C.3    26  ASP26       0.1424
      6  CG       -30.3370    1.0920   22.4430 C.2    26  ASP26       0.3668
      7  OD1      -29.8590    0.8260   23.5750 O.co2  26  ASP26      -0.2456
      8  OD2      -30.2910    0.2850   21.4810 O.co2  26  ASP26      -0.2456
      9  N        -33.1440    1.1400   24.6250 N.am   27  GLY27      -0.1942
     10  CA       -33.2500    0.6990   26.0040 C.3    27  GLY27       0.2014
     11  C        -31.9340    0.6220   26.7510 C.2    27  GLY27       0.2639
     12  O        -30.9290    0.1420   26.2430 O.2    27  GLY27      -0.2714
     13  N        -31.9420    1.1140   27.9760 N.am   28  ARG28      -0.1963
     14  CA       -30.7600    1.0760   28.8200 C.3    28  ARG28       0.1729
     15  C        -30.6090   -0.2970   29.4590 C.2    28  ARG28       0.2616
     16  O        -31.5820   -0.9630   29.8330 O.2    28  ARG28      -0.2715
     17  CB       -30.8650    2.1210   29.9380 C.3    28  ARG28       0.0348
     18  CG       -29.6410    2.1560   30.8520 C.3    28  ARG28       0.0492
     19  CD       -29.8470    3.0940   32.0290 C.3    28  ARG28       0.2205
     20  NE       -28.6450    3.2790   32.8430 N.pl3  28  ARG28      -0.0865
     21  CZ       -28.6500    3.8360   34.0560 C.cat  28  ARG28       0.5346
     22  NH1      -29.8050    4.2490   34.5910 N.pl3  28  ARG28       0.1354
     23  NH2      -27.5080    4.0170   34.7250 N.pl3  28  ARG28       0.1354
     24  N        -29.3700   -0.7160   29.5910 N.am   29  ASN29      -0.1958
     25  CA       -29.0630   -1.9860   30.2120 C.3    29  ASN29       0.1819
     26  C        -30.0590   -3.1100   29.9010 C.2    29  ASN29       0.2621
     27  O        -30.2200   -4.0350   30.6870 O.2    29  ASN29      -0.2715
     28  CB       -28.9600   -1.7790   31.7120 C.3    29  ASN29       0.1195
     29  CG       -28.1600   -2.8570   32.3810 C.2    29  ASN29       0.2630
     30  OD1      -27.8690   -2.7770   33.5690 O.2    29  ASN29      -0.2716
     31  ND2      -27.7940   -3.8800   31.6230 N.am   29  ASN29      -0.0877
     32  N        -30.7120   -3.0300   28.7460 N.am   30  PHE30      -0.1960
     33  CA       -31.6650   -4.0500   28.3100 C.3    30  PHE30       0.1771
     34  C        -31.1020   -5.4710   28.2340 C.2    30  PHE30       0.2619
     35  O        -31.8570   -6.4410   28.2340 O.2    30  PHE30      -0.2715
     36  CB       -32.2230   -3.6860   26.9500 C.3    30  PHE30       0.0574
     37  CG       -33.6570   -3.3570   26.9800 C.ar   30  PHE30      -0.0200
     38  CD1      -34.1710   -2.5410   27.9850 C.ar   30  PHE30      -0.0042
     39  CD2      -34.5050   -3.8240   25.9840 C.ar   30  PHE30      -0.0042
     40  CE1      -35.5260   -2.1900   27.9890 C.ar   30  PHE30      -0.0003
     41  CE2      -35.8670   -3.4820   25.9710 C.ar   30  PHE30      -0.0003
     42  CZ       -36.3790   -2.6630   26.9730 C.ar   30  PHE30      -0.0000
     43  N        -29.7880   -5.6000   28.1150 N.am   31  HIS31      -0.1973
     44  CA       -29.1950   -6.9170   28.0800 C.3    31  HIS31       0.1656
     45  C        -29.6350   -7.5790   29.3970 C.2    31  HIS31       0.2291
     46  O        -30.1390   -8.7090   29.4010 O.2    31  HIS31      -0.2864
     47  CB       -27.6800   -6.8090   28.0330 C.3    31  HIS31       0.0771
     48  CG       -26.9860   -8.1290   28.1110 C.ar   31  HIS31       0.0820
     49  ND1      -27.0070   -9.0430   27.0780 N.ar   31  HIS31      -0.2267
     50  CD2      -26.2820   -8.7090   29.1140 C.ar   31  HIS31       0.1154
     51  CE1      -26.3470  -10.1280   27.4420 C.ar   31  HIS31       0.1986
     52  NE2      -25.8980   -9.9510   28.6720 N.ar   31  HIS31      -0.2212
     53  N        -33.6930   -8.1930   29.4700 N.3    34  ALA34      -0.1245
     54  CA       -34.1530   -9.3790   28.7460 C.3    34  ALA34       0.1562
     55  C        -33.8840  -10.6310   29.5750 C.2    34  ALA34       0.2260
     56  O        -34.6540  -11.5840   29.5480 O.2    34  ALA34      -0.2867
     57  CB       -33.4490   -9.4760   27.4000 C.3    34  ALA34       0.0290
     58  N        -36.2600  -13.3540   27.9600 N.3    39  PHE39      -0.1227
     59  CA       -36.5360  -13.0610   26.5660 C.3    39  PHE39       0.1736
     60  C        -36.0300  -14.2210   25.7330 C.2    39  PHE39       0.2595
     61  O        -35.0310  -14.8750   26.0740 O.2    39  PHE39      -0.2718
     62  CB       -35.8500  -11.7590   26.1340 C.3    39  PHE39       0.0547
     63  CG       -36.6120  -10.5140   26.5000 C.ar   39  PHE39      -0.0202
     64  CD1      -36.9940  -10.2740   27.8100 C.ar   39  PHE39      -0.0042
     65  CD2      -36.9420   -9.5760   25.5290 C.ar   39  PHE39      -0.0042
     66  CE1      -37.6940   -9.1160   28.1480 C.ar   39  PHE39      -0.0003
     67  CE2      -37.6400   -8.4180   25.8590 C.ar   39  PHE39      -0.0003
     68  CZ       -38.0170   -8.1880   27.1670 C.ar   39  PHE39      -0.0000
     69  N        -36.7330  -14.4690   24.6380 N.am   40  ALA40      -0.1966
     70  CA       -36.3870  -15.5500   23.7410 C.3    40  ALA40       0.1728
     71  C        -35.2250  -15.1750   22.8200 C.2    40  ALA40       0.2616
     72  O        -35.2050  -14.0760   22.2410 O.2    40  ALA40      -0.2715
     73  CB       -37.6100  -15.9340   22.9160 C.3    40  ALA40       0.0334
     74  N        -34.2570  -16.0870   22.7080 N.am   41  LYS41      -0.1964
     75  CA       -33.1100  -15.8950   21.8300 C.3    41  LYS41       0.1713
     76  C        -33.4200  -16.6300   20.5210 C.2    41  LYS41       0.2458
     77  O        -33.9910  -17.7200   20.5310 O.2    41  LYS41      -0.2730
     78  CB       -31.8430  -16.4930   22.4380 C.3    41  LYS41       0.0311
     79  CG       -31.4850  -15.9930   23.8080 C.3    41  LYS41       0.0038
     80  CD       -32.3050  -16.6810   24.8710 C.3    41  LYS41       0.0206
     81  CE       -31.7990  -16.2970   26.2530 C.3    41  LYS41       0.1093
     82  NZ       -30.3170  -16.4430   26.3510 N.3    41  LYS41      -0.1314
     83  N        -33.0700  -16.0320   19.3730 N.am   42  PRO42      -0.2716
     84  CA       -32.4180  -14.7250   19.2400 C.3    42  PRO42       0.1536
     85  C        -33.4590  -13.6100   19.1500 C.2    42  PRO42       0.2599
     86  O        -33.1300  -12.4320   19.1960 O.2    42  PRO42      -0.2715
     87  CB       -31.6190  -14.8800   17.9470 C.3    42  PRO42       0.0310
     88  CG       -32.5190  -15.7450   17.1130 C.3    42  PRO42       0.0237
     89  CD       -33.0090  -16.7860   18.1050 C.3    42  PRO42       0.0939
     90  N        -34.7180  -14.0110   19.0210 N.am   43  ASN43      -0.1959
     91  CA       -35.8390  -13.0850   18.9050 C.3    43  ASN43       0.1819
     92  C        -36.9380  -13.4810   19.8900 C.2    43  ASN43       0.2621
     93  O        -37.0870  -14.6520   20.2200 O.2    43  ASN43      -0.2715
     94  CB       -36.3800  -13.1110   17.4710 C.3    43  ASN43       0.1195
     95  CG       -35.3180  -12.7460   16.4390 C.2    43  ASN43       0.2630
     96  OD1      -35.1940  -11.5910   16.0230 O.2    43  ASN43      -0.2716
     97  ND2      -34.5360  -13.7330   16.0310 N.am   43  ASN43      -0.0877
     98  N        -37.6990  -12.4970   20.3610 N.am   44  ASP44      -0.1971
     99  CA       -38.7850  -12.7270   21.3180 C.3    44  ASP44       0.1709
    100  C        -40.0300  -11.9470   20.8610 C.2    44  ASP44       0.2293
    101  O        -40.2170  -10.7940   21.2390 O.2    44  ASP44      -0.2864
    102  CB       -38.3360  -12.2700   22.7180 C.3    44  ASP44       0.1436
    103  CG       -39.3770  -12.5350   23.7900 C.2    44  ASP44       0.3671
    104  OD1      -40.5200  -12.0490   23.6590 O.co2  44  ASP44      -0.2456
    105  OD2      -39.0460  -13.2280   24.7740 O.co2  44  ASP44      -0.2456
    106  N        -41.4020   -8.9850   23.0620 N.3    47  ALA47      -0.1231
    107  CA       -40.5670   -7.7860   23.1030 C.3    47  ALA47       0.1694
    108  C        -40.7170   -6.9140   21.8470 C.2    47  ALA47       0.2591
    109  O        -41.1510   -5.7620   21.9200 O.2    47  ALA47      -0.2718
    110  CB       -39.1230   -8.1850   23.2710 C.3    47  ALA47       0.0304
    111  N        -40.3410   -7.4650   20.7000 N.am   48  LEU48      -0.1980
    112  CA       -40.4340   -6.7480   19.4350 C.3    48  LEU48       0.1596
    113  C        -41.7800   -6.0690   19.1890 C.2    48  LEU48       0.2287
    114  O        -41.8290   -4.9630   18.6370 O.2    48  LEU48      -0.2864
    115  CB       -40.1580   -7.6960   18.2640 C.3    48  LEU48       0.0297
    116  CG       -38.7230   -8.0710   17.9090 C.3    48  LEU48       0.0022
    117  CD1      -38.7500   -9.0540   16.7430 C.3    48  LEU48       0.0001
    118  CD2      -37.9420   -6.8190   17.5380 C.3    48  LEU48       0.0001
    119  N        -34.0660   -4.7450   17.6990 N.3    72  SER72      -0.1202
    120  CA       -33.4640   -4.9240   19.0120 C.3    72  SER72       0.2020
    121  C        -34.1260   -4.0060   20.0570 C.2    72  SER72       0.2618
    122  O        -35.3420   -3.7590   19.9980 O.2    72  SER72      -0.2717
    123  CB       -31.9620   -4.6700   18.9410 C.3    72  SER72       0.2103
    124  OG       -31.3390   -4.9920   20.1760 O.3    72  SER72      -0.2182
    125  N        -33.3400   -3.4910   21.0020 N.am   73  ASP73      -0.1973
    126  CA       -33.9020   -2.6290   22.0310 C.3    73  ASP73       0.1709
    127  C        -33.9570   -1.1750   21.5810 C.2    73  ASP73       0.2293
    128  O        -33.6610   -0.2690   22.3670 O.2    73  ASP73      -0.2864
    129  CB       -33.0870   -2.7410   23.3280 C.3    73  ASP73       0.1436
    130  CG       -31.7480   -2.0370   23.2510 C.2    73  ASP73       0.3671
    131  OD1      -31.1420   -1.7760   24.3180 O.co2  73  ASP73      -0.2456
    132  OD2      -31.2960   -1.7460   22.1220 O.co2  73  ASP73      -0.2456
@<TRIPOS>BOND
     1    96    95    2
     2    97    95   am
     3    95    94    1
     4   117   116    1
     5    88    87    1
     6    88    89    1
     7    94    91    1
     8   118   116    1
     9   119   120    1
    10   116   115    1
    11    87    84    1
    12    89    83    1
    13   115   112    1
    14   114   113    2
    15    91    90    1
    16    91    92    1
    17   123   120    1
    18   123   124    1
    19   120   121    1
    20    90    85   am
    21    85    86    2
    22    85    84    1
    23   113   112    1
    24    84    83    1
    25    83    76   am
    26   112   111    1
    27    92    93    2
    28    92    98   am
    29   122   121    2
    30   121   125   am
    31    98    99    1
    32    76    77    2
    33    76    75    1
    34   111   108   am
    35   100   101    2
    36   100    99    1
    37   125   126    1
    38    99   102    1
    39     8     6   ar
    40   127   126    1
    41   127   128    2
    42    75    78    1
    43    75    74    1
    44   108   109    2
    45   108   107    1
    46   126   129    1
    47   132   130   ar
    48     5     6    1
    49     5     2    1
    50    72    71    2
    51    78    79    1
    52     6     7   ar
    53     1     2    1
    54    74    71   am
    55   102   103    1
    56     2     3    1
    57    71    70    1
    58    73    70    1
    59   106   107    1
    60   107   110    1
    61   130   129    1
    62   130   131   ar
    63   104   103   ar
    64    70    69    1
    65   103   105   ar
    66    79    80    1
    67     3     9   am
    68     3     4    2
    69     9    10    1
    70    69    60   am
    71    80    81    1
    72    65    67   ar
    73    65    63   ar
    74    60    61    2
    75    60    59    1
    76    67    68   ar
    77    41    39   ar
    78    41    42   ar
    79    39    37   ar
    80    10    11    1
    81    62    63    1
    82    62    59    1
    83    12    11    2
    84    81    82    1
    85    63    64   ar
    86    59    58    1
    87    11    13   am
    88    36    37    1
    89    36    33    1
    90    42    40   ar
    91    37    38   ar
    92    49    51   ar
    93    49    48   ar
    94    68    66   ar
    95    57    54    1
    96    51    52   ar
    97    64    66   ar
    98    13    14    1
    99    38    40   ar
   100    47    44    1
   101    47    48    1
   102    44    43    1
   103    44    45    1
   104    48    50   ar
   105    43    34   am
   106    35    34    2
   107    34    33    1
   108    33    32    1
   109    52    50   ar
   110    32    26   am
   111    54    53    1
   112    54    55    1
   113    14    15    1
   114    14    17    1
   115    45    46    2
   116    15    24   am
   117    15    16    2
   118    56    55    2
   119    24    25    1
   120    26    25    1
   121    26    27    2
   122    17    18    1
   123    25    28    1
   124    18    19    1
   125    31    29   am
   126    28    29    1
   127    19    20    1
   128    29    30    2
   129    20    21    2
   130    21    22    1
   131    21    23    1
