@<TRIPOS>MOLECULE
tmp/3othA01.pdb
 216 207 0 0 0
SMALL
GASTEIGER

@<TRIPOS>ATOM
      1  N        -10.7340   -2.2060   46.9930 N.3    14  LEU14      -0.1245
      2  CA        -9.4350   -2.7350   47.3910 C.3    14  LEU14       0.1561
      3  C         -8.4290   -2.5230   46.2650 C.2    14  LEU14       0.2260
      4  O         -8.8110   -2.4050   45.1010 O.2    14  LEU14      -0.2867
      5  CB        -9.5400   -4.2210   47.7510 C.3    14  LEU14       0.0270
      6  CG       -10.3250   -4.5580   49.0220 C.3    14  LEU14       0.0019
      7  CD1      -10.2700   -6.0490   49.3110 C.3    14  LEU14       0.0001
      8  CD2       -9.7990   -3.7600   50.2080 C.3    14  LEU14       0.0001
      9  N         -6.4680   -4.0680   44.2300 N.3    16  THR16      -0.1218
     10  CA        -6.0680   -5.1040   43.2790 C.3    16  THR16       0.1862
     11  C         -6.9650   -5.0720   42.0430 C.2    16  THR16       0.2287
     12  O         -8.0870   -4.5690   42.0960 O.2    16  THR16      -0.2866
     13  CB        -6.1230   -6.5100   43.9020 C.3    16  THR16       0.1770
     14  OG1       -7.4850   -6.8740   44.1570 O.3    16  THR16      -0.2211
     15  CG2       -5.3320   -6.5590   45.2000 C.3    16  THR16       0.0375
     16  N         -8.6270   -7.4080   40.5190 N.3    18  GLY18      -0.1210
     17  CA        -9.8490   -8.1730   40.6900 C.3    18  GLY18       0.1956
     18  C        -10.9310   -7.4390   41.4590 C.2    18  GLY18       0.2611
     19  O        -12.1090   -7.7930   41.3810 O.2    18  GLY18      -0.2717
     20  N        -10.5380   -6.4100   42.2010 N.am   19  HIS19      -0.1975
     21  CA       -11.4900   -5.6690   43.0200 C.3    19  HIS19       0.1656
     22  C        -11.7510   -4.2640   42.4950 C.2    19  HIS19       0.2291
     23  O        -12.7680   -3.6510   42.8200 O.2    19  HIS19      -0.2864
     24  CB       -11.0150   -5.6100   44.4690 C.3    19  HIS19       0.0771
     25  CG       -11.0990   -6.9230   45.1780 C.ar   19  HIS19       0.0820
     26  ND1      -12.1330   -7.2420   46.0310 N.ar   19  HIS19      -0.2267
     27  CD2      -10.2860   -8.0050   45.1510 C.ar   19  HIS19       0.1154
     28  CE1      -11.9500   -8.4610   46.5050 C.ar   19  HIS19       0.1986
     29  NE2      -10.8370   -8.9470   45.9850 N.ar   19  HIS19      -0.2212
     30  N         -1.2400   -6.4050   49.0280 N.3    62  VAL62      -0.1231
     31  CA        -1.6560   -7.5860   49.7770 C.3    62  VAL62       0.1692
     32  C         -0.5000   -8.1710   50.5830 C.2    62  VAL62       0.2592
     33  O         -0.6500   -8.4790   51.7650 O.2    62  VAL62      -0.2718
     34  CB        -2.2260   -8.6750   48.8410 C.3    62  VAL62       0.0266
     35  CG1       -2.5050   -9.9490   49.6190 C.3    62  VAL62       0.0020
     36  CG2       -3.4900   -8.1770   48.1530 C.3    62  VAL62       0.0020
     37  N          0.6500   -8.3160   49.9330 N.am   63  PHE63      -0.1976
     38  CA         1.8530   -8.8220   50.5830 C.3    63  PHE63       0.1639
     39  C          2.1190   -8.1130   51.9100 C.2    63  PHE63       0.2290
     40  O          2.3330   -8.7610   52.9390 O.2    63  PHE63      -0.2864
     41  CB         3.0550   -8.6690   49.6490 C.3    63  PHE63       0.0560
     42  CG         4.3760   -8.9590   50.3020 C.ar   63  PHE63      -0.0200
     43  CD1        4.8150  -10.2640   50.4620 C.ar   63  PHE63      -0.0042
     44  CD2        5.1860   -7.9270   50.7430 C.ar   63  PHE63      -0.0042
     45  CE1        6.0340  -10.5320   51.0580 C.ar   63  PHE63      -0.0003
     46  CE2        6.4050   -8.1880   51.3390 C.ar   63  PHE63      -0.0003
     47  CZ         6.8300   -9.4930   51.4980 C.ar   63  PHE63      -0.0000
     48  N         -0.2580   -9.1740   54.6090 N.3    66  PHE66      -0.1227
     49  CA         0.0420  -10.4620   55.2260 C.3    66  PHE66       0.1736
     50  C          1.2440  -10.3840   56.1670 C.2    66  PHE66       0.2595
     51  O          1.3600  -11.1840   57.0930 O.2    66  PHE66      -0.2718
     52  CB         0.2510  -11.5490   54.1660 C.3    66  PHE66       0.0547
     53  CG        -1.0290  -12.1690   53.6710 C.ar   66  PHE66      -0.0202
     54  CD1       -1.6550  -13.1690   54.3960 C.ar   66  PHE66      -0.0042
     55  CD2       -1.6020  -11.7570   52.4790 C.ar   66  PHE66      -0.0042
     56  CE1       -2.8280  -13.7430   53.9460 C.ar   66  PHE66      -0.0003
     57  CE2       -2.7780  -12.3270   52.0240 C.ar   66  PHE66      -0.0003
     58  CZ        -3.3920  -13.3220   52.7590 C.ar   66  PHE66      -0.0000
     59  N          2.1370   -9.4280   55.9270 N.am   67  LEU67      -0.1980
     60  CA         3.2550   -9.2000   56.8370 C.3    67  LEU67       0.1596
     61  C          2.7230   -8.6770   58.1590 C.2    67  LEU67       0.2287
     62  O          3.1560   -9.1020   59.2290 O.2    67  LEU67      -0.2864
     63  CB         4.2440   -8.1940   56.2510 C.3    67  LEU67       0.0297
     64  CG         5.1580   -8.7000   55.1380 C.3    67  LEU67       0.0022
     65  CD1        6.0280   -7.5640   54.6240 C.3    67  LEU67       0.0001
     66  CD2        6.0100   -9.8630   55.6320 C.3    67  LEU67       0.0001
     67  N          0.8640  -11.4520   59.7860 N.3    70  LEU70      -0.1245
     68  CA         1.8910  -12.3910   60.2150 C.3    70  LEU70       0.1561
     69  C          2.4340  -11.9850   61.5810 C.2    70  LEU70       0.2260
     70  O          2.5940  -12.8200   62.4730 O.2    70  LEU70      -0.2867
     71  CB         3.0180  -12.4300   59.1800 C.3    70  LEU70       0.0270
     72  CG         3.6800  -13.7710   58.8620 C.3    70  LEU70       0.0019
     73  CD1        2.6630  -14.8930   58.9130 C.3    70  LEU70       0.0001
     74  CD2        4.3370  -13.7140   57.4880 C.3    70  LEU70       0.0001
     75  N          6.7390  -16.4120   57.0180 N.3    79  PRO79      -0.2116
     76  CA         5.7610  -17.4990   57.0950 C.3    79  PRO79       0.1372
     77  C          6.4450  -18.8480   57.2600 C.2    79  PRO79       0.2244
     78  O          5.7670  -19.8650   57.4100 O.2    79  PRO79      -0.2868
     79  CB         5.0750  -17.4370   55.7320 C.3    79  PRO79       0.0268
     80  CG         6.1420  -16.9390   54.8200 C.3    79  PRO79       0.0207
     81  CD         6.9690  -15.9740   55.6300 C.3    79  PRO79       0.0892
     82  N          0.2050  -24.7590   56.4880 N.3    84  PRO84      -0.2116
     83  CA        -0.8640  -24.1610   55.6810 C.3    84  PRO84       0.1372
     84  C         -2.1410  -23.9100   56.4840 C.2    84  PRO84       0.2244
     85  O         -2.9620  -23.0890   56.0790 O.2    84  PRO84      -0.2868
     86  CB        -1.1100  -25.2180   54.6050 C.3    84  PRO84       0.0268
     87  CG         0.2160  -25.8730   54.4380 C.3    84  PRO84       0.0207
     88  CD         0.8180  -25.9180   55.8150 C.3    84  PRO84       0.0892
     89  N         -1.3750  -20.5300   58.4050 N.3    87  LEU87      -0.1231
     90  CA        -1.3740  -19.4490   57.4300 C.3    87  LEU87       0.1693
     91  C         -2.7920  -19.1250   56.9560 C.2    87  LEU87       0.2592
     92  O         -3.0750  -18.0030   56.5330 O.2    87  LEU87      -0.2718
     93  CB        -0.4820  -19.8150   56.2420 C.3    87  LEU87       0.0284
     94  CG         1.0080  -19.9950   56.5440 C.3    87  LEU87       0.0019
     95  CD1        1.7250  -20.6580   55.3770 C.3    87  LEU87       0.0001
     96  CD2        1.6550  -18.6590   56.8890 C.3    87  LEU87       0.0001
     97  N         -3.6830  -20.1070   57.0320 N.am   88  SER88      -0.1952
     98  CA        -5.0620  -19.9070   56.6030 C.3    88  SER88       0.1924
     99  C         -5.8580  -19.0970   57.6220 C.2    88  SER88       0.2314
    100  O         -7.0410  -18.8300   57.4220 O.2    88  SER88      -0.2863
    101  CB        -5.7470  -21.2480   56.3400 C.3    88  SER88       0.2116
    102  OG        -5.1540  -21.9080   55.2360 O.3    88  SER88      -0.2180
    103  N         -4.7450  -16.1090   58.5290 N.3    90  LEU90      -0.1231
    104  CA        -4.3300  -14.7330   58.2640 C.3    90  LEU90       0.1678
    105  C         -5.3100  -13.8920   57.4320 C.2    90  LEU90       0.2434
    106  O         -5.5150  -12.7160   57.7300 O.2    90  LEU90      -0.2733
    107  CB        -2.9440  -14.7180   57.6130 C.3    90  LEU90       0.0284
    108  CG        -1.8200  -15.3770   58.4170 C.3    90  LEU90       0.0019
    109  CD1       -0.5010  -15.2770   57.6670 C.3    90  LEU90       0.0001
    110  CD2       -1.7080  -14.7550   59.8040 C.3    90  LEU90       0.0001
    111  N         -5.9080  -14.4850   56.3830 N.am   91  PRO91      -0.2729
    112  CA        -6.7900  -13.7220   55.4900 C.3    91  PRO91       0.1401
    113  C         -7.8210  -12.8560   56.2210 C.2    91  PRO91       0.2269
    114  O         -8.0050  -11.6980   55.8420 O.2    91  PRO91      -0.2865
    115  CB        -7.4870  -14.8160   54.6820 C.3    91  PRO91       0.0296
    116  CG        -6.4770  -15.9020   54.6090 C.3    91  PRO91       0.0237
    117  CD        -5.7610  -15.8840   55.9370 C.3    91  PRO91       0.0939
    118  N         -7.9190   -8.7630   55.5250 N.3    95  PHE95      -0.1241
    119  CA        -9.0180   -8.0770   54.8460 C.3    95  PHE95       0.1605
    120  C        -10.1530   -7.6910   55.7870 C.2    95  PHE95       0.2264
    121  O        -11.0470   -6.9290   55.4150 O.2    95  PHE95      -0.2867
    122  CB        -9.5590   -8.9420   53.7080 C.3    95  PHE95       0.0534
    123  CG        -8.5120   -9.3530   52.7230 C.ar   95  PHE95      -0.0203
    124  CD1       -8.1280   -8.4950   51.7080 C.ar   95  PHE95      -0.0042
    125  CD2       -7.8960  -10.5900   52.8210 C.ar   95  PHE95      -0.0042
    126  CE1       -7.1530   -8.8660   50.8010 C.ar   95  PHE95      -0.0003
    127  CE2       -6.9240  -10.9660   51.9200 C.ar   95  PHE95      -0.0003
    128  CZ        -6.5510  -10.1040   50.9080 C.ar   95  PHE95      -0.0000
    129  N        -15.8340   -5.9190   49.1940 N.3   124  SER124     -0.1217
    130  CA       -14.7850   -6.3540   50.1130 C.3   124  SER124      0.1889
    131  C        -13.9620   -5.1940   50.6690 C.2   124  SER124      0.2288
    132  O        -13.0290   -5.4020   51.4410 O.2   124  SER124     -0.2866
    133  CB       -13.8710   -7.3890   49.4520 C.3   124  SER124      0.2089
    134  OG       -14.5180   -8.6460   49.3380 O.3   124  SER124     -0.2183
    135  N        -14.3860   -3.0720   53.1040 N.3   126  TYR126     -0.1241
    136  CA       -15.1700   -2.7390   54.2920 C.3   126  TYR126      0.1605
    137  C        -14.7560   -1.4220   54.9400 C.2   126  TYR126      0.2264
    138  O        -15.5960   -0.6920   55.4630 O.2   126  TYR126     -0.2867
    139  CB       -15.1150   -3.8730   55.3190 C.3   126  TYR126      0.0534
    140  CG       -15.5680   -5.2060   54.7710 C.ar  126  TYR126     -0.0201
    141  CD1      -16.9170   -5.4980   54.6260 C.ar  126  TYR126     -0.0009
    142  CD2      -14.6450   -6.1720   54.3970 C.ar  126  TYR126     -0.0009
    143  CE1      -17.3350   -6.7190   54.1230 C.ar  126  TYR126      0.0417
    144  CE2      -15.0510   -7.3940   53.8950 C.ar  126  TYR126      0.0417
    145  CZ       -16.3950   -7.6620   53.7600 C.ar  126  TYR126      0.1957
    146  OH       -16.7970   -8.8790   53.2590 O.3   126  TYR126     -0.2866
    147  N        -14.7280  -18.5250   55.3980 N.3   152  LEU152     -0.1245
    148  CA       -13.7920  -17.4380   55.1220 C.3   152  LEU152      0.1561
    149  C        -14.4670  -16.0780   55.2390 C.2   152  LEU152      0.2260
    150  O        -13.9410  -15.1640   55.8760 O.2   152  LEU152     -0.2867
    151  CB       -13.1770  -17.5900   53.7240 C.3   152  LEU152      0.0270
    152  CG       -12.3620  -16.3990   53.1990 C.3   152  LEU152      0.0019
    153  CD1      -11.1640  -16.1220   54.0920 C.3   152  LEU152      0.0001
    154  CD2      -11.9150  -16.6310   51.7620 C.3   152  LEU152      0.0001
    155  N        -13.9490  -13.0210   58.1000 N.3   156  ILE156     -0.1245
    156  CA       -13.6130  -11.6620   57.7000 C.3   156  ILE156      0.1561
    157  C        -14.6270  -10.6690   58.2600 C.2   156  ILE156      0.2260
    158  O        -14.2580   -9.5800   58.7040 O.2   156  ILE156     -0.2867
    159  CB       -13.5550  -11.5240   56.1680 C.3   156  ILE156      0.0252
    160  CG1      -12.4230  -12.3830   55.6020 C.3   156  ILE156      0.0019
    161  CG2      -13.3790  -10.0620   55.7640 C.3   156  ILE156      0.0019
    162  CD1      -12.3230  -12.3410   54.0900 C.3   156  ILE156      0.0001
    163  N         -3.3030  -11.8940   41.6980 N.3   237  SER237     -0.1202
    164  CA        -3.1460  -11.9290   43.1560 C.3   237  SER237      0.2020
    165  C         -3.3390  -13.3120   43.7920 C.2   237  SER237      0.2619
    166  O         -4.4500  -13.6710   44.1870 O.2   237  SER237     -0.2717
    167  CB        -4.1180  -10.9440   43.8150 C.3   237  SER237      0.2103
    168  OG        -3.9470   -9.6320   43.3120 O.3   237  SER237     -0.2182
    169  N         -2.2560  -14.0790   43.8910 N.am  238  SER238     -0.1951
    170  CA        -2.2390  -15.3140   44.6810 C.3   238  SER238      0.1924
    171  C         -3.2130  -16.4060   44.2230 C.2   238  SER238      0.2314
    172  O         -3.4240  -17.3870   44.9380 O.2   238  SER238     -0.2863
    173  CB        -2.4820  -15.0040   46.1630 C.3   238  SER238      0.2116
    174  OG        -1.5650  -14.0400   46.6470 O.3   238  SER238     -0.2180
    175  N         -2.8780  -18.6910   41.9050 N.3   240  GLY240     -0.1210
    176  CA        -2.1930  -19.9590   41.7310 C.3   240  GLY240      0.1956
    177  C         -0.6890  -19.8200   41.8720 C.2   240  GLY240      0.2612
    178  O         -0.1840  -18.7410   42.1830 O.2   240  GLY240     -0.2717
    179  N          0.0290  -20.9140   41.6420 N.am  241  THR241     -0.1952
    180  CA         1.4820  -20.9130   41.7640 C.3   241  THR241      0.1897
    181  C          2.1510  -21.1320   40.4130 C.2   241  THR241      0.2313
    182  O          1.4990  -21.5320   39.4440 O.2   241  THR241     -0.2863
    183  CB         1.9660  -22.0050   42.7310 C.3   241  THR241      0.1794
    184  OG1        1.5970  -23.2940   42.2250 O.3   241  THR241     -0.2208
    185  CG2        1.3520  -21.8080   44.1080 C.3   241  THR241      0.0378
    186  N          2.9260  -12.8590   39.8140 N.3   267  LEU267     -0.1245
    187  CA         3.5450  -14.1720   39.6510 C.3   267  LEU267      0.1561
    188  C          4.9510  -14.0900   39.0590 C.2   267  LEU267      0.2260
    189  O          5.1380  -13.6070   37.9420 O.2   267  LEU267     -0.2867
    190  CB         2.6600  -15.0820   38.7980 C.3   267  LEU267      0.0270
    191  CG         3.0390  -16.5630   38.7790 C.3   267  LEU267      0.0019
    192  CD1        3.0510  -17.1280   40.1910 C.3   267  LEU267      0.0001
    193  CD2        2.0870  -17.3520   37.8930 C.3   267  LEU267      0.0001
    194  N         -8.7620  -22.5660   44.2600 N.3   321  TRP321     -0.1227
    195  CA        -7.9030  -22.7030   45.4290 C.3   321  TRP321      0.1737
    196  C         -8.0340  -21.5120   46.3790 C.2   321  TRP321      0.2595
    197  O         -8.0570  -21.6800   47.5980 O.2   321  TRP321     -0.2718
    198  CB        -6.4430  -22.8830   45.0020 C.3   321  TRP321      0.0564
    199  CG        -5.4990  -23.0180   46.1530 C.ar  321  TRP321      0.0003
    200  CD1       -5.2420  -24.1470   46.8750 C.ar  321  TRP321      0.0946
    201  CD2       -4.6910  -21.9850   46.7230 C.ar  321  TRP321      0.0152
    202  NE1       -4.3220  -23.8810   47.8590 N.ar  321  TRP321     -0.2442
    203  CE2       -3.9680  -22.5580   47.7870 C.ar  321  TRP321      0.0810
    204  CE3       -4.5080  -20.6280   46.4370 C.ar  321  TRP321      0.0012
    205  CZ2       -3.0760  -21.8260   48.5650 C.ar  321  TRP321      0.0191
    206  CZ3       -3.6240  -19.9010   47.2110 C.ar  321  TRP321      0.0001
    207  CH2       -2.9200  -20.5010   48.2630 C.ar  321  TRP321      0.0015
    208  N         -8.1410  -20.3130   45.8130 N.am  322  ALA322     -0.1966
    209  CA        -8.1460  -19.0870   46.6050 C.3   322  ALA322      0.1728
    210  C         -9.5040  -18.3880   46.6100 C.2   322  ALA322      0.2616
    211  O        -10.1560  -18.2710   45.5740 O.2   322  ALA322     -0.2715
    212  CB        -7.0680  -18.1340   46.1000 C.3   322  ALA322      0.0334
    213  N         -9.9180  -17.9230   47.7850 N.am  323  GLY323     -0.1955
    214  CA       -11.1230  -17.1230   47.9230 C.3   323  GLY323      0.1869
    215  C        -12.3760  -17.7110   47.3010 C.2   323  GLY323      0.2309
    216  O        -12.7290  -18.8620   47.5580 O.2   323  GLY323     -0.2863
@<TRIPOS>BOND
     1   193   191    1
     2   189   188    2
     3   191   190    1
     4   191   192    1
     5   190   187    1
     6   188   187    1
     7   182   181    2
     8   187   186    1
     9   181   180    1
    10    16    17    1
    11    17    18    1
    12    19    18    2
    13    18    20   am
    14   179   180    1
    15   179   177   am
    16   163   164    1
    17   176   177    1
    18   176   175    1
    19   180   183    1
    20   177   178    2
    21    11    12    2
    22    11    10    1
    23    20    21    1
    24   184   183    1
    25    22    23    2
    26    22    21    1
    27   183   185    1
    28    21    24    1
    29   164   165    1
    30   164   167    1
    31    10    13    1
    32    10     9    1
    33   168   167    1
    34   165   169   am
    35   165   166    2
    36   169   170    1
    37    13    14    1
    38    13    15    1
    39   171   170    1
    40   171   172    2
    41   194   195    1
    42    24    25    1
    43   170   173    1
    44   198   195    1
    45   198   199    1
    46     4     3    2
    47    27    25   ar
    48    27    29   ar
    49    25    26   ar
    50   195   196    1
    51   211   210    2
    52   208   196   am
    53   208   209    1
    54    29    28   ar
    55    26    28   ar
    56   212   209    1
    57   199   201   ar
    58   199   200   ar
    59   173   174    1
    60     3     2    1
    61   196   197    2
    62   204   201   ar
    63   204   206   ar
    64   209   210    1
    65   210   213   am
    66   201   203   ar
    67   200   202   ar
    68     1     2    1
    69   206   207   ar
    70   215   216    2
    71   215   214    1
    72     2     5    1
    73     5     6    1
    74   213   214    1
    75   203   202   ar
    76   203   205   ar
    77    36    34    1
    78   207   205   ar
    79    34    35    1
    80    34    31    1
    81     6     7    1
    82     6     8    1
    83    30    31    1
    84   129   130    1
    85   134   133    1
    86   133   130    1
    87    41    42    1
    88    41    38    1
    89    31    32    1
    90    37    38    1
    91    37    32   am
    92   130   131    1
    93    42    43   ar
    94    42    44   ar
    95    43    45   ar
    96    38    39    1
    97    32    33    2
    98   131   132    2
    99    44    46   ar
   100   126   128   ar
   101   126   124   ar
   102   128   127   ar
   103    45    47   ar
   104    46    47   ar
   105   124   123   ar
   106   154   152    1
   107    39    40    2
   108   127   125   ar
   109    57    55   ar
   110    57    58   ar
   111    55    53   ar
   112   123   125   ar
   113   123   122    1
   114    58    56   ar
   115   135   136    1
   116   152   151    1
   117   152   153    1
   118   146   145    1
   119    53    52    1
   120    53    54   ar
   121   122   119    1
   122   151   148    1
   123   145   144   ar
   124   145   143   ar
   125   144   142   ar
   126    56    54   ar
   127   162   160    1
   128   143   141   ar
   129    52    49    1
   130   136   137    1
   131   136   139    1
   132   142   140   ar
   133    87    86    1
   134    87    88    1
   135    86    83    1
   136   116   115    1
   137   116   117    1
   138    48    49    1
   139    65    64    1
   140   141   140   ar
   141   115   112    1
   142   140   139    1
   143    80    81    1
   144    80    79    1
   145   119   118    1
   146   119   120    1
   147   137   138    2
   148   148   149    1
   149   148   147    1
   150    64    66    1
   151    64    63    1
   152    49    50    1
   153   102   101    1
   154   149   150    2
   155    95    94    1
   156   121   120    2
   157   112   113    1
   158   112   111    1
   159   160   159    1
   160    81    75    1
   161    83    84    1
   162    83    82    1
   163    79    76    1
   164   161   159    1
   165    88    82    1
   166   114   113    2
   167    59    50   am
   168    59    60    1
   169   117   111    1
   170    85    84    2
   171    50    51    2
   172   159   156    1
   173    93    94    1
   174    93    90    1
   175    63    60    1
   176   101    98    1
   177   111   105   am
   178    92    91    2
   179    94    96    1
   180    98    97    1
   181    98    99    1
   182    60    61    1
   183    91    97   am
   184    91    90    1
   185    75    76    1
   186    76    77    1
   187    77    78    2
   188   100    99    2
   189    90    89    1
   190   105   106    2
   191   105   104    1
   192    74    72    1
   193   107   104    1
   194   107   108    1
   195   109   108    1
   196   156   155    1
   197   156   157    1
   198    61    62    2
   199   157   158    2
   200   104   103    1
   201   108   110    1
   202    72    73    1
   203    72    71    1
   204    71    68    1
   205    67    68    1
   206    68    69    1
   207    69    70    2
