@<TRIPOS>MOLECULE
tmp/3othA00.pdb
 185 180 0 0 0
SMALL
GASTEIGER

@<TRIPOS>ATOM
      1  N         -6.4680   -4.0680   44.2300 N.3    16  THR16      -0.1203
      2  CA        -6.0680   -5.1040   43.2790 C.3    16  THR16       0.1994
      3  C         -6.9650   -5.0720   42.0430 C.2    16  THR16       0.2618
      4  O         -8.0870   -4.5690   42.0960 O.2    16  THR16      -0.2717
      5  CB        -6.1230   -6.5100   43.9020 C.3    16  THR16       0.1784
      6  OG1       -7.4850   -6.8740   44.1570 O.3    16  THR16      -0.2211
      7  CG2       -5.3320   -6.5590   45.2000 C.3    16  THR16       0.0376
      8  N         -6.4700   -5.6100   40.9330 N.am   17  HIS17      -0.1961
      9  CA        -7.2280   -5.6070   39.6830 C.3    17  HIS17       0.1787
     10  C         -8.5960   -6.2760   39.8230 C.2    17  HIS17       0.2621
     11  O         -9.6000   -5.7730   39.3140 O.2    17  HIS17      -0.2715
     12  CB        -6.4280   -6.2800   38.5650 C.3    17  HIS17       0.0785
     13  CG        -5.1700   -5.5520   38.1970 C.ar   17  HIS17       0.0821
     14  ND1       -4.0030   -5.6800   38.9090 N.ar   17  HIS17      -0.2267
     15  CD2       -4.9070   -4.6900   37.1830 C.ar   17  HIS17       0.1154
     16  CE1       -3.0640   -4.9260   38.3520 C.ar   17  HIS17       0.1986
     17  NE2       -3.5900   -4.3200   37.3080 N.ar   17  HIS17      -0.2212
     18  N         -8.6270   -7.4080   40.5190 N.am   18  GLY18      -0.1940
     19  CA        -9.8490   -8.1730   40.6900 C.3    18  GLY18       0.2014
     20  C        -10.9310   -7.4390   41.4590 C.2    18  GLY18       0.2638
     21  O        -12.1090   -7.7930   41.3810 O.2    18  GLY18      -0.2714
     22  N        -10.5380   -6.4100   42.2010 N.am   19  HIS19      -0.1973
     23  CA       -11.4900   -5.6690   43.0200 C.3    19  HIS19       0.1656
     24  C        -11.7510   -4.2640   42.4950 C.2    19  HIS19       0.2291
     25  O        -12.7680   -3.6510   42.8200 O.2    19  HIS19      -0.2864
     26  CB       -11.0150   -5.6100   44.4690 C.3    19  HIS19       0.0771
     27  CG       -11.0990   -6.9230   45.1780 C.ar   19  HIS19       0.0820
     28  ND1      -12.1330   -7.2420   46.0310 N.ar   19  HIS19      -0.2267
     29  CD2      -10.2860   -8.0050   45.1510 C.ar   19  HIS19       0.1154
     30  CE1      -11.9500   -8.4610   46.5050 C.ar   19  HIS19       0.1986
     31  NE2      -10.8370   -8.9470   45.9850 N.ar   19  HIS19      -0.2212
     32  N        -11.2660   -3.3230   38.9260 N.3    21  TYR21      -0.1228
     33  CA       -11.7730   -3.3450   37.5550 C.3    21  TYR21       0.1721
     34  C        -13.2970   -3.4450   37.4430 C.2    21  TYR21       0.2437
     35  O        -13.9030   -2.7200   36.6530 O.2    21  TYR21      -0.2733
     36  CB       -11.0970   -4.4500   36.7370 C.3    21  TYR21       0.0547
     37  CG        -9.7620   -4.0420   36.1520 C.ar   21  TYR21      -0.0200
     38  CD1       -9.1400   -2.8630   36.5410 C.ar   21  TYR21      -0.0009
     39  CD2       -9.1330   -4.8270   35.1970 C.ar   21  TYR21      -0.0009
     40  CE1       -7.9230   -2.4840   36.0030 C.ar   21  TYR21       0.0417
     41  CE2       -7.9180   -4.4580   34.6520 C.ar   21  TYR21       0.0417
     42  CZ        -7.3180   -3.2870   35.0580 C.ar   21  TYR21       0.1957
     43  OH        -6.1080   -2.9210   34.5150 O.3    21  TYR21      -0.2866
     44  N        -13.9220   -4.3420   38.2260 N.am   22  PRO22      -0.2729
     45  CA       -15.3760   -4.5190   38.1420 C.3    22  PRO22       0.1401
     46  C        -16.1650   -3.2210   38.3090 C.2    22  PRO22       0.2269
     47  O        -17.2530   -3.1060   37.7420 O.2    22  PRO22      -0.2865
     48  CB       -15.6750   -5.4710   39.3020 C.3    22  PRO22       0.0296
     49  CG       -14.4300   -6.2650   39.4460 C.3    22  PRO22       0.0237
     50  CD       -13.3130   -5.2990   39.1680 C.3    22  PRO22       0.0939
     51  N        -13.4210   -4.6760   31.9240 N.3   210  PHE210     -0.1241
     52  CA       -12.7650   -3.3870   31.7490 C.3   210  PHE210      0.1605
     53  C        -12.1970   -3.2500   30.3430 C.2   210  PHE210      0.2264
     54  O        -11.4580   -4.1160   29.8750 O.2   210  PHE210     -0.2867
     55  CB       -11.6680   -3.1770   32.7920 C.3   210  PHE210      0.0534
     56  CG       -10.8610   -1.9290   32.5740 C.ar  210  PHE210     -0.0203
     57  CD1      -11.4860   -0.7250   32.2850 C.ar  210  PHE210     -0.0042
     58  CD2       -9.4790   -1.9560   32.6630 C.ar  210  PHE210     -0.0042
     59  CE1      -10.7460    0.4260   32.0830 C.ar  210  PHE210     -0.0003
     60  CE2       -8.7340   -0.8080   32.4640 C.ar  210  PHE210     -0.0003
     61  CZ        -9.3700    0.3840   32.1730 C.ar  210  PHE210     -0.0000
     62  N         -9.6750   -2.0060   28.3070 N.3   212  GLU212     -0.1245
     63  CA        -8.3220   -1.4710   28.2000 C.3   212  GLU212      0.1567
     64  C         -7.9400   -1.2940   26.7300 C.2   212  GLU212      0.2260
     65  O         -8.1870   -2.1760   25.9060 O.2   212  GLU212     -0.2867
     66  CB        -7.3220   -2.3860   28.9130 C.3   212  GLU212      0.0388
     67  CG        -5.8590   -2.0270   28.6830 C.3   212  GLU212      0.1160
     68  CD        -4.9110   -3.0030   29.3580 C.2   212  GLU212      0.3649
     69  OE1       -5.2180   -3.4490   30.4840 O.co2 212  GLU212     -0.2457
     70  OE2       -3.8630   -3.3290   28.7600 O.co2 212  GLU212     -0.2457
     71  N         -6.4100  -19.6840   26.2360 N.3   231  TYR231     -0.1241
     72  CA        -5.8960  -18.6140   27.0830 C.3   231  TYR231      0.1605
     73  C         -5.6460  -19.0950   28.5070 C.2   231  TYR231      0.2264
     74  O         -6.5590  -19.5660   29.1820 O.2   231  TYR231     -0.2867
     75  CB        -6.8690  -17.4350   27.0950 C.3   231  TYR231      0.0534
     76  CG        -6.4560  -16.3020   28.0130 C.ar  231  TYR231     -0.0201
     77  CD1       -5.1670  -15.7890   27.9770 C.ar  231  TYR231     -0.0009
     78  CD2       -7.3600  -15.7350   28.9010 C.ar  231  TYR231     -0.0009
     79  CE1       -4.7850  -14.7490   28.8080 C.ar  231  TYR231      0.0417
     80  CE2       -6.9920  -14.6950   29.7320 C.ar  231  TYR231      0.0417
     81  CZ        -5.7030  -14.2060   29.6830 C.ar  231  TYR231      0.1957
     82  OH        -5.3350  -13.1710   30.5110 O.3   231  TYR231     -0.2866
     83  N         -4.1920  -18.1280   32.3290 N.3   233  THR233     -0.1218
     84  CA        -3.8410  -17.0770   33.2780 C.3   233  THR233      0.1862
     85  C         -4.2040  -17.5060   34.6920 C.2   233  THR233      0.2287
     86  O         -5.1740  -18.2340   34.8940 O.2   233  THR233     -0.2866
     87  CB        -4.5610  -15.7510   32.9600 C.3   233  THR233      0.1770
     88  OG1       -4.1760  -14.7580   33.9180 O.3   233  THR233     -0.2211
     89  CG2       -6.0740  -15.9300   33.0110 C.3   233  THR233      0.0375
     90  N         -4.3620  -15.0490   37.1540 N.3   235  GLY235     -0.1210
     91  CA        -4.8090  -13.8240   37.7890 C.3   235  GLY235      0.1956
     92  C         -3.7070  -12.8330   38.1110 C.2   235  GLY235      0.2613
     93  O         -2.6430  -12.8280   37.4820 O.2   235  GLY235     -0.2717
     94  N         -3.9700  -11.9890   39.1020 N.am  236  THR236     -0.1938
     95  CA        -3.0500  -10.9280   39.4670 C.3   236  THR236      0.2028
     96  C         -2.7100  -10.9570   40.9570 C.2   236  THR236      0.2642
     97  O         -1.9120  -10.1430   41.4240 O.2   236  THR236     -0.2714
     98  CB        -3.6450   -9.5470   39.1190 C.3   236  THR236      0.1808
     99  OG1       -4.7690   -9.2770   39.9660 O.3   236  THR236     -0.2208
    100  CG2       -4.0880   -9.4970   37.6630 C.3   236  THR236      0.0379
    101  N         -3.3030  -11.8940   41.6980 N.am  237  SER237     -0.1949
    102  CA        -3.1460  -11.9290   43.1560 C.3   237  SER237      0.1924
    103  C         -3.3390  -13.3120   43.7920 C.2   237  SER237      0.2314
    104  O         -4.4500  -13.6710   44.1870 O.2   237  SER237     -0.2863
    105  CB        -4.1180  -10.9440   43.8150 C.3   237  SER237      0.2116
    106  OG        -3.9470   -9.6320   43.3120 O.3   237  SER237     -0.2180
    107  N         -3.7960  -16.2430   43.0390 N.3   239  GLY239     -0.1225
    108  CA        -4.7180  -17.2320   42.5040 C.3   239  GLY239      0.1811
    109  C         -4.1180  -18.6240   42.3810 C.2   239  GLY239      0.2280
    110  O         -4.7630  -19.6220   42.7120 O.2   239  GLY239     -0.2866
    111  N         -0.8900  -15.3450   30.2170 N.3   262  ALA262     -0.1245
    112  CA        -0.7000  -14.0600   30.8810 C.3   262  ALA262      0.1562
    113  C         -0.4130  -14.2980   32.3570 C.2   262  ALA262      0.2260
    114  O         -1.2980  -14.7020   33.1080 O.2   262  ALA262     -0.2867
    115  CB        -1.9350  -13.1870   30.7150 C.3   262  ALA262      0.0290
    116  N          0.7470  -12.1090   34.6930 N.3   264  GLY264     -0.1225
    117  CA         0.3860  -11.0240   35.5890 C.3   264  GLY264      0.1811
    118  C          1.5550  -10.3840   36.3150 C.2   264  GLY264      0.2280
    119  O          2.7030  -10.7920   36.1390 O.2   264  GLY264     -0.2866
    120  N          1.3010   -9.2040   30.4330 N.3   284  TRP284     -0.1227
    121  CA         0.0030   -8.5700   30.5850 C.3   284  TRP284      0.1737
    122  C         -0.6720   -8.4490   29.2230 C.2   284  TRP284      0.2595
    123  O         -0.0060   -8.1990   28.2130 O.2   284  TRP284     -0.2718
    124  CB         0.1640   -7.1950   31.2390 C.3   284  TRP284      0.0564
    125  CG        -1.1330   -6.5120   31.5180 C.ar  284  TRP284      0.0003
    126  CD1       -1.7610   -5.5940   30.7280 C.ar  284  TRP284      0.0946
    127  CD2       -1.9720   -6.6970   32.6640 C.ar  284  TRP284      0.0152
    128  NE1       -2.9380   -5.1930   31.3130 N.ar  284  TRP284     -0.2442
    129  CE2       -3.0910   -5.8560   32.5030 C.ar  284  TRP284      0.0810
    130  CE3       -1.8870   -7.4920   33.8120 C.ar  284  TRP284      0.0012
    131  CZ2       -4.1160   -5.7860   33.4440 C.ar  284  TRP284      0.0191
    132  CZ3       -2.9070   -7.4210   34.7480 C.ar  284  TRP284      0.0001
    133  CH2       -4.0060   -6.5730   34.5570 C.ar  284  TRP284      0.0015
    134  N         -1.9880   -8.6440   29.1970 N.am  285  VAL285     -0.1980
    135  CA        -2.7550   -8.5340   27.9610 C.3   285  VAL285      0.1595
    136  C         -4.0750   -7.8060   28.1880 C.2   285  VAL285      0.2287
    137  O         -4.6420   -7.8620   29.2800 O.2   285  VAL285     -0.2864
    138  CB        -3.0750   -9.9230   27.3670 C.3   285  VAL285      0.0276
    139  CG1       -1.7960  -10.6430   26.9640 C.3   285  VAL285      0.0022
    140  CG2       -3.8830  -10.7510   28.3570 C.3   285  VAL285      0.0022
    141  N         -7.1830   -8.3110   28.3080 N.3   287  GLN287     -0.1231
    142  CA        -7.9970   -9.5180   28.3850 C.3   287  GLN287      0.1698
    143  C         -9.3840   -9.3300   27.7760 C.2   287  GLN287      0.2592
    144  O         -9.8800  -10.2070   27.0720 O.2   287  GLN287     -0.2718
    145  CB        -8.1000   -9.9990   29.8340 C.3   287  GLN287      0.0381
    146  CG        -8.7920  -11.3410   29.9970 C.3   287  GLN287      0.0905
    147  CD        -8.6520  -11.8970   31.3990 C.2   287  GLN287      0.2608
    148  OE1       -7.5420  -12.0980   31.8910 O.2   287  GLN287     -0.2717
    149  NE2       -9.7800  -12.1420   32.0530 N.am  287  GLN287     -0.0878
    150  N        -10.0030   -8.1850   28.0410 N.am  288  ALA288     -0.1980
    151  CA       -11.3320   -7.9100   27.5070 C.3   288  ALA288      0.1597
    152  C        -11.3610   -8.0000   25.9820 C.2   288  ALA288      0.2287
    153  O        -12.2990   -8.5480   25.4040 O.2   288  ALA288     -0.2864
    154  CB       -11.8320   -6.5540   27.9760 C.3   288  ALA288      0.0319
    155  N         -7.4160  -19.5190   37.3340 N.3   300  HIS300     -0.1241
    156  CA        -7.3950  -19.8060   38.7660 C.3   300  HIS300      0.1621
    157  C         -8.7930  -19.8030   39.3740 C.2   300  HIS300      0.2264
    158  O         -9.0070  -20.3390   40.4630 O.2   300  HIS300     -0.2867
    159  CB        -6.5340  -18.7710   39.4860 C.3   300  HIS300      0.0745
    160  CG        -6.9600  -17.3580   39.2310 C.ar  300  HIS300      0.0817
    161  ND1       -7.0560  -16.8280   37.9630 N.ar  300  HIS300     -0.2268
    162  CD2       -7.3240  -16.3690   40.0810 C.ar  300  HIS300      0.1154
    163  CE1       -7.4600  -15.5730   38.0410 C.ar  300  HIS300      0.1986
    164  NE2       -7.6280  -15.2690   39.3150 N.ar  300  HIS300     -0.2212
    165  N        -10.7780  -16.7550   39.3660 N.3   302  GLY302     -0.1210
    166  CA       -11.1160  -15.4110   39.7990 C.3   302  GLY302      0.1956
    167  C        -12.4440  -14.9790   39.2060 C.2   302  GLY302      0.2613
    168  O        -12.8200  -15.4310   38.1260 O.2   302  GLY302     -0.2717
    169  N        -13.1540  -14.1030   39.9090 N.am  303  SER303     -0.1938
    170  CA       -14.4640  -13.6420   39.4620 C.3   303  SER303      0.2055
    171  C        -14.3940  -12.8880   38.1350 C.2   303  SER303      0.2644
    172  O        -15.2570  -13.0510   37.2760 O.2   303  SER303     -0.2714
    173  CB       -15.1180  -12.7620   40.5310 C.3   303  SER303      0.2130
    174  OG       -15.3410  -13.4860   41.7260 O.3   303  SER303     -0.2179
    175  N        -13.3660  -12.0620   37.9740 N.am  304  GLY304     -0.1939
    176  CA       -13.2260  -11.2490   36.7810 C.3   304  GLY304      0.2014
    177  C        -13.0780  -12.0800   35.5200 C.2   304  GLY304      0.2639
    178  O        -13.7180  -11.8070   34.5030 O.2   304  GLY304     -0.2714
    179  N        -12.2290  -13.0980   35.5920 N.am  305  THR305     -0.1950
    180  CA       -11.9750  -13.9730   34.4560 C.3   305  THR305      0.1897
    181  C        -13.1060  -14.9810   34.2830 C.2   305  THR305      0.2313
    182  O        -13.3960  -15.4190   33.1690 O.2   305  THR305     -0.2863
    183  CB       -10.6300  -14.7080   34.6100 C.3   305  THR305      0.1794
    184  OG1       -9.5700  -13.7460   34.6920 O.3   305  THR305     -0.2208
    185  CG2      -10.3800  -15.6380   33.4260 C.3   305  THR305      0.0378
@<TRIPOS>BOND
     1   153   152    2
     2    65    64    2
     3   152   151    1
     4    71    72    1
     5    64    63    1
     6   139   138    1
     7   144   143    2
     8    72    75    1
     9    72    73    1
    10    75    76    1
    11   138   135    1
    12   138   140    1
    13   151   154    1
    14   151   150    1
    15   143   150   am
    16   143   142    1
    17   135   136    1
    18   135   134    1
    19    77    76   ar
    20    77    79   ar
    21    76    78   ar
    22   136   137    2
    23    63    62    1
    24    63    66    1
    25   123   122    2
    26   141   142    1
    27   142   145    1
    28    73    74    2
    29    67    66    1
    30    67    68    1
    31    70    68   ar
    32    79    81   ar
    33    78    80   ar
    34   134   122   am
    35   122   121    1
    36    68    69   ar
    37    81    80   ar
    38    81    82    1
    39   145   146    1
    40    54    53    2
    41   146   147    1
    42   111   112    1
    43    53    52    1
    44   120   121    1
    45   121   124    1
    46   115   112    1
    47   126   128   ar
    48   126   125   ar
    49   112   113    1
    50   124   125    1
    51   128   129   ar
    52   147   148    2
    53   147   149   am
    54   125   127   ar
    55    52    51    1
    56    52    55    1
    57    59    61   ar
    58    59    57   ar
    59    61    60   ar
    60    57    56   ar
    61    83    84    1
    62   113   114    2
    63    60    58   ar
    64   129   127   ar
    65   129   131   ar
    66    56    58   ar
    67    56    55    1
    68   127   130   ar
    69    87    89    1
    70    87    84    1
    71    87    88    1
    72   182   181    2
    73    84    85    1
    74   185   183    1
    75   131   133   ar
    76   130   132   ar
    77   181   180    1
    78   180   183    1
    79   180   179    1
    80   178   177    2
    81    43    42    1
    82   133   132   ar
    83   183   184    1
    84    41    42   ar
    85    41    39   ar
    86    85    86    2
    87   116   117    1
    88    42    40   ar
    89    39    37   ar
    90   177   179   am
    91   177   176    1
    92   117   118    1
    93    40    38   ar
    94   119   118    2
    95    37    38   ar
    96    37    36    1
    97    35    34    2
    98    36    33    1
    99   176   175    1
   100    90    91    1
   101    15    17   ar
   102    15    13   ar
   103   172   171    2
   104    17    16   ar
   105   155   156    1
   106    34    33    1
   107    34    44   am
   108    93    92    2
   109    33    32    1
   110   100    98    1
   111    47    46    2
   112    91    92    1
   113   161   163   ar
   114   161   160   ar
   115   175   171   am
   116   163   164   ar
   117    92    94   am
   118   168   167    2
   119   171   170    1
   120    45    44    1
   121    45    46    1
   122    45    48    1
   123    13    12    1
   124    13    14   ar
   125    44    50    1
   126    16    14   ar
   127    12     9    1
   128   156   157    1
   129   156   159    1
   130    94    95    1
   131    98    95    1
   132    98    99    1
   133    50    49    1
   134   167   166    1
   135   167   169   am
   136   160   159    1
   137   160   162   ar
   138    48    49    1
   139    11    10    2
   140   164   162   ar
   141   165   166    1
   142   157   158    2
   143   170   169    1
   144   170   173    1
   145    95    96    1
   146     9    10    1
   147     9     8    1
   148    10    18   am
   149    18    19    1
   150   173   174    1
   151    19    20    1
   152     8     3   am
   153    96    97    2
   154    96   101   am
   155    21    20    2
   156    20    22   am
   157   101   102    1
   158     3     4    2
   159     3     2    1
   160    22    23    1
   161   109   108    1
   162   109   110    2
   163    24    25    2
   164    24    23    1
   165   108   107    1
   166    23    26    1
   167   102   103    1
   168   102   105    1
   169     2     5    1
   170     2     1    1
   171   106   105    1
   172   103   104    2
   173     5     6    1
   174     5     7    1
   175    26    27    1
   176    29    27   ar
   177    29    31   ar
   178    27    28   ar
   179    31    30   ar
   180    28    30   ar
