@<TRIPOS>MOLECULE
tmp/3otiB00.pdb
 190 187 0 0 0
SMALL
GASTEIGER

@<TRIPOS>ATOM
      1  N          7.0980   33.3490   17.1970 N.3    13  ILE13      -0.1231
      2  CA         6.4760   32.1450   17.7890 C.3    13  ILE13       0.1692
      3  C          5.0770   32.4720   18.2980 C.2    13  ILE13       0.2593
      4  O          4.1400   31.6850   18.1430 O.2    13  ILE13      -0.2718
      5  CB         7.3520   31.5450   18.8740 C.3    13  ILE13       0.0266
      6  CG1        8.6040   30.9510   18.2010 C.3    13  ILE13       0.0019
      7  CG2        6.5670   30.4890   19.6880 C.3    13  ILE13       0.0020
      8  CD1        9.6880   30.4880   19.1800 C.3    13  ILE13       0.0001
      9  N          4.9020   33.6650   18.8640 N.am   14  GLY14      -0.1942
     10  CA         3.5750   34.0940   19.2890 C.3    14  GLY14       0.2014
     11  C          2.5990   34.3370   18.1570 C.2    14  GLY14       0.2638
     12  O          1.3790   34.2850   18.3530 O.2    14  GLY14      -0.2714
     13  N          3.1210   34.6180   16.9580 N.am   15  HIS15      -0.1973
     14  CA         2.2700   34.6840   15.7800 C.3    15  HIS15       0.1656
     15  C          1.8610   33.2920   15.2950 C.2    15  HIS15       0.2291
     16  O          0.7120   33.0700   14.8860 O.2    15  HIS15      -0.2864
     17  CB         3.0270   35.3870   14.6260 C.3    15  HIS15       0.0771
     18  CG         3.1820   36.8660   14.7990 C.ar   15  HIS15       0.0820
     19  ND1        2.1320   37.7400   14.6810 N.ar   15  HIS15      -0.2267
     20  CD2        4.2790   37.6270   15.0310 C.ar   15  HIS15       0.1154
     21  CE1        2.5600   38.9820   14.8470 C.ar   15  HIS15       0.1986
     22  NE2        3.8650   38.9420   15.0620 N.ar   15  HIS15      -0.2212
     23  N          2.1600   30.0120   16.8070 N.3    17  PHE17      -0.1228
     24  CA         1.5130   29.0040   17.6320 C.3    17  PHE17       0.1721
     25  C         -0.0440   29.0730   17.6460 C.2    17  PHE17       0.2437
     26  O         -0.7070   28.0090   17.6610 O.2    17  PHE17      -0.2733
     27  CB         2.0540   29.0260   19.0590 C.3    17  PHE17       0.0547
     28  CG         3.3710   28.3300   19.2440 C.ar   17  PHE17      -0.0202
     29  CD1        4.0340   27.7160   18.1830 C.ar   17  PHE17      -0.0042
     30  CD2        3.9520   28.3000   20.5120 C.ar   17  PHE17      -0.0042
     31  CE1        5.2590   27.0430   18.4110 C.ar   17  PHE17      -0.0003
     32  CE2        5.1520   27.6650   20.7230 C.ar   17  PHE17      -0.0003
     33  CZ         5.7900   27.0190   19.6880 C.ar   17  PHE17      -0.0000
     34  N         -0.6410   30.3010   17.6190 N.am   18  PRO18      -0.2729
     35  CA        -2.1140   30.3850   17.5630 C.3    18  PRO18       0.1401
     36  C         -2.7660   29.8430   16.2910 C.2    18  PRO18       0.2269
     37  O         -4.0050   29.8650   16.2210 O.2    18  PRO18      -0.2865
     38  CB        -2.3840   31.9050   17.6590 C.3    18  PRO18       0.0296
     39  CG        -1.1980   32.4430   18.4220 C.3    18  PRO18       0.0237
     40  CD        -0.0140   31.5880   17.9760 C.3    18  PRO18       0.0939
     41  N         -9.5210   28.6100   23.5070 N.3   195  TRP195     -0.1241
     42  CA        -8.0630   28.5630   23.4600 C.3   195  TRP195      0.1605
     43  C         -7.6110   27.2120   23.9720 C.2   195  TRP195      0.2264
     44  O         -7.8010   26.8760   25.1390 O.2   195  TRP195     -0.2867
     45  CB        -7.4740   29.6600   24.3600 C.3   195  TRP195      0.0550
     46  CG        -5.9660   29.6520   24.3930 C.ar  195  TRP195      0.0003
     47  CD1       -5.1680   29.1150   25.3510 C.ar  195  TRP195      0.0946
     48  CD2       -5.1000   30.2350   23.4230 C.ar  195  TRP195      0.0152
     49  NE1       -3.8390   29.3300   25.0370 N.ar  195  TRP195     -0.2442
     50  CE2       -3.7810   30.0120   23.8520 C.ar  195  TRP195      0.0810
     51  CE3       -5.3310   30.9140   22.2220 C.ar  195  TRP195      0.0012
     52  CZ2       -2.6680   30.4470   23.1270 C.ar  195  TRP195      0.0191
     53  CZ3       -4.2310   31.3640   21.5040 C.ar  195  TRP195      0.0001
     54  CH2       -2.9130   31.1350   21.9680 C.ar  195  TRP195      0.0015
     55  N         -0.9970   25.5070   22.7410 N.3   198  TYR198     -0.1227
     56  CA         0.0020   24.7390   22.0200 C.3   198  TYR198      0.1736
     57  C          1.3600   25.4180   22.2440 C.2   198  TYR198      0.2596
     58  O          1.4990   26.6190   22.0040 O.2   198  TYR198     -0.2718
     59  CB        -0.2680   24.6510   20.5190 C.3   198  TYR198      0.0548
     60  CG         0.8800   23.9340   19.8650 C.ar  198  TYR198     -0.0200
     61  CD1        0.9750   22.5520   19.9160 C.ar  198  TYR198     -0.0009
     62  CD2        1.9190   24.6430   19.2640 C.ar  198  TYR198     -0.0009
     63  CE1        2.0610   21.9020   19.3750 C.ar  198  TYR198      0.0417
     64  CE2        3.0210   23.9780   18.7230 C.ar  198  TYR198      0.0417
     65  CZ         3.0620   22.6130   18.7850 C.ar  198  TYR198      0.1957
     66  OH         4.1470   21.9630   18.2840 O.3   198  TYR198     -0.2866
     67  N          2.3460   24.6520   22.7020 N.am  199  GLY199     -0.1957
     68  CA         3.6950   25.1770   22.9030 C.3   199  GLY199      0.1869
     69  C          4.7640   24.1910   22.4570 C.2   199  GLY199      0.2309
     70  O          5.9280   24.4030   22.7400 O.2   199  GLY199     -0.2863
     71  N          8.1100   33.8980   32.8480 N.3   220  THR220     -0.1218
     72  CA         8.3530   33.6660   31.4260 C.3   220  THR220      0.1862
     73  C          8.1020   34.9470   30.6730 C.2   220  THR220      0.2287
     74  O          7.1800   35.6430   31.0040 O.2   220  THR220     -0.2866
     75  CB         7.4500   32.5100   30.8820 C.3   220  THR220      0.1770
     76  OG1        7.7760   32.2400   29.5020 O.3   220  THR220     -0.2211
     77  CG2        5.9340   32.8250   31.0310 C.3   220  THR220      0.0375
     78  N          7.8720   35.2460   27.0570 N.3   222  GLY222     -0.1210
     79  CA         7.6000   34.9890   25.6530 C.3   222  GLY222      0.1956
     80  C          8.8670   34.7050   24.8630 C.2   222  GLY222      0.2613
     81  O          9.8410   34.1430   25.3860 O.2   222  GLY222     -0.2717
     82  N          8.8360   35.1180   23.6060 N.am  223  THR223     -0.1938
     83  CA         9.8330   34.6800   22.6450 C.3   223  THR223      0.2028
     84  C         10.4180   35.8370   21.8440 C.2   223  THR223      0.2642
     85  O         11.1420   35.5920   20.8740 O.2   223  THR223     -0.2714
     86  CB         9.2070   33.6450   21.6940 C.3   223  THR223      0.1808
     87  OG1        8.1840   34.2710   20.8970 O.3   223  THR223     -0.2208
     88  CG2        8.6070   32.4750   22.5170 C.3   223  THR223      0.0379
     89  N         10.0760   37.0800   22.2010 N.am  224  ILE224     -0.1977
     90  CA        10.6550   38.2100   21.4500 C.3   224  ILE224      0.1596
     91  C         11.1370   39.3660   22.3580 C.2   224  ILE224      0.2287
     92  O         12.1190   40.0330   22.0040 O.2   224  ILE224     -0.2864
     93  CB         9.7010   38.6950   20.3410 C.3   224  ILE224      0.0276
     94  CG1       10.3680   39.7290   19.4200 C.3   224  ILE224      0.0022
     95  CG2        8.4040   39.2960   20.9260 C.3   224  ILE224      0.0022
     96  CD1       11.5210   39.1380   18.6340 C.3   224  ILE224      0.0001
     97  N         11.4530   30.3890   32.9170 N.3   251  ALA251     -0.1245
     98  CA        11.2460   29.7030   31.6380 C.3   251  ALA251      0.1562
     99  C         11.3730   30.6880   30.4880 C.2   251  ALA251      0.2260
    100  O         10.3820   31.2200   29.9780 O.2   251  ALA251     -0.2867
    101  CB         9.8880   29.0020   31.6080 C.3   251  ALA251      0.0290
    102  N         12.7940   30.0470   27.5420 N.3   253  GLY253     -0.1225
    103  CA        12.9500   29.4390   26.2330 C.3   253  GLY253      0.1811
    104  C         14.3850   29.1470   25.8390 C.2   253  GLY253      0.2280
    105  O         15.1580   28.6070   26.6360 O.2   253  GLY253     -0.2866
    106  N         15.0010   25.1430   30.0790 N.3   271  GLY271     -0.1210
    107  CA        15.0240   25.5670   28.6910 C.3   271  GLY271      0.1956
    108  C         13.6140   25.4700   28.1150 C.2   271  GLY271      0.2612
    109  O         12.6320   25.4300   28.8570 O.2   271  GLY271     -0.2717
    110  N         13.5270   25.4210   26.7960 N.am  272  TRP272     -0.1962
    111  CA        12.2140   25.3910   26.1490 C.3   272  TRP272      0.1771
    112  C         11.3490   24.2730   26.7340 C.2   272  TRP272      0.2620
    113  O         11.7630   23.1060   26.7680 O.2   272  TRP272     -0.2715
    114  CB        12.3210   25.1920   24.6390 C.3   272  TRP272      0.0590
    115  CG        10.9450   25.2990   24.0660 C.ar  272  TRP272      0.0006
    116  CD1       10.0130   24.2800   23.9310 C.ar  272  TRP272      0.0946
    117  CD2       10.2970   26.4960   23.6340 C.ar  272  TRP272      0.0152
    118  NE1        8.8360   24.7810   23.4250 N.ar  272  TRP272     -0.2442
    119  CE2        8.9800   26.1380   23.2390 C.ar  272  TRP272      0.0810
    120  CE3       10.7040   27.8470   23.5300 C.ar  272  TRP272      0.0012
    121  CZ2        8.0720   27.0790   22.7320 C.ar  272  TRP272      0.0191
    122  CZ3        9.7890   28.7720   23.0320 C.ar  272  TRP272      0.0001
    123  CH2        8.4880   28.3840   22.6530 C.ar  272  TRP272      0.0015
    124  N         10.1540   24.6390   27.2000 N.am  273  THR273     -0.1937
    125  CA         9.1860   23.6850   27.7540 C.3   273  THR273      0.2013
    126  C          7.8210   24.2060   27.3360 C.2   273  THR273      0.2484
    127  O          7.5590   25.3750   27.4870 O.2   273  THR273     -0.2729
    128  CB         9.2180   23.6600   29.3010 C.3   273  THR273      0.1807
    129  OG1       10.5620   23.4720   29.7580 O.3   273  THR273     -0.2208
    130  CG2        8.3090   22.5240   29.8360 C.3   273  THR273      0.0379
    131  N          6.9400   23.3530   26.8060 N.am  274  PRO274     -0.2715
    132  CA         5.6060   23.8880   26.4900 C.3   274  PRO274      0.1536
    133  C          4.9640   24.5350   27.6990 C.2   274  PRO274      0.2598
    134  O          4.9360   23.9690   28.8090 O.2   274  PRO274     -0.2715
    135  CB         4.8310   22.6510   25.9680 C.3   274  PRO274      0.0310
    136  CG         5.9410   21.6950   25.5280 C.3   274  PRO274      0.0237
    137  CD         7.0570   21.9110   26.5120 C.3   274  PRO274      0.0939
    138  N          4.4170   25.7310   27.5090 N.am  275  LEU275     -0.1978
    139  CA         3.9910   26.5000   28.6590 C.3   275  LEU275      0.1596
    140  C          2.8910   25.8290   29.4800 C.2   275  LEU275      0.2287
    141  O          2.9520   25.8240   30.6930 O.2   275  LEU275     -0.2864
    142  CB         3.5540   27.8990   28.2250 C.3   275  LEU275      0.0297
    143  CG         3.0210   28.7820   29.3660 C.3   275  LEU275      0.0022
    144  CD1        4.1040   29.0740   30.3830 C.3   275  LEU275      0.0001
    145  CD2        2.4790   30.0710   28.7870 C.3   275  LEU275      0.0001
    146  N          5.1270   38.8200   30.5280 N.3   288  HIS288     -0.1241
    147  CA         5.2690   40.1450   29.9180 C.3   288  HIS288      0.1621
    148  C          3.9480   40.6960   29.3890 C.2   288  HIS288      0.2264
    149  O          3.8640   41.8840   29.0850 O.2   288  HIS288     -0.2867
    150  CB         6.2810   40.0610   28.7670 C.3   288  HIS288      0.0745
    151  CG         5.8670   39.1170   27.6810 C.ar  288  HIS288      0.0817
    152  ND1        5.4470   37.8270   27.9260 N.ar  288  HIS288     -0.2268
    153  CD2        5.8120   39.2840   26.3420 C.ar  288  HIS288      0.1154
    154  CE1        5.1230   37.2510   26.7810 C.ar  288  HIS288      0.1986
    155  NE2        5.3640   38.1040   25.8030 N.ar  288  HIS288     -0.2212
    156  N          2.1630   38.8010   26.7890 N.3   290  GLY290     -0.1210
    157  CA         1.8730   38.1720   25.4990 C.3   290  GLY290      0.1956
    158  C          0.5150   37.4880   25.5270 C.2   290  GLY290      0.2612
    159  O          0.1370   36.9020   26.5580 O.2   290  GLY290     -0.2717
    160  N         -0.2360   37.6260   24.4450 N.am  291  GLY291     -0.1942
    161  CA        -1.6070   37.1020   24.3800 C.3   291  GLY291      0.2014
    162  C         -1.6810   35.5770   24.5720 C.2   291  GLY291      0.2639
    163  O         -2.5790   35.0700   25.2500 O.2   291  GLY291     -0.2714
    164  N         -0.7230   34.8640   24.0020 N.am  292  GLY292     -0.1939
    165  CA        -0.7200   33.4180   24.1120 C.3   292  GLY292      0.2014
    166  C         -0.4760   33.0380   25.5850 C.2   292  GLY292      0.2639
    167  O         -1.0900   32.0950   26.1160 O.2   292  GLY292     -0.2714
    168  N          0.4140   33.7760   26.2490 N.am  293  THR293     -0.1950
    169  CA         0.7160   33.5020   27.6600 C.3   293  THR293      0.1897
    170  C         -0.4710   33.8600   28.5530 C.2   293  THR293      0.2313
    171  O         -0.8010   33.1100   29.4830 O.2   293  THR293     -0.2863
    172  CB         2.0170   34.2110   28.0820 C.3   293  THR293      0.1794
    173  OG1        3.0640   33.7490   27.2210 O.3   293  THR293     -0.2208
    174  CG2        2.3790   33.8730   29.5400 C.3   293  THR293      0.0378
    175  N         -2.9860   31.0230   28.0460 N.3   296  THR296     -0.1218
    176  CA        -2.5650   29.7620   28.6140 C.3   296  THR296      0.1862
    177  C         -2.6570   29.7950   30.1550 C.2   296  THR296      0.2287
    178  O         -2.9580   28.7800   30.7780 O.2   296  THR296     -0.2866
    179  CB        -1.1700   29.4200   28.0530 C.3   296  THR296      0.1770
    180  OG1       -1.3090   29.2400   26.6290 O.3   296  THR296     -0.2211
    181  CG2       -0.6210   28.1090   28.6900 C.3   296  THR296      0.0375
    182  N          2.8150   44.8710   24.3430 N.3   315  GLN315     -0.1245
    183  CA         2.1520   43.9970   25.3330 C.3   315  GLN315      0.1566
    184  C          1.0160   44.7070   26.0740 C.2   315  GLN315      0.2260
    185  O          0.7710   44.4190   27.2440 O.2   315  GLN315     -0.2867
    186  CB         3.1480   43.5450   26.3810 C.3   315  GLN315      0.0367
    187  CG         4.5250   43.1470   25.8100 C.3   315  GLN315      0.0905
    188  CD         4.4150   42.1090   24.7160 C.2   315  GLN315      0.2608
    189  OE1        3.4900   41.2970   24.7090 O.2   315  GLN315     -0.2717
    190  NE2        5.3640   42.1270   23.7760 N.am  315  GLN315     -0.0878
@<TRIPOS>BOND
     1    17    18    1
     2    17    14    1
     3    19    18   ar
     4    19    21   ar
     5    18    20   ar
     6    21    22   ar
     7    16    15    2
     8    20    22   ar
     9    15    14    1
    10    14    13    1
    11    37    36    2
    12    36    35    1
    13    23    24    1
    14    13    11   am
    15     1     2    1
    16    35    34    1
    17    35    38    1
    18    34    25   am
    19    34    40    1
    20    24    25    1
    21    24    27    1
    22    25    26    2
    23    38    39    1
    24     2     3    1
    25     2     5    1
    26    40    39    1
    27     4     3    2
    28    11    12    2
    29    11    10    1
    30    29    31   ar
    31    29    28   ar
    32     6     5    1
    33     6     8    1
    34    66    65    1
    35     3     9   am
    36    31    33   ar
    37    96    94    1
    38    64    65   ar
    39    64    62   ar
    40    65    63   ar
    41     9    10    1
    42     5     7    1
    43    27    28    1
    44    28    30   ar
    45    62    60   ar
    46    63    61   ar
    47    94    93    1
    48    33    32   ar
    49    60    61   ar
    50    60    59    1
    51    93    95    1
    52    93    90    1
    53    30    32   ar
    54    59    56    1
    55    85    84    2
    56    87    86    1
    57    90    89    1
    58    90    91    1
    59    53    54   ar
    60    53    51   ar
    61    86    88    1
    62    86    83    1
    63    84    89   am
    64    84    83    1
    65    54    52   ar
    66    58    57    2
    67    92    91    2
    68    56    57    1
    69    56    55    1
    70    51    48   ar
    71    57    67   am
    72    69    70    2
    73    69    68    1
    74    83    82    1
    75   123   121   ar
    76   123   122   ar
    77    67    68    1
    78   121   119   ar
    79   122   120   ar
    80    52    50   ar
    81   119   118   ar
    82   119   117   ar
    83    48    50   ar
    84    48    46   ar
    85   118   116   ar
    86    42    41    1
    87    42    43    1
    88    42    45    1
    89   120   117   ar
    90    82    80   am
    91   117   115   ar
    92   190   188   am
    93    50    49   ar
    94   116   115   ar
    95    43    44    2
    96   164   165    1
    97   164   162   am
    98   115   114    1
    99   165   166    1
   100   182   183    1
   101    45    46    1
   102   161   160    1
   103   161   162    1
   104    46    47   ar
   105   160   158   am
   106   162   163    2
   107   114   111    1
   108   189   188    2
   109   188   187    1
   110    80    81    2
   111    80    79    1
   112    49    47   ar
   113   183   184    1
   114   183   186    1
   115   157   158    1
   116   157   156    1
   117   158   159    2
   118   136   135    1
   119   136   137    1
   120   166   167    2
   121   166   168   am
   122    79    78    1
   123   155   153   ar
   124   155   154   ar
   125   187   186    1
   126   104   103    1
   127   104   105    2
   128   135   132    1
   129   184   185    2
   130   111   112    1
   131   111   110    1
   132   103   102    1
   133   168   169    1
   134   153   151   ar
   135   132   131    1
   136   132   133    1
   137   137   131    1
   138   180   179    1
   139   112   113    2
   140   112   124   am
   141   154   152   ar
   142   110   108   am
   143   131   126   am
   144   124   125    1
   145   173   172    1
   146   126   127    2
   147   126   125    1
   148   138   133   am
   149   138   139    1
   150   169   172    1
   151   169   170    1
   152   151   152   ar
   153   151   150    1
   154   133   134    2
   155   125   128    1
   156   175   176    1
   157   179   176    1
   158   179   181    1
   159   172   174    1
   160   108   107    1
   161   108   109    2
   162   142   139    1
   163   142   143    1
   164   170   171    2
   165   176   177    1
   166   139   140    1
   167   107   106    1
   168   150   147    1
   169   145   143    1
   170   149   148    2
   171   128   129    1
   172   128   130    1
   173   143   144    1
   174   148   147    1
   175   140   141    2
   176    76    75    1
   177   147   146    1
   178   100    99    2
   179   177   178    2
   180    99    98    1
   181    73    74    2
   182    73    72    1
   183    75    77    1
   184    75    72    1
   185    72    71    1
   186   101    98    1
   187    98    97    1
