@<TRIPOS>MOLECULE
tmp/3otiB01.pdb
 216 208 0 0 0
SMALL
GASTEIGER

@<TRIPOS>ATOM
      1  N          3.3840   35.6250   10.3970 N.3    10  SER10      -0.1203
      2  CA         4.5540   36.4840   10.5900 C.3    10  SER10       0.2005
      3  C          5.6320   35.7260   11.3380 C.2    10  SER10       0.2461
      4  O          5.3570   34.6980   11.9730 O.2    10  SER10      -0.2732
      5  CB         4.1920   37.7070   11.4830 C.3    10  SER10       0.2103
      6  OG         3.0620   38.3890   10.9840 O.3    10  SER10      -0.2182
      7  N          6.8700   36.2180   11.2910 N.am   11  PRO11      -0.2717
      8  CA         8.0310   35.5130   11.8600 C.3    11  PRO11       0.1535
      9  C          8.1700   35.7040   13.3660 C.2    11  PRO11       0.2599
     10  O          9.0920   36.3430   13.8740 O.2    11  PRO11      -0.2715
     11  CB         9.2100   36.1020   11.0640 C.3    11  PRO11       0.0310
     12  CG         8.7100   37.4660   10.6690 C.3    11  PRO11       0.0237
     13  CD         7.2590   37.3690   10.4510 C.3    11  PRO11       0.0939
     14  N          7.2680   35.0750   14.0990 N.am   12  GLY12      -0.1955
     15  CA         7.3100   35.1080   15.5440 C.3    12  GLY12       0.1869
     16  C          6.6050   33.8690   16.0740 C.2    12  GLY12       0.2309
     17  O          5.5880   33.4360   15.4910 O.2    12  GLY12      -0.2863
     18  N          4.9020   33.6650   18.8640 N.3    14  GLY14      -0.1210
     19  CA         3.5750   34.0940   19.2890 C.3    14  GLY14       0.1956
     20  C          2.5990   34.3370   18.1570 C.2    14  GLY14       0.2611
     21  O          1.3790   34.2850   18.3530 O.2    14  GLY14      -0.2717
     22  N          3.1210   34.6180   16.9580 N.am   15  HIS15      -0.1975
     23  CA         2.2700   34.6840   15.7800 C.3    15  HIS15       0.1656
     24  C          1.8610   33.2920   15.2950 C.2    15  HIS15       0.2291
     25  O          0.7120   33.0700   14.8860 O.2    15  HIS15      -0.2864
     26  CB         3.0270   35.3870   14.6260 C.3    15  HIS15       0.0771
     27  CG         3.1820   36.8660   14.7990 C.ar   15  HIS15       0.0820
     28  ND1        2.1320   37.7400   14.6810 N.ar   15  HIS15      -0.2267
     29  CD2        4.2790   37.6270   15.0310 C.ar   15  HIS15       0.1154
     30  CE1        2.5600   38.9820   14.8470 C.ar   15  HIS15       0.1986
     31  NE2        3.8650   38.9420   15.0620 N.ar   15  HIS15      -0.2212
     32  N         13.9910   38.7910   13.0790 N.3    60  ALA60      -0.1245
     33  CA        13.0450   39.8370   13.4180 C.3    60  ALA60       0.1562
     34  C         13.7590   40.9710   14.1310 C.2    60  ALA60       0.2260
     35  O         13.4460   42.1360   13.8910 O.2    60  ALA60      -0.2867
     36  CB        11.9040   39.2780   14.2720 C.3    60  ALA60       0.0290
     37  N         13.7080   45.0030   13.3260 N.3    64  PHE64      -0.1241
     38  CA        13.3490   46.0560   14.2940 C.3    64  PHE64       0.1605
     39  C         14.4280   47.1350   14.3360 C.2    64  PHE64       0.2264
     40  O         14.1380   48.3260   14.3880 O.2    64  PHE64      -0.2867
     41  CB        13.2050   45.5080   15.7270 C.3    64  PHE64       0.0534
     42  CG        12.1520   44.4340   15.8920 C.ar   64  PHE64      -0.0203
     43  CD1       11.1770   44.2260   14.9470 C.ar   64  PHE64      -0.0042
     44  CD2       12.1610   43.6420   17.0290 C.ar   64  PHE64      -0.0042
     45  CE1       10.2050   43.1900   15.1210 C.ar   64  PHE64      -0.0003
     46  CE2       11.2070   42.6250   17.2140 C.ar   64  PHE64      -0.0003
     47  CZ        10.2390   42.4050   16.2710 C.ar   64  PHE64      -0.0000
     48  N         -3.1460   49.9170   15.5000 N.3    86  LEU86      -0.1245
     49  CA        -2.0460   49.4310   14.6670 C.3    86  LEU86       0.1561
     50  C         -1.9630   50.1290   13.3050 C.2    86  LEU86       0.2260
     51  O         -0.9460   50.0220   12.6360 O.2    86  LEU86      -0.2867
     52  CB        -2.0910   47.9120   14.5120 C.3    86  LEU86       0.0270
     53  CG        -1.8740   47.1790   15.8350 C.3    86  LEU86       0.0019
     54  CD1       -2.0030   45.6810   15.6480 C.3    86  LEU86       0.0001
     55  CD2       -0.5110   47.5100   16.4280 C.3    86  LEU86       0.0001
     56  N          6.2210   49.8100   10.7740 N.3    92  GLN92      -0.1231
     57  CA         6.9650   48.7600   11.4580 C.3    92  GLN92       0.1698
     58  C          6.4980   47.3700   11.0270 C.2    92  GLN92       0.2592
     59  O          7.3160   46.5080   10.6850 O.2    92  GLN92      -0.2718
     60  CB         6.7940   48.9490   12.9720 C.3    92  GLN92       0.0381
     61  CG         7.4830   47.8400   13.7550 C.3    92  GLN92       0.0905
     62  CD         8.5310   48.3560   14.6920 C.2    92  GLN92       0.2608
     63  OE1        8.7080   49.5830   14.8540 O.2    92  GLN92      -0.2717
     64  NE2        9.2180   47.4380   15.3590 N.am   92  GLN92      -0.0878
     65  N          5.1890   47.1520   11.0210 N.am   93  ILE93      -0.1980
     66  CA         4.6180   45.8600   10.6240 C.3    93  ILE93       0.1595
     67  C          4.8450   45.5860    9.1310 C.2    93  ILE93       0.2287
     68  O          5.1000   44.4320    8.7310 O.2    93  ILE93      -0.2864
     69  CB         3.1440   45.7510   11.0290 C.3    93  ILE93       0.0276
     70  CG1        3.0360   45.9540   12.5600 C.3    93  ILE93       0.0022
     71  CG2        2.5980   44.3580   10.6740 C.3    93  ILE93       0.0022
     72  CD1        1.6140   46.1220   12.9960 C.3    93  ILE93       0.0001
     73  N          8.3090   44.2210    8.7420 N.3    96  VAL96      -0.1245
     74  CA         8.3580   42.8120    9.2020 C.3    96  VAL96       0.1561
     75  C          7.8150   41.8720    8.1100 C.2    96  VAL96       0.2260
     76  O          8.3510   40.7800    7.8840 O.2    96  VAL96      -0.2867
     77  CB         7.5430   42.6450   10.5290 C.3    96  VAL96       0.0252
     78  CG1        7.1980   41.1310   10.7740 C.3    96  VAL96       0.0019
     79  CG2        8.2850   43.3040   11.7340 C.3    96  VAL96       0.0019
     80  N         -3.3250   37.5950   12.4240 N.3   120  GLN120     -0.1231
     81  CA        -3.6730   39.0110   12.2610 C.3   120  GLN120      0.1698
     82  C         -2.5090   39.9220   11.8490 C.2   120  GLN120      0.2592
     83  O         -2.7140   40.9360   11.1580 O.2   120  GLN120     -0.2718
     84  CB        -4.3450   39.4720   13.5690 C.3   120  GLN120      0.0381
     85  CG        -4.9170   40.9040   13.5490 C.3   120  GLN120      0.0905
     86  CD        -5.6510   41.2010   14.8630 C.2   120  GLN120      0.2608
     87  OE1       -5.3960   40.5590   15.8890 O.2   120  GLN120     -0.2717
     88  NE2       -6.5210   42.2100   14.8530 N.am  120  GLN120     -0.0878
     89  N         -1.2920   39.5900   12.2850 N.am  121  GLY121     -0.1957
     90  CA        -0.1200   40.3840   11.9410 C.3   121  GLY121      0.1869
     91  C          0.3740   40.2040   10.5130 C.2   121  GLY121      0.2309
     92  O          1.1530   41.0110   10.0110 O.2   121  GLY121     -0.2863
     93  N         -5.0300   38.1190   17.4430 N.3   141  GLN141     -0.1231
     94  CA        -4.0030   38.0300   18.4990 C.3   141  GLN141      0.1698
     95  C         -4.3240   39.0190   19.6140 C.2   141  GLN141      0.2592
     96  O         -4.7170   40.1650   19.3220 O.2   141  GLN141     -0.2718
     97  CB        -2.6340   38.4210   17.9350 C.3   141  GLN141      0.0381
     98  CG        -2.2310   37.6900   16.6620 C.3   141  GLN141      0.0905
     99  CD        -1.7930   36.2770   16.9540 C.2   141  GLN141      0.2608
    100  OE1       -2.0710   35.7400   18.0260 O.2   141  GLN141     -0.2717
    101  NE2       -1.0690   35.6700   16.0060 N.am  141  GLN141     -0.0878
    102  N         -4.1790   38.5950   20.8730 N.am  142  SER142     -0.1952
    103  CA        -4.4730   39.4600   22.0320 C.3   142  SER142      0.1924
    104  C         -5.7970   40.1620   21.8080 C.2   142  SER142      0.2314
    105  O         -6.7700   39.5130   21.4010 O.2   142  SER142     -0.2863
    106  CB        -3.2990   40.4040   22.3410 C.3   142  SER142      0.2116
    107  OG        -2.1150   39.6160   22.5510 O.3   142  SER142     -0.2180
    108  N         -6.0600   43.2650   20.0380 N.3   144  TRP144     -0.1241
    109  CA        -5.9610   44.2840   18.9780 C.3   144  TRP144      0.1605
    110  C         -7.1800   44.2780   18.0430 C.2   144  TRP144      0.2264
    111  O         -7.6430   43.2140   17.5720 O.2   144  TRP144     -0.2867
    112  CB        -4.6790   44.1010   18.1500 C.3   144  TRP144      0.0550
    113  CG        -3.4280   44.5690   18.7840 C.ar  144  TRP144      0.0003
    114  CD1       -3.0580   45.8690   19.0440 C.ar  144  TRP144      0.0946
    115  CD2       -2.3380   43.7490   19.2370 C.ar  144  TRP144      0.0152
    116  NE1       -1.8090   45.9050   19.6130 N.ar  144  TRP144     -0.2442
    117  CE2       -1.3420   44.6200   19.7380 C.ar  144  TRP144      0.0810
    118  CE3       -2.1120   42.3520   19.2540 C.ar  144  TRP144      0.0012
    119  CZ2       -0.1330   44.1610   20.2640 C.ar  144  TRP144      0.0191
    120  CZ3       -0.9150   41.8910   19.7720 C.ar  144  TRP144      0.0001
    121  CH2        0.0620   42.7920   20.2690 C.ar  144  TRP144      0.0015
    122  N         -5.7790   48.4810    9.7870 N.3   149  MET149     -0.1245
    123  CA        -4.3520   48.1820    9.9300 C.3   149  MET149      0.1570
    124  C         -3.7480   47.6040    8.6490 C.2   149  MET149      0.2261
    125  O         -2.5970   47.9020    8.3220 O.2   149  MET149     -0.2867
    126  CB        -4.0580   47.2410   11.1190 C.3   149  MET149      0.0387
    127  CG        -4.4850   45.7860   10.9010 C.3   149  MET149      0.0595
    128  SD        -4.1710   44.7610   12.3900 S.3   149  MET149     -0.1393
    129  CE        -2.4430   44.4030   12.1380 C.3   149  MET149      0.0692
    130  N         10.0760   37.0800   22.2010 N.3   224  ILE224     -0.1231
    131  CA        10.6550   38.2100   21.4500 C.3   224  ILE224      0.1692
    132  C         11.1370   39.3660   22.3580 C.2   224  ILE224      0.2591
    133  O         12.1190   40.0330   22.0040 O.2   224  ILE224     -0.2718
    134  CB         9.7010   38.6950   20.3410 C.3   224  ILE224      0.0266
    135  CG1       10.3680   39.7290   19.4200 C.3   224  ILE224      0.0019
    136  CG2        8.4040   39.2960   20.9260 C.3   224  ILE224      0.0020
    137  CD1       11.5210   39.1380   18.6340 C.3   224  ILE224      0.0001
    138  N         10.5010   39.5950   23.5130 N.am  225  GLU225     -0.1979
    139  CA        10.8160   40.8050   24.2860 C.3   225  GLU225      0.1602
    140  C         12.2780   40.8410   24.7310 C.2   225  GLU225      0.2287
    141  O         12.9370   41.8630   24.5670 O.2   225  GLU225     -0.2864
    142  CB         9.9130   40.9630   25.5120 C.3   225  GLU225      0.0415
    143  CG        10.2530   42.1680   26.3410 C.3   225  GLU225      0.1163
    144  CD         9.2830   42.4170   27.4770 C.2   225  GLU225      0.3649
    145  OE1        8.1350   42.8570   27.1910 O.co2 225  GLU225     -0.2457
    146  OE2        9.6770   42.1900   28.6430 O.co2 225  GLU225     -0.2457
    147  N         14.7320   41.2350   21.9260 N.3   228  ALA228     -0.1231
    148  CA        14.7860   42.5890   21.3380 C.3   228  ALA228      0.1694
    149  C         15.4170   43.6060   22.2820 C.2   228  ALA228      0.2592
    150  O         16.1810   44.4650   21.8230 O.2   228  ALA228     -0.2718
    151  CB        13.3870   43.0590   20.8810 C.3   228  ALA228      0.0304
    152  N         15.1190   43.4950   23.5770 N.am  229  PHE229     -0.1976
    153  CA        15.5350   44.4970   24.5630 C.3   229  PHE229      0.1639
    154  C         16.6790   44.0550   25.4850 C.2   229  PHE229      0.2290
    155  O         17.2280   44.8670   26.2560 O.2   229  PHE229     -0.2864
    156  CB        14.3330   44.9300   25.4210 C.3   229  PHE229      0.0560
    157  CG        13.3160   45.7420   24.6820 C.ar  229  PHE229     -0.0200
    158  CD1       13.5280   47.1000   24.4420 C.ar  229  PHE229     -0.0042
    159  CD2       12.1240   45.1810   24.2460 C.ar  229  PHE229     -0.0042
    160  CE1       12.5800   47.8550   23.7820 C.ar  229  PHE229     -0.0003
    161  CE2       11.1910   45.9340   23.5570 C.ar  229  PHE229     -0.0003
    162  CZ        11.4070   47.2870   23.3460 C.ar  229  PHE229     -0.0000
    163  N          5.1270   38.8200   30.5280 N.3   288  HIS288     -0.1226
    164  CA         5.2690   40.1450   29.9180 C.3   288  HIS288      0.1752
    165  C          3.9480   40.6960   29.3890 C.2   288  HIS288      0.2597
    166  O          3.8640   41.8840   29.0850 O.2   288  HIS288     -0.2718
    167  CB         6.2810   40.0610   28.7670 C.3   288  HIS288      0.0759
    168  CG         5.8670   39.1170   27.6810 C.ar  288  HIS288      0.0818
    169  ND1        5.4470   37.8270   27.9260 N.ar  288  HIS288     -0.2268
    170  CD2        5.8120   39.2840   26.3420 C.ar  288  HIS288      0.1154
    171  CE1        5.1230   37.2510   26.7810 C.ar  288  HIS288      0.1986
    172  NE2        5.3640   38.1040   25.8030 N.ar  288  HIS288     -0.2212
    173  N          2.9360   39.8390   29.2370 N.am  289  GLY289     -0.1942
    174  CA         1.6790   40.2950   28.6640 C.3   289  GLY289      0.2014
    175  C          1.3580   39.7670   27.2660 C.2   289  GLY289      0.2639
    176  O          0.3520   40.1930   26.6360 O.2   289  GLY289     -0.2714
    177  N          2.1630   38.8010   26.7890 N.am  290  GLY290     -0.1939
    178  CA         1.8730   38.1720   25.4990 C.3   290  GLY290      0.2014
    179  C          0.5150   37.4880   25.5270 C.2   290  GLY290      0.2639
    180  O          0.1370   36.9020   26.5580 O.2   290  GLY290     -0.2714
    181  N         -0.2360   37.6260   24.4450 N.am  291  GLY291     -0.1939
    182  CA        -1.6070   37.1020   24.3800 C.3   291  GLY291      0.2014
    183  C         -1.6810   35.5770   24.5720 C.2   291  GLY291      0.2639
    184  O         -2.5790   35.0700   25.2500 O.2   291  GLY291     -0.2714
    185  N         -0.7230   34.8640   24.0020 N.am  292  GLY292     -0.1954
    186  CA        -0.7200   33.4180   24.1120 C.3   292  GLY292      0.1869
    187  C         -0.4760   33.0380   25.5850 C.2   292  GLY292      0.2309
    188  O         -1.0900   32.0950   26.1160 O.2   292  GLY292     -0.2863
    189  N          8.7810   48.1000   26.1330 N.3   312  ASP312     -0.1239
    190  CA         8.1050   47.2570   25.1610 C.3   312  ASP312      0.1674
    191  C          6.6810   47.7580   24.9370 C.2   312  ASP312      0.2266
    192  O          5.8880   47.8440   25.8880 O.2   312  ASP312     -0.2867
    193  CB         8.0880   45.8100   25.6720 C.3   312  ASP312      0.1410
    194  CG         7.5720   44.8180   24.6370 C.2   312  ASP312      0.3668
    195  OD1        6.9720   45.2520   23.6270 O.co2 312  ASP312     -0.2456
    196  OD2        7.7960   43.5860   24.8430 O.co2 312  ASP312     -0.2456
    197  N          4.4020   46.4570   22.7310 N.3   314  PHE314     -0.1227
    198  CA         3.5130   45.4810   22.0970 C.3   314  PHE314      0.1736
    199  C          2.7920   44.5410   23.0540 C.2   314  PHE314      0.2595
    200  O          2.1750   43.5540   22.6310 O.2   314  PHE314     -0.2718
    201  CB         4.2870   44.6880   21.0400 C.3   314  PHE314      0.0547
    202  CG         4.4410   45.4470   19.7780 C.ar  314  PHE314     -0.0202
    203  CD1        3.4330   45.4220   18.8140 C.ar  314  PHE314     -0.0042
    204  CD2        5.5570   46.2340   19.5820 C.ar  314  PHE314     -0.0042
    205  CE1        3.5420   46.1680   17.6480 C.ar  314  PHE314     -0.0003
    206  CE2        5.6750   46.9820   18.3960 C.ar  314  PHE314     -0.0003
    207  CZ         4.6690   46.9390   17.4470 C.ar  314  PHE314     -0.0000
    208  N          2.8150   44.8710   24.3430 N.am  315  GLN315     -0.1979
    209  CA         2.1520   43.9970   25.3330 C.3   315  GLN315      0.1601
    210  C          1.0160   44.7070   26.0740 C.2   315  GLN315      0.2287
    211  O          0.7710   44.4190   27.2440 O.2   315  GLN315     -0.2864
    212  CB         3.1480   43.5450   26.3810 C.3   315  GLN315      0.0394
    213  CG         4.5250   43.1470   25.8100 C.3   315  GLN315      0.0908
    214  CD         4.4150   42.1090   24.7160 C.2   315  GLN315      0.2608
    215  OE1        3.4900   41.2970   24.7090 O.2   315  GLN315     -0.2717
    216  NE2        5.3640   42.1270   23.7760 N.am  315  GLN315     -0.0878
@<TRIPOS>BOND
     1    76    75    2
     2    75    74    1
     3   125   124    2
     4   124   123    1
     5    68    67    2
     6    73    74    1
     7    67    66    1
     8    74    77    1
     9   122   123    1
    10   123   126    1
    11    92    91    2
    12     1     2    1
    13    13    12    1
    14    13     7    1
    15    91    90    1
    16    77    78    1
    17    77    79    1
    18     2     3    1
    19     2     5    1
    20    66    65    1
    21    66    69    1
    22    12    11    1
    23    71    69    1
    24    59    58    2
    25    56    57    1
    26   127   126    1
    27   127   128    1
    28     6     5    1
    29    65    58   am
    30    58    57    1
    31    69    70    1
    32    11     8    1
    33    83    82    2
    34     7     3   am
    35     7     8    1
    36     3     4    2
    37    57    60    1
    38    82    81    1
    39    82    89   am
    40     8     9    1
    41    90    89    1
    42   129   128    1
    43    81    80    1
    44    81    84    1
    45    70    72    1
    46    51    50    2
    47    60    61    1
    48    32    33    1
    49    50    49    1
    50    37    38    1
    51     9    10    2
    52     9    14   am
    53    33    34    1
    54    33    36    1
    55    85    84    1
    56    85    86    1
    57    61    62    1
    58    35    34    2
    59    14    15    1
    60    38    39    1
    61    38    41    1
    62    39    40    2
    63    52    49    1
    64    52    53    1
    65    26    27    1
    66    26    23    1
    67    49    48    1
    68    28    27   ar
    69    28    30   ar
    70    62    63    2
    71    62    64   am
    72    27    29   ar
    73    30    31   ar
    74    88    86   am
    75    86    87    2
    76    25    24    2
    77    43    45   ar
    78    43    42   ar
    79    29    31   ar
    80    45    47   ar
    81    24    23    1
    82    17    16    2
    83    15    16    1
    84    54    53    1
    85    41    42    1
    86    23    22    1
    87    53    55    1
    88    42    44   ar
    89   101    99   am
    90    47    46   ar
    91    98    99    1
    92    98    97    1
    93    99   100    2
    94    22    20   am
    95    44    46   ar
    96    93    94    1
    97   207   205   ar
    98   207   206   ar
    99   111   110    2
   100   205   203   ar
   101    97    94    1
   102   110   109    1
   103   112   113    1
   104   112   109    1
   105    20    21    2
   106    20    19    1
   107   206   204   ar
   108    94    95    1
   109   137   135    1
   110   113   114   ar
   111   113   115   ar
   112   203   202   ar
   113    18    19    1
   114   109   108    1
   115   114   116   ar
   116   115   118   ar
   117   115   117   ar
   118   118   120   ar
   119    96    95    2
   120   135   134    1
   121   204   202   ar
   122   116   117   ar
   123    95   102   am
   124   117   119   ar
   125   120   121   ar
   126   202   201    1
   127   119   121   ar
   128   134   136    1
   129   134   131    1
   130   102   103    1
   131   151   148    1
   132   201   198    1
   133   148   147    1
   134   148   149    1
   135   105   104    2
   136   131   130    1
   137   131   132    1
   138   104   103    1
   139   150   149    2
   140   133   132    2
   141   103   106    1
   142   198   197    1
   143   198   199    1
   144   149   152   am
   145   106   107    1
   146   132   138   am
   147   200   199    2
   148   199   208   am
   149   162   161   ar
   150   162   160   ar
   151   138   139    1
   152   161   159   ar
   153   152   153    1
   154   195   194   ar
   155   216   214   am
   156   160   158   ar
   157   185   186    1
   158   185   183   am
   159   186   187    1
   160   159   157   ar
   161   139   140    1
   162   139   142    1
   163   208   209    1
   164   182   181    1
   165   182   183    1
   166   158   157   ar
   167   181   179   am
   168   153   156    1
   169   153   154    1
   170   141   140    2
   171   183   184    2
   172   194   196   ar
   173   194   193    1
   174   157   156    1
   175   215   214    2
   176   214   213    1
   177   191   190    1
   178   191   192    2
   179   190   193    1
   180   190   189    1
   181   209   210    1
   182   209   212    1
   183   154   155    2
   184   178   179    1
   185   178   177    1
   186   142   143    1
   187   179   180    2
   188   187   188    2
   189   172   170   ar
   190   172   171   ar
   191   213   212    1
   192   210   211    2
   193   143   144    1
   194   170   168   ar
   195   176   175    2
   196   171   169   ar
   197   177   175   am
   198   145   144   ar
   199   175   174    1
   200   144   146   ar
   201   168   169   ar
   202   168   167    1
   203   174   173    1
   204   167   164    1
   205   166   165    2
   206   173   165   am
   207   165   164    1
   208   164   163    1
