@<TRIPOS>MOLECULE
tmp/3otkB00.pdb
 121 114 0 0 0
SMALL
GASTEIGER

@<TRIPOS>ATOM
      1  N          6.2410  -12.1450  -54.8890 N.3    67  VAL67      -0.1231
      2  CA         6.6310  -10.7390  -54.7890 C.3    67  VAL67       0.1692
      3  C          6.6320  -10.2620  -53.3360 C.2    67  VAL67       0.2592
      4  O          5.5850  -10.2200  -52.6940 O.2    67  VAL67      -0.2718
      5  CB         5.7490   -9.8280  -55.6690 C.3    67  VAL67       0.0266
      6  CG1        6.3080   -8.4240  -55.7070 C.3    67  VAL67       0.0020
      7  CG2        5.6880  -10.3400  -57.0750 C.3    67  VAL67       0.0020
      8  N          7.8160   -9.9180  -52.8190 N.am   68  VAL68      -0.1966
      9  CA         7.9620   -9.6120  -51.3880 C.3    68  VAL68       0.1727
     10  C          8.7750   -8.3610  -51.0850 C.2    68  VAL68       0.2616
     11  O          9.4510   -7.8380  -51.9620 O.2    68  VAL68      -0.2715
     12  CB         8.5640  -10.8040  -50.6160 C.3    68  VAL68       0.0290
     13  CG1        7.6520  -12.0220  -50.7410 C.3    68  VAL68       0.0023
     14  CG2       10.0040  -11.1100  -51.0900 C.3    68  VAL68       0.0023
     15  N          8.7040   -7.8620  -49.8510 N.am   69  HIS69      -0.1973
     16  CA         9.4780   -6.6590  -49.4990 C.3    69  HIS69       0.1656
     17  C          9.9030   -6.5480  -48.0370 C.2    69  HIS69       0.2291
     18  O         10.7800   -5.7590  -47.7220 O.2    69  HIS69      -0.2864
     19  CB         8.7700   -5.3700  -49.9500 C.3    69  HIS69       0.0771
     20  CG         7.5450   -5.0440  -49.1580 C.ar   69  HIS69       0.0820
     21  ND1        6.3410   -5.6820  -49.3550 N.ar   69  HIS69      -0.2267
     22  CD2        7.3370   -4.1440  -48.1670 C.ar   69  HIS69       0.1154
     23  CE1        5.4430   -5.1910  -48.5180 C.ar   69  HIS69       0.1986
     24  NE2        6.0240   -4.2590  -47.7850 N.ar   69  HIS69      -0.2212
     25  N         11.6450   -6.4220  -53.4460 N.3    94  ASP94      -0.1239
     26  CA        11.5540   -5.0170  -53.8320 C.3    94  ASP94       0.1674
     27  C         12.9360   -4.3720  -53.8190 C.2    94  ASP94       0.2266
     28  O         13.6570   -4.4510  -52.8170 O.2    94  ASP94      -0.2867
     29  CB        10.6080   -4.2340  -52.9200 C.3    94  ASP94       0.1410
     30  CG        10.0890   -2.9580  -53.5780 C.2    94  ASP94       0.3668
     31  OD1        8.9780   -2.9970  -54.1330 O.co2  94  ASP94      -0.2456
     32  OD2       10.7880   -1.9280  -53.5680 O.co2  94  ASP94      -0.2456
     33  N         13.7150   -1.5910  -53.1620 N.3    96  LYS96      -0.1245
     34  CA        13.8050   -0.6480  -52.0460 C.3    96  LYS96       0.1561
     35  C         13.7800   -1.3530  -50.6970 C.2    96  LYS96       0.2260
     36  O         13.5650   -0.7210  -49.6730 O.2    96  LYS96      -0.2867
     37  CB        12.6360    0.3460  -52.0730 C.3    96  LYS96       0.0271
     38  CG        12.5160    1.1800  -53.3410 C.3    96  LYS96       0.0035
     39  CD        11.4780    2.2970  -53.1740 C.3    96  LYS96       0.0206
     40  CE        10.1560    1.7910  -52.5790 C.3    96  LYS96       0.1093
     41  NZ         9.3520    0.9240  -53.5000 N.3    96  LYS96      -0.1314
     42  N          8.8700   -1.2200  -56.4770 N.3   124  VAL124     -0.1245
     43  CA         7.4310   -1.3580  -56.6180 C.3   124  VAL124      0.1561
     44  C          6.6710   -0.2550  -55.9100 C.2   124  VAL124      0.2260
     45  O          6.7570   -0.1150  -54.6860 O.2   124  VAL124     -0.2867
     46  CB         6.9240   -2.7260  -56.1220 C.3   124  VAL124      0.0252
     47  CG1        5.3920   -2.7350  -56.0440 C.3   124  VAL124      0.0019
     48  CG2        7.4180   -3.8450  -57.0370 C.3   124  VAL124      0.0019
     49  N          2.8610    1.5900  -55.2360 N.3   126  TYR126     -0.1241
     50  CA         1.4390    1.2770  -55.1750 C.3   126  TYR126      0.1605
     51  C          0.6780    1.7020  -56.4470 C.2   126  TYR126      0.2264
     52  O          0.8630    2.8050  -56.9570 O.2   126  TYR126     -0.2867
     53  CB         0.8090    1.8990  -53.9220 C.3   126  TYR126      0.0534
     54  CG        -0.6770    1.6710  -53.8230 C.ar  126  TYR126     -0.0201
     55  CD1       -1.1890    0.3930  -53.6180 C.ar  126  TYR126     -0.0009
     56  CD2       -1.5720    2.7320  -53.9390 C.ar  126  TYR126     -0.0009
     57  CE1       -2.5480    0.1770  -53.5330 C.ar  126  TYR126      0.0417
     58  CE2       -2.9330    2.5290  -53.8490 C.ar  126  TYR126      0.0417
     59  CZ        -3.4170    1.2470  -53.6480 C.ar  126  TYR126      0.1957
     60  OH        -4.7720    1.0290  -53.5620 O.3   126  TYR126     -0.2866
     61  N          4.3970   -3.0400  -60.2010 N.3   131  ARG131     -0.1245
     62  CA         3.8220   -4.2270  -59.5830 C.3   131  ARG131      0.1563
     63  C          3.6650   -5.3370  -60.6150 C.2   131  ARG131      0.2260
     64  O          3.9380   -6.4930  -60.3300 O.2   131  ARG131     -0.2867
     65  CB         2.4750   -3.8880  -58.9220 C.3   131  ARG131      0.0307
     66  CG         1.6340   -5.1080  -58.5350 C.3   131  ARG131      0.0489
     67  CD         2.3390   -5.8810  -57.4450 C.3   131  ARG131      0.2205
     68  NE         1.5880   -7.0490  -57.0080 N.pl3 131  ARG131     -0.0865
     69  CZ         1.7740   -8.2790  -57.4730 C.cat 131  ARG131      0.5346
     70  NH1        2.6830   -8.5130  -58.4220 N.pl3 131  ARG131      0.1354
     71  NH2        1.0440   -9.2770  -56.9880 N.pl3 131  ARG131      0.1354
     72  N          2.1280  -13.1800  -53.3180 N.3   156  SER156     -0.1202
     73  CA         2.7410  -12.1130  -52.5680 C.3   156  SER156      0.2020
     74  C          2.9040  -12.6060  -51.1200 C.2   156  SER156      0.2619
     75  O          2.4990  -13.7250  -50.7990 O.2   156  SER156     -0.2717
     76  CB         1.9200  -10.8260  -52.6760 C.3   156  SER156      0.2103
     77  OG         0.6380  -10.9800  -52.0910 O.3   156  SER156     -0.2182
     78  N          3.4880  -11.7730  -50.2620 N.am  157  GLY157     -0.1942
     79  CA         3.9720  -12.2150  -48.9600 C.3   157  GLY157      0.2014
     80  C          2.9140  -12.6650  -47.9720 C.2   157  GLY157      0.2638
     81  O          3.1460  -13.5870  -47.1710 O.2   157  GLY157     -0.2714
     82  N          1.7520  -12.0190  -48.0200 N.am  158  MET158     -0.1976
     83  CA         0.6840  -12.3330  -47.0760 C.3   158  MET158      0.1605
     84  C         -0.3210  -13.3850  -47.5720 C.2   158  MET158      0.2287
     85  O         -1.3680  -13.5960  -46.9550 O.2   158  MET158     -0.2864
     86  CB         0.0050  -11.0450  -46.5990 C.3   158  MET158      0.0413
     87  CG         0.8770  -10.2580  -45.6170 C.3   158  MET158      0.0598
     88  SD         0.2020   -8.6780  -45.0320 S.3   158  MET158     -0.1393
     89  CE        -1.3190   -9.2050  -44.2480 C.3   158  MET158      0.0692
     90  N         -3.8650  -11.5350  -59.3860 N.3   227  TYR227     -0.1241
     91  CA        -3.5390  -12.9330  -59.1570 C.3   227  TYR227      0.1605
     92  C         -4.0830  -13.8550  -60.2170 C.2   227  TYR227      0.2264
     93  O         -5.2390  -13.7520  -60.6270 O.2   227  TYR227     -0.2867
     94  CB        -3.9730  -13.3570  -57.7480 C.3   227  TYR227      0.0534
     95  CG        -3.2980  -12.4900  -56.7030 C.ar  227  TYR227     -0.0201
     96  CD1       -1.9040  -12.4570  -56.6090 C.ar  227  TYR227     -0.0009
     97  CD2       -4.0360  -11.6620  -55.8580 C.ar  227  TYR227     -0.0009
     98  CE1       -1.2610  -11.6540  -55.6840 C.ar  227  TYR227      0.0417
     99  CE2       -3.3970  -10.8510  -54.9220 C.ar  227  TYR227      0.0417
    100  CZ        -2.0090  -10.8550  -54.8410 C.ar  227  TYR227      0.1957
    101  OH        -1.3510  -10.0650  -53.9210 O.3   227  TYR227     -0.2866
    102  N         -8.0380   -2.0100  -45.2010 N.3   317  ARG317     -0.1245
    103  CA        -8.5330   -1.4920  -46.4760 C.3   317  ARG317      0.1563
    104  C         -9.6240   -2.3760  -47.0920 C.2   317  ARG317      0.2260
    105  O         -9.5760   -2.6990  -48.2920 O.2   317  ARG317     -0.2867
    106  CB        -7.3740   -1.2690  -47.4590 C.3   317  ARG317      0.0307
    107  CG        -6.4230   -0.1340  -47.0390 C.3   317  ARG317      0.0489
    108  CD        -5.6720    0.4470  -48.2370 C.3   317  ARG317      0.2205
    109  NE        -4.9650   -0.5700  -49.0160 N.pl3 317  ARG317     -0.0865
    110  CZ        -3.7310   -0.9940  -48.7550 C.cat 317  ARG317      0.5346
    111  NH1       -3.0570   -0.4960  -47.7270 N.pl3 317  ARG317      0.1354
    112  NH2       -3.1710   -1.9200  -49.5210 N.pl3 317  ARG317      0.1354
    113  N         -5.8360  -12.2590  -46.9600 N.3   340  LYS340     -0.1245
    114  CA        -4.4420  -12.2590  -46.5220 C.3   340  LYS340      0.1561
    115  C         -4.3250  -12.7770  -45.1010 C.2   340  LYS340      0.2260
    116  O         -5.3110  -12.8470  -44.3810 O.2   340  LYS340     -0.2867
    117  CB        -3.7960  -10.8630  -46.6540 C.3   340  LYS340      0.0271
    118  CG        -4.5480   -9.7250  -45.9970 C.3   340  LYS340      0.0035
    119  CD        -4.1410   -8.3620  -46.5890 C.3   340  LYS340      0.0206
    120  CE        -5.0340   -7.2360  -46.0540 C.3   340  LYS340      0.1093
    121  NZ        -4.9180   -5.9340  -46.7920 N.3   340  LYS340     -0.1314
@<TRIPOS>BOND
     1    93    92    2
     2    63    64    2
     3    63    62    1
     4    92    91    1
     5    61    62    1
     6    62    65    1
     7    90    91    1
     8    91    94    1
     9    65    66    1
    10    66    67    1
    11    70    69    1
    12    94    95    1
    13    69    68    2
    14    69    71    1
    15    67    68    1
    16     7     5    1
    17    48    46    1
    18    52    51    2
    19    95    96   ar
    20    95    97   ar
    21    43    42    1
    22    43    46    1
    23    43    44    1
    24    96    98   ar
    25    51    50    1
    26    46    47    1
    27    44    45    2
    28    97    99   ar
    29     6     5    1
    30    98   100   ar
    31     5     2    1
    32    49    50    1
    33    50    53    1
    34    99   100   ar
    35     1     2    1
    36   100   101    1
    37     2     3    1
    38    31    30   ar
    39    56    58   ar
    40    56    54   ar
    41    53    54    1
    42    58    59   ar
    43    26    27    1
    44    26    25    1
    45    26    29    1
    46    54    55   ar
    47    27    28    2
    48    59    60    1
    49    59    57   ar
    50    55    57   ar
    51    30    32   ar
    52    30    29    1
    53    41    40    1
    54    38    39    1
    55    38    37    1
    56     3     8   am
    57     3     4    2
    58    72    73    1
    59    39    40    1
    60    33    34    1
    61     8     9    1
    62    76    73    1
    63    76    77    1
    64    73    74    1
    65    37    34    1
    66    34    35    1
    67    11    10    2
    68     9    10    1
    69     9    12    1
    70    74    75    2
    71    74    78   am
    72    14    12    1
    73    10    15   am
    74    13    12    1
    75    35    36    2
    76    78    79    1
    77    19    16    1
    78    19    20    1
    79    15    16    1
    80   112   110    1
    81    16    17    1
    82    21    20   ar
    83    21    23   ar
    84    20    22   ar
    85   109   110    2
    86   109   108    1
    87    79    80    1
    88   110   111    1
    89    23    24   ar
    90   105   104    2
    91   108   107    1
    92    22    24   ar
    93    17    18    2
    94    82    80   am
    95    82    83    1
    96    80    81    2
    97    84    83    1
    98    84    85    2
    99   106   107    1
   100   106   103    1
   101   104   103    1
   102    83    86    1
   103   113   114    1
   104   121   120    1
   105   117   114    1
   106   117   118    1
   107    86    87    1
   108   119   120    1
   109   119   118    1
   110   114   115    1
   111   103   102    1
   112    87    88    1
   113   115   116    2
   114    88    89    1
