@<TRIPOS>MOLECULE
tmp/3otkA01.pdb
 107 104 0 0 0
SMALL
GASTEIGER

@<TRIPOS>ATOM
      1  N        -45.7670  -36.2220  -72.5510 N.3   130  VAL130     -0.1231
      2  CA       -45.0000  -35.0020  -72.4260 C.3   130  VAL130      0.1692
      3  C        -45.4920  -33.9490  -73.3920 C.2   130  VAL130      0.2592
      4  O        -45.3490  -34.0900  -74.6000 O.2   130  VAL130     -0.2718
      5  CB       -43.4960  -35.2470  -72.6750 C.3   130  VAL130      0.0266
      6  CG1      -42.6830  -33.9220  -72.5430 C.3   130  VAL130      0.0020
      7  CG2      -42.9800  -36.3030  -71.7300 C.3   130  VAL130      0.0020
      8  N        -46.0710  -32.8950  -72.8350 N.am  131  VAL131     -0.1966
      9  CA       -46.4610  -31.7210  -73.5880 C.3   131  VAL131      0.1727
     10  C        -45.3330  -30.6810  -73.5750 C.2   131  VAL131      0.2616
     11  O        -44.8470  -30.2700  -72.5220 O.2   131  VAL131     -0.2715
     12  CB       -47.7400  -31.1160  -72.9920 C.3   131  VAL131      0.0290
     13  CG1      -48.1130  -29.8300  -73.6850 C.3   131  VAL131      0.0023
     14  CG2      -48.8830  -32.1230  -73.0730 C.3   131  VAL131      0.0023
     15  N        -44.9150  -30.2640  -74.7590 N.am  132  TYR132     -0.1960
     16  CA       -43.8870  -29.2400  -74.9110 C.3   132  TYR132      0.1771
     17  C        -44.0360  -28.0950  -73.8920 C.2   132  TYR132      0.2619
     18  O        -45.1250  -27.5260  -73.7270 O.2   132  TYR132     -0.2715
     19  CB       -43.9530  -28.7060  -76.3450 C.3   132  TYR132      0.0574
     20  CG       -42.8500  -27.7510  -76.7360 C.ar  132  TYR132     -0.0198
     21  CD1      -41.6330  -28.2280  -77.2220 C.ar  132  TYR132     -0.0009
     22  CD2      -43.0310  -26.3700  -76.6480 C.ar  132  TYR132     -0.0009
     23  CE1      -40.6190  -27.3580  -77.5930 C.ar  132  TYR132      0.0417
     24  CE2      -42.0190  -25.4930  -77.0190 C.ar  132  TYR132      0.0417
     25  CZ       -40.8160  -25.9930  -77.4900 C.ar  132  TYR132      0.1957
     26  OH       -39.8090  -25.1280  -77.8610 O.3   132  TYR132     -0.2866
     27  N        -42.9410  -27.7840  -73.1970 N.am  133  ALA133     -0.1977
     28  CA       -42.8810  -26.6750  -72.2290 C.3   133  ALA133      0.1597
     29  C        -43.6820  -26.8750  -70.9480 C.2   133  ALA133      0.2287
     30  O        -43.8250  -25.9500  -70.1350 O.2   133  ALA133     -0.2864
     31  CB       -43.2560  -25.3430  -72.8890 C.3   133  ALA133      0.0319
     32  N        -42.5120  -32.6590  -68.8110 N.3   137  ARG137     -0.1245
     33  CA       -41.1220  -32.8100  -69.2120 C.3   137  ARG137      0.1563
     34  C        -40.1950  -32.9430  -67.9840 C.2   137  ARG137      0.2260
     35  O        -39.3000  -33.7790  -67.9760 O.2   137  ARG137     -0.2867
     36  CB       -40.7010  -31.6370  -70.0990 C.3   137  ARG137      0.0307
     37  CG       -39.2020  -31.4120  -70.1850 C.3   137  ARG137      0.0489
     38  CD       -38.5850  -32.4530  -71.0790 C.3   137  ARG137      0.2205
     39  NE       -37.1320  -32.3210  -71.1360 N.pl3 137  ARG137     -0.0865
     40  CZ       -36.2970  -32.9320  -70.3060 C.cat 137  ARG137      0.5346
     41  NH1      -36.7690  -33.7160  -69.3350 N.pl3 137  ARG137      0.1354
     42  NH2      -34.9910  -32.7590  -70.4470 N.pl3 137  ARG137      0.1354
     43  N        -43.4200  -16.3210  -67.5250 N.3   199  ARG199     -0.1245
     44  CA       -43.4690  -17.7730  -67.5980 C.3   199  ARG199      0.1563
     45  C        -43.8720  -18.4400  -66.2780 C.2   199  ARG199      0.2260
     46  O        -44.3740  -19.5770  -66.2690 O.2   199  ARG199     -0.2867
     47  CB       -42.1360  -18.3250  -68.0830 C.3   199  ARG199      0.0307
     48  CG       -41.8820  -18.0590  -69.5460 C.3   199  ARG199      0.0489
     49  CD       -40.4400  -18.3830  -69.8850 C.3   199  ARG199      0.2205
     50  NE       -40.1850  -18.4470  -71.3210 N.pl3 199  ARG199     -0.0865
     51  CZ       -39.3000  -19.2700  -71.8770 C.cat 199  ARG199      0.5346
     52  NH1      -38.5940  -20.1070  -71.1180 N.pl3 199  ARG199      0.1354
     53  NH2      -39.1310  -19.2660  -73.1890 N.pl3 199  ARG199      0.1354
     54  N        -32.9310  -27.0980  -68.9590 N.3   232  ALA232     -0.1245
     55  CA       -33.4270  -28.4120  -68.5950 C.3   232  ALA232      0.1562
     56  C        -32.3150  -29.3940  -68.2000 C.2   232  ALA232      0.2260
     57  O        -32.5970  -30.4130  -67.5380 O.2   232  ALA232     -0.2867
     58  CB       -34.2530  -28.9900  -69.7440 C.3   232  ALA232      0.0290
     59  N        -44.7930  -22.1400  -67.2380 N.3   261  TYR261     -0.1227
     60  CA       -44.2830  -22.3790  -68.5780 C.3   261  TYR261      0.1736
     61  C        -42.7960  -22.7850  -68.5150 C.2   261  TYR261      0.2596
     62  O        -41.9780  -22.0890  -67.8940 O.2   261  TYR261     -0.2718
     63  CB       -44.4650  -21.1260  -69.4490 C.3   261  TYR261      0.0548
     64  CG       -44.2850  -21.4080  -70.9250 C.ar  261  TYR261     -0.0200
     65  CD1      -45.3500  -21.8330  -71.7040 C.ar  261  TYR261     -0.0009
     66  CD2      -43.0420  -21.2910  -71.5240 C.ar  261  TYR261     -0.0009
     67  CE1      -45.1870  -22.1120  -73.0420 C.ar  261  TYR261      0.0417
     68  CE2      -42.8650  -21.5710  -72.8550 C.ar  261  TYR261      0.0417
     69  CZ       -43.9360  -21.9840  -73.6110 C.ar  261  TYR261      0.1957
     70  OH       -43.7540  -22.2730  -74.9430 O.3   261  TYR261     -0.2866
     71  N        -42.4420  -23.9130  -69.1300 N.am  262  SER262     -0.1952
     72  CA       -41.0470  -24.3580  -69.1630 C.3   262  SER262      0.1924
     73  C        -40.3780  -24.4370  -67.7840 C.2   262  SER262      0.2314
     74  O        -39.2610  -23.9310  -67.6160 O.2   262  SER262     -0.2863
     75  CB       -40.2170  -23.4190  -70.0450 C.3   262  SER262      0.2116
     76  OG       -40.3620  -23.7240  -71.4150 O.3   262  SER262     -0.2180
     77  N        -38.7100  -26.4840  -66.3590 N.3   264  ASP264     -0.1225
     78  CA       -37.4040  -27.1220  -66.4830 C.3   264  ASP264      0.1805
     79  C        -36.2840  -26.1040  -66.5950 C.2   264  ASP264      0.2597
     80  O        -35.1340  -26.4030  -66.3020 O.2   264  ASP264     -0.2718
     81  CB       -37.3810  -28.0510  -67.7140 C.3   264  ASP264      0.1424
     82  CG       -38.1650  -27.4790  -68.9010 C.2   264  ASP264      0.3668
     83  OD1      -39.4230  -27.4750  -68.8650 O.co2 264  ASP264     -0.2456
     84  OD2      -37.5170  -27.0370  -69.8750 O.co2 264  ASP264     -0.2456
     85  N        -36.6430  -24.8920  -67.0000 N.am  265  GLU265     -0.1979
     86  CA       -35.6750  -23.8550  -67.2270 C.3   265  GLU265      0.1602
     87  C        -35.4740  -22.9060  -66.0550 C.2   265  GLU265      0.2287
     88  O        -34.7560  -21.9060  -66.1790 O.2   265  GLU265     -0.2864
     89  CB       -36.0260  -23.1080  -68.5150 C.3   265  GLU265      0.0415
     90  CG       -35.8150  -24.0240  -69.7360 C.3   265  GLU265      0.1163
     91  CD       -35.9530  -23.3250  -71.0790 C.2   265  GLU265      0.3649
     92  OE1      -36.6620  -22.2950  -71.1690 O.co2 265  GLU265     -0.2457
     93  OE2      -35.3510  -23.8260  -72.0520 O.co2 265  GLU265     -0.2457
     94  N        -27.5890  -20.9380  -79.5860 N.3   301  TRP301     -0.1241
     95  CA       -28.8030  -20.1840  -79.8410 C.3   301  TRP301      0.1605
     96  C        -28.5900  -19.2120  -80.9950 C.2   301  TRP301      0.2264
     97  O        -27.5920  -18.4840  -81.0340 O.2   301  TRP301     -0.2867
     98  CB       -29.2280  -19.4640  -78.5700 C.3   301  TRP301      0.0550
     99  CG       -29.6240  -20.4540  -77.5110 C.ar  301  TRP301      0.0003
    100  CD1      -28.8310  -20.9570  -76.5110 C.ar  301  TRP301      0.0946
    101  CD2      -30.8990  -21.0980  -77.3750 C.ar  301  TRP301      0.0152
    102  NE1      -29.5420  -21.8620  -75.7520 N.ar  301  TRP301     -0.2442
    103  CE2      -30.8120  -21.9670  -76.2580 C.ar  301  TRP301      0.0810
    104  CE3      -32.1100  -21.0190  -78.0820 C.ar  301  TRP301      0.0012
    105  CZ2      -31.8920  -22.7530  -75.8310 C.ar  301  TRP301      0.0191
    106  CZ3      -33.1860  -21.7980  -77.6530 C.ar  301  TRP301      0.0001
    107  CH2      -33.0660  -22.6560  -76.5390 C.ar  301  TRP301      0.0015
@<TRIPOS>BOND
     1    97    96    2
     2    96    95    1
     3    95    94    1
     4    95    98    1
     5    98    99    1
     6   104   106   ar
     7   104   101   ar
     8    26    25    1
     9   106   107   ar
    10    23    25   ar
    11    23    21   ar
    12    99   101   ar
    13    99   100   ar
    14    25    24   ar
    15   101   103   ar
    16    21    20   ar
    17    24    22   ar
    18    20    22   ar
    19    20    19    1
    20   107   105   ar
    21   100   102   ar
    22    19    16    1
    23   103   105   ar
    24   103   102   ar
    25    70    69    1
    26    16    15    1
    27    16    17    1
    28    15    10   am
    29     4     3    2
    30    17    18    2
    31    17    27   am
    32    13    12    1
    33    69    67   ar
    34    69    68   ar
    35     9    10    1
    36     9    12    1
    37     9     8    1
    38    10    11    2
    39     3     8   am
    40     3     2    1
    41    27    28    1
    42    53    51    1
    43    14    12    1
    44    67    65   ar
    45    31    28    1
    46    68    66   ar
    47     5     6    1
    48     5     2    1
    49     5     7    1
    50     1     2    1
    51    28    29    1
    52    93    91   ar
    53    51    50    2
    54    51    52    1
    55    65    64   ar
    56    66    64   ar
    57    76    75    1
    58    50    49    1
    59    92    91   ar
    60    39    38    1
    61    39    40    2
    62    91    90    1
    63    38    37    1
    64    29    30    2
    65    64    63    1
    66    42    40    1
    67    40    41    1
    68    37    36    1
    69    36    33    1
    70    75    72    1
    71    49    48    1
    72    84    82   ar
    73    58    55    1
    74    90    89    1
    75    48    47    1
    76    63    60    1
    77    33    32    1
    78    33    34    1
    79    72    71    1
    80    72    73    1
    81    71    61   am
    82    54    55    1
    83    82    83   ar
    84    82    81    1
    85    55    56    1
    86    60    61    1
    87    60    59    1
    88    61    62    2
    89    89    86    1
    90    56    57    2
    91    47    44    1
    92    34    35    2
    93    73    74    2
    94    81    78    1
    95    44    43    1
    96    44    45    1
    97    86    85    1
    98    86    87    1
    99    85    79   am
   100    79    78    1
   101    79    80    2
   102    78    77    1
   103    45    46    2
   104    88    87    2
