@<TRIPOS>MOLECULE
tmp/3otlA00.pdb
 135 129 0 0 0
SMALL
GASTEIGER

@<TRIPOS>ATOM
      1  N         20.8950   75.6550   42.1710 N.3    37  PHE37      -0.1241
      2  CA        22.2310   76.0790   42.5640 C.3    37  PHE37       0.1605
      3  C         22.5410   77.5090   42.1320 C.2    37  PHE37       0.2264
      4  O         23.3490   78.1910   42.7560 O.2    37  PHE37      -0.2867
      5  CB        23.2570   75.1220   41.9730 C.3    37  PHE37       0.0534
      6  CG        24.6770   75.4650   42.3080 C.ar   37  PHE37      -0.0203
      7  CD1       25.1240   75.4250   43.6190 C.ar   37  PHE37      -0.0042
      8  CD2       25.5750   75.7880   41.3080 C.ar   37  PHE37      -0.0042
      9  CE1       26.4490   75.7230   43.9300 C.ar   37  PHE37      -0.0003
     10  CE2       26.9050   76.0720   41.6100 C.ar   37  PHE37      -0.0003
     11  CZ        27.3340   76.0450   42.9280 C.ar   37  PHE37      -0.0000
     12  N         30.5090   87.6500   43.2100 N.3    70  HIS70      -0.1241
     13  CA        30.8280   86.3860   43.8550 C.3    70  HIS70       0.1621
     14  C         30.9690   85.3460   42.7440 C.2    70  HIS70       0.2264
     15  O         29.9960   85.0100   42.0700 O.2    70  HIS70      -0.2867
     16  CB        29.7170   85.9590   44.8220 C.3    70  HIS70       0.0745
     17  CG        29.5300   86.8810   45.9910 C.ar   70  HIS70       0.0817
     18  ND1       29.2040   88.2140   45.8490 N.ar   70  HIS70      -0.2268
     19  CD2       29.5970   86.6520   47.3240 C.ar   70  HIS70       0.1154
     20  CE1       29.0900   88.7690   47.0440 C.ar   70  HIS70       0.1986
     21  NE2       29.3240   87.8420   47.9560 N.ar   70  HIS70      -0.2212
     22  N         32.0930   81.6070   41.4080 N.3    72  TYR72      -0.1241
     23  CA        32.3720   80.1840   41.6310 C.3    72  TYR72       0.1605
     24  C         32.8530   79.5980   40.3160 C.2    72  TYR72       0.2264
     25  O         32.2270   79.8070   39.2750 O.2    72  TYR72      -0.2867
     26  CB        31.0760   79.4950   42.1030 C.3    72  TYR72       0.0534
     27  CG        30.9980   77.9750   42.0150 C.ar   72  TYR72      -0.0201
     28  CD1       30.6610   77.3420   40.8210 C.ar   72  TYR72      -0.0009
     29  CD2       31.1910   77.1750   43.1500 C.ar   72  TYR72      -0.0009
     30  CE1       30.5500   75.9490   40.7410 C.ar   72  TYR72       0.0417
     31  CE2       31.0840   75.7750   43.0800 C.ar   72  TYR72       0.0417
     32  CZ        30.7580   75.1730   41.8760 C.ar   72  TYR72       0.1957
     33  OH        30.6340   73.7970   41.7940 O.3    72  TYR72      -0.2866
     34  N         34.9440   67.2870   42.6040 N.3    87  TYR87      -0.1241
     35  CA        35.4150   68.4190   41.8220 C.3    87  TYR87       0.1605
     36  C         36.2540   69.3320   42.6790 C.2    87  TYR87       0.2264
     37  O         36.1000   69.3480   43.8930 O.2    87  TYR87      -0.2867
     38  CB        34.2440   69.2100   41.2400 C.3    87  TYR87       0.0534
     39  CG        33.2100   69.7140   42.2410 C.ar   87  TYR87      -0.0201
     40  CD1       32.1000   68.9300   42.5700 C.ar   87  TYR87      -0.0009
     41  CD2       33.3190   70.9740   42.8290 C.ar   87  TYR87      -0.0009
     42  CE1       31.1350   69.3670   43.4670 C.ar   87  TYR87       0.0417
     43  CE2       32.3230   71.4380   43.7330 C.ar   87  TYR87       0.0417
     44  CZ        31.2420   70.6180   44.0380 C.ar   87  TYR87       0.1957
     45  OH        30.2650   71.0300   44.9200 O.3    87  TYR87      -0.2866
     46  N         37.1480   73.3970   43.3070 N.3    89  TYR89      -0.1241
     47  CA        36.6090   74.6970   42.9300 C.3    89  TYR89       0.1605
     48  C         37.2580   75.8600   43.6470 C.2    89  TYR89       0.2264
     49  O         37.9050   75.6820   44.6760 O.2    89  TYR89      -0.2867
     50  CB        35.0910   74.7390   43.0870 C.3    89  TYR89       0.0534
     51  CG        34.5320   74.9520   44.4800 C.ar   89  TYR89      -0.0201
     52  CD1       34.0580   76.1980   44.8650 C.ar   89  TYR89      -0.0009
     53  CD2       34.4060   73.9000   45.3800 C.ar   89  TYR89      -0.0009
     54  CE1       33.5000   76.4060   46.1150 C.ar   89  TYR89       0.0417
     55  CE2       33.8480   74.0980   46.6550 C.ar   89  TYR89       0.0417
     56  CZ        33.3980   75.3660   47.0020 C.ar   89  TYR89       0.1957
     57  OH        32.8350   75.6040   48.2340 O.3    89  TYR89      -0.2866
     58  N         35.8510   86.9280   45.4220 N.3    92  LEU92      -0.1245
     59  CA        35.0160   88.0710   45.7290 C.3    92  LEU92       0.1561
     60  C         35.6800   89.2090   44.9640 C.2    92  LEU92       0.2260
     61  O         36.8140   89.5680   45.2640 O.2    92  LEU92      -0.2867
     62  CB        35.0260   88.3700   47.2260 C.3    92  LEU92       0.0270
     63  CG        34.3750   87.3420   48.1540 C.3    92  LEU92       0.0019
     64  CD1       34.4070   87.8210   49.6050 C.3    92  LEU92       0.0001
     65  CD2       32.9590   87.0780   47.7190 C.3    92  LEU92       0.0001
     66  N         39.4000   83.9290   47.3390 N.3    97  ILE97      -0.1245
     67  CA        39.3300   83.7590   48.7820 C.3    97  ILE97       0.1561
     68  C         39.5170   82.3070   49.2150 C.2    97  ILE97       0.2260
     69  O         39.8500   82.0470   50.3710 O.2    97  ILE97      -0.2867
     70  CB        38.0110   84.2860   49.3800 C.3    97  ILE97       0.0252
     71  CG1       36.8150   83.5650   48.7640 C.3    97  ILE97       0.0019
     72  CG2       37.9220   85.8180   49.2240 C.3    97  ILE97       0.0019
     73  CD1       35.5200   83.7570   49.5510 C.3    97  ILE97       0.0001
     74  N         28.6580   65.1940   51.9450 N.3   116  PHE116     -0.1241
     75  CA        29.3360   66.2530   51.2170 C.3   116  PHE116      0.1605
     76  C         30.5570   66.6320   52.0430 C.2   116  PHE116      0.2264
     77  O         30.4210   67.1740   53.1400 O.2   116  PHE116     -0.2867
     78  CB        28.3660   67.4400   51.0890 C.3   116  PHE116      0.0534
     79  CG        28.9120   68.6290   50.3390 C.ar  116  PHE116     -0.0203
     80  CD1       29.8190   69.4930   50.9450 C.ar  116  PHE116     -0.0042
     81  CD2       28.4680   68.9250   49.0510 C.ar  116  PHE116     -0.0042
     82  CE1       30.3100   70.6100   50.2670 C.ar  116  PHE116     -0.0003
     83  CE2       28.9580   70.0420   48.3630 C.ar  116  PHE116     -0.0003
     84  CZ        29.8790   70.8850   48.9780 C.ar  116  PHE116     -0.0000
     85  N         41.2360   86.0350   54.5030 N.3   126  TYR126     -0.1241
     86  CA        39.8000   85.8490   54.3810 C.3   126  TYR126      0.1605
     87  C         39.3130   85.0420   55.5810 C.2   126  TYR126      0.2264
     88  O         39.8660   83.9800   55.8930 O.2   126  TYR126     -0.2867
     89  CB        39.4240   85.1110   53.0870 C.3   126  TYR126      0.0534
     90  CG        37.9510   84.7420   53.0580 C.ar  126  TYR126     -0.0201
     91  CD1       36.9770   85.7080   52.7990 C.ar  126  TYR126     -0.0009
     92  CD2       37.5330   83.4460   53.3220 C.ar  126  TYR126     -0.0009
     93  CE1       35.6290   85.3830   52.7910 C.ar  126  TYR126      0.0417
     94  CE2       36.1840   83.1030   53.3040 C.ar  126  TYR126      0.0417
     95  CZ        35.2380   84.0790   53.0430 C.ar  126  TYR126      0.1957
     96  OH        33.9000   83.7480   53.0360 O.3   126  TYR126     -0.2866
     97  N         36.3910   82.8880   57.2230 N.3   128  ASP128     -0.1239
     98  CA        35.1840   82.1290   56.8760 C.3   128  ASP128      0.1674
     99  C         34.0620   82.2660   57.9080 C.2   128  ASP128      0.2266
    100  O         32.9460   82.6620   57.5740 O.2   128  ASP128     -0.2867
    101  CB        35.5290   80.6580   56.6720 C.3   128  ASP128      0.1410
    102  CG        34.2990   79.7920   56.4760 C.2   128  ASP128      0.3668
    103  OD1       33.5030   80.0740   55.5540 O.co2 128  ASP128     -0.2456
    104  OD2       34.1280   78.8380   57.2580 O.co2 128  ASP128     -0.2456
    105  N         30.6030   80.8290   56.9370 N.3   131  ALA131     -0.1231
    106  CA        30.0620   81.1720   55.6290 C.3   131  ALA131      0.1694
    107  C         29.9680   79.9470   54.7190 C.2   131  ALA131      0.2591
    108  O         28.9450   79.7220   54.0680 O.2   131  ALA131     -0.2718
    109  CB        30.9040   82.2460   54.9770 C.3   131  ALA131      0.0304
    110  N         31.0410   79.1660   54.6670 N.am  132  ARG132     -0.1980
    111  CA        31.1170   78.0610   53.7150 C.3   132  ARG132      0.1597
    112  C         30.0680   76.9910   54.0180 C.2   132  ARG132      0.2287
    113  O         29.2900   76.5960   53.1470 O.2   132  ARG132     -0.2864
    114  CB        32.5250   77.4650   53.6910 C.3   132  ARG132      0.0334
    115  CG        32.7500   76.4150   52.5940 C.3   132  ARG132      0.0492
    116  CD        32.3110   76.9390   51.2000 C.3   132  ARG132      0.2205
    117  NE        32.9180   78.2360   50.8790 N.pl3 132  ARG132     -0.0865
    118  CZ        34.0600   78.3800   50.2070 C.cat 132  ARG132      0.5346
    119  NH1       34.7240   77.3090   49.7800 N.pl3 132  ARG132      0.1354
    120  NH2       34.5430   79.5890   49.9570 N.pl3 132  ARG132      0.1354
    121  N         26.5210   78.5270   53.3970 N.3   135  GLY135     -0.1210
    122  CA        26.2590   78.6820   51.9760 C.3   135  GLY135      0.1956
    123  C         25.9830   77.3450   51.3070 C.2   135  GLY135      0.2612
    124  O         25.0860   77.2260   50.4620 O.2   135  GLY135     -0.2717
    125  N         26.7550   76.3290   51.6860 N.am  136  THR136     -0.1952
    126  CA        26.5390   74.9820   51.1690 C.3   136  THR136      0.1897
    127  C         25.1760   74.4270   51.5790 C.2   136  THR136      0.2313
    128  O         24.5010   73.7870   50.7810 O.2   136  THR136     -0.2863
    129  CB        27.6530   74.0240   51.6310 C.3   136  THR136      0.1794
    130  OG1       28.9070   74.4880   51.1200 O.3   136  THR136     -0.2208
    131  CG2       27.3830   72.6090   51.1290 C.3   136  THR136      0.0378
    132  N         22.3340   75.8900   49.5710 N.3   139  GLY139     -0.1225
    133  CA        22.2860   75.1810   48.3120 C.3   139  GLY139      0.1811
    134  C         21.5050   73.8940   48.4790 C.2   139  GLY139      0.2280
    135  O         20.6200   73.5990   47.6810 O.2   139  GLY139     -0.2866
@<TRIPOS>BOND
     1    25    24    2
     2    24    23    1
     3    30    28   ar
     4    30    32   ar
     5    28    27   ar
     6    38    35    1
     7    38    39    1
     8     8    10   ar
     9     8     6   ar
    10    22    23    1
    11    10    11   ar
    12    23    26    1
    13    33    32    1
    14    35    34    1
    15    35    36    1
    16    32    31   ar
    17     5     6    1
    18     5     2    1
    19    27    26    1
    20    27    29   ar
    21    15    14    2
    22     3     2    1
    23     3     4    2
    24     1     2    1
    25    39    40   ar
    26    39    41   ar
    27     6     7   ar
    28    40    42   ar
    29    36    37    2
    30    14    13    1
    31    41    43   ar
    32    11     9   ar
    33    47    50    1
    34    47    46    1
    35    47    48    1
    36    31    29   ar
    37    50    51    1
    38    12    13    1
    39    42    44   ar
    40     7     9   ar
    41    48    49    2
    42    43    44   ar
    43    13    16    1
    44    44    45    1
    45    51    52   ar
    46    51    53   ar
    47    16    17    1
    48    52    54   ar
    49    60    61    2
    50    60    59    1
    51    53    55   ar
    52    58    59    1
    53    59    62    1
    54    18    17   ar
    55    18    20   ar
    56    17    19   ar
    57    54    56   ar
    58    55    56   ar
    59    56    57    1
    60    20    21   ar
    61    62    63    1
    62    19    21   ar
    63    66    67    1
    64   135   134    2
    65    65    63    1
    66    63    64    1
    67   133   134    1
    68   133   132    1
    69    83    84   ar
    70    83    81   ar
    71    71    70    1
    72    71    73    1
    73    67    68    1
    74    67    70    1
    75    84    82   ar
    76    81    79   ar
    77    68    69    2
    78    72    70    1
    79   119   118    1
    80   120   118    1
    81   118   117    2
    82    82    80   ar
    83    79    80   ar
    84    79    78    1
    85   124   123    2
    86   128   127    2
    87   117   116    1
    88    78    75    1
    89   130   129    1
    90   131   129    1
    91   126   127    1
    92   126   129    1
    93   126   125    1
    94   116   115    1
    95    75    74    1
    96    75    76    1
    97   123   125   am
    98   123   122    1
    99   122   121    1
   100    76    77    2
   101   115   114    1
   102    93    91   ar
   103    93    95   ar
   104    91    90   ar
   105    96    95    1
   106    95    94   ar
   107    90    89    1
   108    90    92   ar
   109    89    86    1
   110   113   112    2
   111    94    92   ar
   112   114   111    1
   113   111   112    1
   114   111   110    1
   115   108   107    2
   116    86    85    1
   117    86    87    1
   118   110   107   am
   119   107   106    1
   120   109   106    1
   121   103   102   ar
   122    87    88    2
   123   106   105    1
   124   102   101    1
   125   102   104   ar
   126   101    98    1
   127    98    97    1
   128    98    99    1
   129   100    99    2
