@<TRIPOS>MOLECULE
tmp/3otpC00.pdb
 185 178 0 0 0
SMALL
GASTEIGER

@<TRIPOS>ATOM
      1  N         -5.1010   47.3330   59.7560 N.3   136  ALA136     -0.1231
      2  CA        -4.7270   48.4620   60.6050 C.3   136  ALA136      0.1694
      3  C         -3.5240   48.2100   61.5170 C.2   136  ALA136      0.2591
      4  O         -2.9810   49.1500   62.1000 O.2   136  ALA136     -0.2718
      5  CB        -5.9270   48.9270   61.4220 C.3   136  ALA136      0.0304
      6  N         -3.1090   46.9540   61.6460 N.am  137  GLU137     -0.1979
      7  CA        -1.9620   46.6260   62.4910 C.3   137  GLU137      0.1602
      8  C         -0.6580   46.5880   61.6970 C.2   137  GLU137      0.2287
      9  O          0.4280   46.6100   62.2740 O.2   137  GLU137     -0.2864
     10  CB        -2.1780   45.2980   63.2230 C.3   137  GLU137      0.0415
     11  CG        -2.2840   44.0870   62.3080 C.3   137  GLU137      0.1163
     12  CD        -2.3550   42.7780   63.0740 C.2   137  GLU137      0.3649
     13  OE1       -2.1120   42.7890   64.3000 O.co2 137  GLU137     -0.2457
     14  OE2       -2.6510   41.7370   62.4500 O.co2 137  GLU137     -0.2457
     15  N          2.1770   47.9810   58.8170 N.3   139  TYR139     -0.1241
     16  CA         2.7420   49.2160   58.2970 C.3   139  TYR139      0.1605
     17  C          2.5210   49.2570   56.7960 C.2   139  TYR139      0.2264
     18  O          3.1970   48.5590   56.0430 O.2   139  TYR139     -0.2867
     19  CB         4.2330   49.3060   58.6200 C.3   139  TYR139      0.0534
     20  CG         4.5380   49.2830   60.0990 C.ar  139  TYR139     -0.0201
     21  CD1        4.8430   48.0950   60.7450 C.ar  139  TYR139     -0.0009
     22  CD2        4.5170   50.4510   60.8490 C.ar  139  TYR139     -0.0009
     23  CE1        5.1220   48.0700   62.0960 C.ar  139  TYR139      0.0417
     24  CE2        4.7930   50.4360   62.2010 C.ar  139  TYR139      0.0417
     25  CZ         5.0950   49.2430   62.8190 C.ar  139  TYR139      0.1957
     26  OH         5.3700   49.2260   64.1670 O.3   139  TYR139     -0.2866
     27  N         12.0340   51.1580   65.7360 N.3   207  GLY207     -0.1210
     28  CA        11.9810   52.3220   66.6010 C.3   207  GLY207      0.1956
     29  C         10.6170   52.9810   66.5370 C.2   207  GLY207      0.2612
     30  O         10.0300   53.0950   65.4630 O.2   207  GLY207     -0.2717
     31  N         10.0980   53.3990   67.6870 N.am  208  GLU208     -0.1965
     32  CA         8.8090   54.0830   67.7350 C.3   208  GLU208      0.1733
     33  C          8.9550   55.4790   68.3330 C.2   208  GLU208      0.2616
     34  O          9.9050   55.7520   69.0660 O.2   208  GLU208     -0.2715
     35  CB         7.7960   53.2740   68.5450 C.3   208  GLU208      0.0429
     36  CG         8.0950   53.2310   70.0350 C.3   208  GLU208      0.1163
     37  CD         7.0070   52.5350   70.8280 C.2   208  GLU208      0.3649
     38  OE1        7.0470   52.5980   72.0740 O.co2 208  GLU208     -0.2457
     39  OE2        6.1100   51.9280   70.2060 O.co2 208  GLU208     -0.2457
     40  N          8.0130   56.3600   68.0130 N.am  209  LEU209     -0.1963
     41  CA         8.0090   57.7060   68.5690 C.3   209  LEU209      0.1728
     42  C          7.3650   57.6950   69.9460 C.2   209  LEU209      0.2617
     43  O          7.6220   58.5690   70.7750 O.2   209  LEU209     -0.2715
     44  CB         7.2530   58.6710   67.6550 C.3   209  LEU209      0.0311
     45  CG         7.9100   59.0470   66.3270 C.3   209  LEU209      0.0022
     46  CD1        8.0330   57.8270   65.4370 C.3   209  LEU209      0.0001
     47  CD2        7.1200   60.1400   65.6290 C.3   209  LEU209      0.0001
     48  N          6.5270   56.6910   70.1790 N.am  210  GLY210     -0.1940
     49  CA         5.8160   56.5640   71.4340 C.3   210  GLY210      0.2014
     50  C          4.7040   57.5840   71.5420 C.2   210  GLY210      0.2639
     51  O          4.6150   58.3170   72.5260 O.2   210  GLY210     -0.2714
     52  N          3.8550   57.6400   70.5210 N.am  211  ILE211     -0.1963
     53  CA         2.7280   58.5590   70.5290 C.3   211  ILE211      0.1727
     54  C          1.4510   57.8500   70.1060 C.2   211  ILE211      0.2616
     55  O          1.4710   56.9740   69.2470 O.2   211  ILE211     -0.2715
     56  CB         2.9820   59.7990   69.6320 C.3   211  ILE211      0.0290
     57  CG1        2.8190   59.4620   68.1520 C.3   211  ILE211      0.0022
     58  CG2        4.3630   60.3680   69.8890 C.3   211  ILE211      0.0023
     59  CD1        1.4510   59.7760   67.6060 C.3   211  ILE211      0.0001
     60  N          0.3430   58.2210   70.7310 N.am  212  MET212     -0.1963
     61  CA        -0.9580   57.7130   70.3320 C.3   212  MET212      0.1736
     62  C         -1.6180   58.7710   69.4580 C.2   212  MET212      0.2617
     63  O         -1.3220   59.9590   69.5870 O.2   212  MET212     -0.2715
     64  CB        -1.8200   57.4170   71.5620 C.3   212  MET212      0.0427
     65  CG        -1.1230   56.5880   72.6380 C.3   212  MET212      0.0599
     66  SD        -0.7380   54.8970   72.1360 S.3   212  MET212     -0.1393
     67  CE        -2.3780   54.1950   71.9810 C.3   212  MET212      0.0692
     68  N         -2.5000   58.3480   68.5610 N.am  213  GLY213     -0.1940
     69  CA        -3.1640   59.2950   67.6880 C.3   213  GLY213      0.2014
     70  C         -4.1650   58.6800   66.7350 C.2   213  GLY213      0.2640
     71  O         -4.5050   57.5010   66.8420 O.2   213  GLY213     -0.2714
     72  N         -4.6400   59.4920   65.7970 N.am  214  THR214     -0.1936
     73  CA        -5.5940   59.0290   64.8030 C.3   214  THR214      0.2028
     74  C         -5.6550   59.9630   63.6050 C.2   214  THR214      0.2642
     75  O         -5.0380   61.0290   63.5940 O.2   214  THR214     -0.2714
     76  CB        -7.0010   58.9140   65.3870 C.3   214  THR214      0.1808
     77  OG1       -7.8500   58.2410   64.4500 O.3   214  THR214     -0.2208
     78  CG2       -7.5630   60.2950   65.6770 C.3   214  THR214      0.0379
     79  N         -6.4190   59.5500   62.6020 N.am  215  GLU215     -0.1963
     80  CA        -6.5420   60.2990   61.3630 C.3   215  GLU215      0.1733
     81  C         -7.1930   61.6570   61.5890 C.2   215  GLU215      0.2616
     82  O         -8.2210   61.7610   62.2580 O.2   215  GLU215     -0.2715
     83  CB        -7.3580   59.4970   60.3480 C.3   215  GLU215      0.0429
     84  CG        -6.8420   58.0840   60.1130 C.3   215  GLU215      0.1163
     85  CD        -5.4510   58.0590   59.4980 C.2   215  GLU215      0.3649
     86  OE1       -4.8930   59.1440   59.2260 O.co2 215  GLU215     -0.2457
     87  OE2       -4.9140   56.9510   59.2860 O.co2 215  GLU215     -0.2457
     88  N         -6.5880   62.6960   61.0220 N.am  216  LEU216     -0.1963
     89  CA        -7.1420   64.0410   61.1040 C.3   216  LEU216      0.1728
     90  C         -8.1020   64.3170   59.9500 C.2   216  LEU216      0.2616
     91  O         -7.6780   64.6450   58.8410 O.2   216  LEU216     -0.2715
     92  CB        -6.0270   65.0890   61.1170 C.3   216  LEU216      0.0311
     93  CG        -6.4830   66.5480   60.9990 C.3   216  LEU216      0.0022
     94  CD1       -7.4470   66.9020   62.1170 C.3   216  LEU216      0.0001
     95  CD2       -5.2980   67.5010   60.9910 C.3   216  LEU216      0.0001
     96  N         -9.3960   64.1810   60.2230 N.am  217  ASN217     -0.1972
     97  CA       -10.4300   64.4740   59.2380 C.3   217  ASN217      0.1688
     98  C        -10.9500   65.9020   59.3850 C.2   217  ASN217      0.2292
     99  O        -10.5970   66.6020   60.3310 O.2   217  ASN217     -0.2864
    100  CB       -11.5760   63.4700   59.3600 C.3   217  ASN217      0.1181
    101  CG       -12.1170   63.3730   60.7750 C.2   217  ASN217      0.2629
    102  OD1      -12.1270   64.3540   61.5150 O.2   217  ASN217     -0.2716
    103  ND2      -12.5650   62.1830   61.1590 N.am  217  ASN217     -0.0877
    104  N        -13.8710   67.0220   60.1700 N.3   219  GLU219     -0.1231
    105  CA       -14.6440   67.1610   61.3940 C.3   219  GLU219      0.1699
    106  C        -13.7400   67.5030   62.5740 C.2   219  GLU219      0.2592
    107  O        -13.9310   68.5190   63.2390 O.2   219  GLU219     -0.2718
    108  CB       -15.4190   65.8750   61.6850 C.3   219  GLU219      0.0402
    109  CG       -16.4260   65.4950   60.6120 C.3   219  GLU219      0.1161
    110  CD       -17.1810   64.2220   60.9500 C.2   219  GLU219      0.3649
    111  OE1      -16.7390   63.4900   61.8630 O.co2 219  GLU219     -0.2457
    112  OE2      -18.2170   63.9550   60.3050 O.co2 219  GLU219     -0.2457
    113  N        -12.7500   66.6520   62.8240 N.am  220  LEU220     -0.1980
    114  CA       -11.8470   66.8330   63.9570 C.3   220  LEU220      0.1596
    115  C        -11.0480   68.1240   63.8330 C.2   220  LEU220      0.2287
    116  O        -10.6050   68.6860   64.8300 O.2   220  LEU220     -0.2864
    117  CB       -10.9100   65.6300   64.0920 C.3   220  LEU220      0.0297
    118  CG       -10.1520   65.4520   65.4100 C.3   220  LEU220      0.0022
    119  CD1       -9.6760   64.0210   65.5550 C.3   220  LEU220      0.0001
    120  CD2       -8.9850   66.4100   65.5070 C.3   220  LEU220      0.0001
    121  N         -3.0190   62.0350   69.9920 N.3   235  SER235     -0.1202
    122  CA        -3.9420   61.8550   71.1080 C.3   235  SER235      0.2020
    123  C         -3.2240   62.0260   72.4350 C.2   235  SER235      0.2618
    124  O         -3.7760   62.5780   73.3810 O.2   235  SER235     -0.2717
    125  CB        -4.5980   60.4740   71.0580 C.3   235  SER235      0.2103
    126  OG        -5.3110   60.2040   72.2530 O.3   235  SER235     -0.2182
    127  N         -1.9900   61.5440   72.4970 N.am  236  GLN236     -0.1979
    128  CA        -1.1960   61.6230   73.7140 C.3   236  GLN236      0.1601
    129  C          0.2140   61.1350   73.4430 C.2   236  GLN236      0.2287
    130  O          0.4360   60.3410   72.5330 O.2   236  GLN236     -0.2864
    131  CB        -1.8260   60.7780   74.8210 C.3   236  GLN236      0.0394
    132  CG        -2.1880   59.3650   74.3910 C.3   236  GLN236      0.0908
    133  CD        -2.4940   58.4530   75.5640 C.2   236  GLN236      0.2608
    134  OE1       -1.8570   58.5380   76.6160 O.2   236  GLN236     -0.2717
    135  NE2       -3.4740   57.5710   75.3880 N.am  236  GLN236     -0.0878
    136  N          3.5940   59.2080   75.1330 N.3   238  LEU238     -0.1245
    137  CA         3.9880   58.3470   76.2380 C.3   238  LEU238      0.1561
    138  C          5.1550   58.9730   76.9910 C.2   238  LEU238      0.2260
    139  O          6.0260   59.5930   76.3850 O.2   238  LEU238     -0.2867
    140  CB         4.3680   56.9560   75.7300 C.3   238  LEU238      0.0270
    141  CG         3.3370   56.2560   74.8440 C.3   238  LEU238      0.0019
    142  CD1        3.8140   54.8660   74.4570 C.3   238  LEU238      0.0001
    143  CD2        1.9870   56.1890   75.5390 C.3   238  LEU238      0.0001
    144  N         -2.1720   59.5490   59.1390 N.3   265  PHE265     -0.1227
    145  CA        -1.5610   58.9690   60.3210 C.3   265  PHE265      0.1736
    146  C         -1.1000   57.5590   59.9860 C.2   265  PHE265      0.2595
    147  O         -0.0200   57.1360   60.3910 O.2   265  PHE265     -0.2718
    148  CB        -2.5700   58.9480   61.4710 C.3   265  PHE265      0.0547
    149  CG        -2.0250   58.3870   62.7590 C.ar  265  PHE265     -0.0202
    150  CD1       -1.4480   59.2170   63.7050 C.ar  265  PHE265     -0.0042
    151  CD2       -2.1120   57.0300   63.0320 C.ar  265  PHE265     -0.0042
    152  CE1       -0.9580   58.7040   64.8910 C.ar  265  PHE265     -0.0003
    153  CE2       -1.6230   56.5120   64.2170 C.ar  265  PHE265     -0.0003
    154  CZ        -1.0440   57.3510   65.1470 C.ar  265  PHE265     -0.0000
    155  N         -1.9260   56.8380   59.2370 N.am  266  ALA266     -0.1980
    156  CA        -1.5910   55.4820   58.8220 C.3   266  ALA266      0.1597
    157  C         -0.3050   55.4570   57.9990 C.2   266  ALA266      0.2287
    158  O          0.5170   54.5500   58.1340 O.2   266  ALA266     -0.2864
    159  CB        -2.7360   54.8750   58.0350 C.3   266  ALA266      0.0319
    160  N          2.1780   57.8170   58.1060 N.3   268  LEU268     -0.1231
    161  CA         3.2580   58.1440   59.0340 C.3   268  LEU268      0.1693
    162  C          3.6610   56.9350   59.8610 C.2   268  LEU268      0.2591
    163  O          4.8360   56.7360   60.1590 O.2   268  LEU268     -0.2718
    164  CB         2.8360   59.2710   59.9750 C.3   268  LEU268      0.0284
    165  CG         3.8440   59.6230   61.0690 C.3   268  LEU268      0.0019
    166  CD1        5.1220   60.1640   60.4580 C.3   268  LEU268      0.0001
    167  CD2        3.2490   60.6260   62.0340 C.3   268  LEU268      0.0001
    168  N          2.6730   56.1370   60.2420 N.am  269  ARG269     -0.1980
    169  CA         2.9260   54.9380   61.0230 C.3   269  ARG269      0.1597
    170  C          3.7910   53.9780   60.2250 C.2   269  ARG269      0.2287
    171  O          4.7330   53.3860   60.7520 O.2   269  ARG269     -0.2864
    172  CB         1.6100   54.2640   61.4000 C.3   269  ARG269      0.0334
    173  CG         1.7750   53.0180   62.2400 C.3   269  ARG269      0.0492
    174  CD         0.4260   52.4110   62.5620 C.3   269  ARG269      0.2205
    175  NE         0.5520   51.1950   63.3560 N.pl3 269  ARG269     -0.0865
    176  CZ         0.6600   49.9750   62.8390 C.cat 269  ARG269      0.5346
    177  NH1        0.6570   49.8090   61.5230 N.pl3 269  ARG269      0.1354
    178  NH2        0.7690   48.9220   63.6380 N.pl3 269  ARG269      0.1354
    179  N          7.8800   55.4970   59.5840 N.3   272  VAL272     -0.1245
    180  CA         8.8140   55.2620   60.6800 C.3   272  VAL272      0.1561
    181  C          8.8660   53.8010   61.1050 C.2   272  VAL272      0.2260
    182  O          9.8530   53.3510   61.6820 O.2   272  VAL272     -0.2867
    183  CB         8.4410   56.1020   61.9060 C.3   272  VAL272      0.0252
    184  CG1        8.4340   57.5760   61.5430 C.3   272  VAL272      0.0019
    185  CG2        7.0820   55.6660   62.4480 C.3   272  VAL272      0.0019
@<TRIPOS>BOND
     1    18    17    2
     2    17    16    1
     3   157   158    2
     4   157   156    1
     5   159   156    1
     6   160   161    1
     7    16    19    1
     8    16    15    1
     9    19    20    1
    10   156   155    1
    11    91    90    2
    12   161   162    1
    13   161   164    1
    14   144   145    1
    15    86    85   ar
    16   155   146   am
    17    97   100    1
    18    97    98    1
    19    97    96    1
    20    87    85   ar
    21   100   101    1
    22    98    99    2
    23    85    84    1
    24   179   180    1
    25     1     2    1
    26   162   163    2
    27   162   168   am
    28    90    96   am
    29    90    89    1
    30   164   165    1
    31   146   145    1
    32   146   147    2
    33    20    21   ar
    34    20    22   ar
    35    84    83    1
    36   104   105    1
    37   170   171    2
    38   170   169    1
    39   168   169    1
    40   112   110   ar
    41   145   148    1
    42    83    80    1
    43   166   165    1
    44     2     5    1
    45     2     3    1
    46   109   110    1
    47   109   108    1
    48   180   181    1
    49   180   183    1
    50    21    23   ar
    51   101   103   am
    52   101   102    2
    53    22    24   ar
    54   110   111   ar
    55    95    93    1
    56    93    92    1
    57    93    94    1
    58    88    89    1
    59    88    81   am
    60   169   172    1
    61   165   167    1
    62    89    92    1
    63   181   182    2
    64    80    81    1
    65    80    79    1
    66   105   108    1
    67   105   106    1
    68   172   173    1
    69   148   149    1
    70     3     6   am
    71     3     4    2
    72   177   176    1
    73   184   183    1
    74    81    82    2
    75     6     7    1
    76     8     9    2
    77     8     7    1
    78   183   185    1
    79    23    25   ar
    80    24    25   ar
    81   173   174    1
    82    11    12    1
    83    11    10    1
    84    14    12   ar
    85     7    10    1
    86   174   175    1
    87   106   113   am
    88   106   107    2
    89    79    74   am
    90   149   151   ar
    91   149   150   ar
    92    25    26    1
    93   113   114    1
    94   176   175    2
    95   176   178    1
    96   151   153   ar
    97    12    13   ar
    98    75    74    2
    99    74    73    1
   100   150   152   ar
   101   115   114    1
   102   115   116    2
   103   114   117    1
   104   117   118    1
   105   153   154   ar
   106    77    76    1
   107    73    76    1
   108    73    72    1
   109   152   154   ar
   110    76    78    1
   111   118   120    1
   112   118   119    1
   113    46    45    1
   114    30    29    2
   115    47    45    1
   116    27    28    1
   117    72    70   am
   118    45    44    1
   119    29    28    1
   120    29    31   am
   121    70    71    2
   122    70    69    1
   123    59    57    1
   124    44    41    1
   125    31    32    1
   126    69    68    1
   127    32    33    1
   128    32    35    1
   129    40    33   am
   130    40    41    1
   131    57    56    1
   132    33    34    2
   133    35    36    1
   134    68    62   am
   135    41    42    1
   136    55    54    2
   137    62    63    2
   138    62    61    1
   139    56    58    1
   140    56    53    1
   141    42    48   am
   142    42    43    2
   143   121   122    1
   144    36    37    1
   145    54    53    1
   146    54    60   am
   147    48    49    1
   148    39    37   ar
   149    61    60    1
   150    61    64    1
   151    52    53    1
   152    52    50   am
   153    37    38   ar
   154   125   122    1
   155   125   126    1
   156   122   123    1
   157    49    50    1
   158    50    51    2
   159    64    65    1
   160    67    66    1
   161    66    65    1
   162   123   127   am
   163   123   124    2
   164   127   128    1
   165   130   129    2
   166   129   128    1
   167   128   131    1
   168   132   131    1
   169   132   133    1
   170   142   141    1
   171   141   143    1
   172   141   140    1
   173   136   137    1
   174   135   133   am
   175   133   134    2
   176   140   137    1
   177   137   138    1
   178   139   138    2
