@<TRIPOS>MOLECULE
tmp/3otpB00.pdb
 169 162 0 0 0
SMALL
GASTEIGER

@<TRIPOS>ATOM
      1  N        -33.9760   50.4210   28.1650 N.3   136  ALA136     -0.1231
      2  CA       -34.6360   50.9520   26.9730 C.3   136  ALA136      0.1694
      3  C        -35.5090   52.1850   27.2210 C.2   136  ALA136      0.2591
      4  O        -35.8950   52.8720   26.2750 O.2   136  ALA136     -0.2718
      5  CB       -35.4430   49.8580   26.2850 C.3   136  ALA136      0.0304
      6  N        -35.8220   52.4620   28.4850 N.am  137  GLU137     -0.1979
      7  CA       -36.6450   53.6210   28.8190 C.3   137  GLU137      0.1602
      8  C        -35.8030   54.8620   29.1230 C.2   137  GLU137      0.2287
      9  O        -36.3220   55.9770   29.1720 O.2   137  GLU137     -0.2864
     10  CB       -37.5850   53.3100   29.9890 C.3   137  GLU137      0.0415
     11  CG       -36.8820   53.0000   31.2980 C.3   137  GLU137      0.1163
     12  CD       -37.8470   52.8700   32.4640 C.2   137  GLU137      0.3649
     13  OE1      -39.0350   53.2280   32.3020 O.co2 137  GLU137     -0.2457
     14  OE2      -37.4180   52.4110   33.5440 O.co2 137  GLU137     -0.2457
     15  N        -32.6690   57.6590   28.4310 N.3   139  TYR139     -0.1241
     16  CA       -31.9300   58.3150   27.3660 C.3   139  TYR139      0.1605
     17  C        -30.4530   57.9930   27.5370 C.2   139  TYR139      0.2264
     18  O        -29.7840   58.5510   28.4100 O.2   139  TYR139     -0.2867
     19  CB       -32.1530   59.8280   27.4050 C.3   139  TYR139      0.0534
     20  CG       -33.6000   60.2360   27.2470 C.ar  139  TYR139     -0.0201
     21  CD1      -34.4160   60.4190   28.3550 C.ar  139  TYR139     -0.0009
     22  CD2      -34.1520   60.4360   25.9900 C.ar  139  TYR139     -0.0009
     23  CE1      -35.7400   60.7890   28.2150 C.ar  139  TYR139      0.0417
     24  CE2      -35.4760   60.8060   25.8410 C.ar  139  TYR139      0.0417
     25  CZ       -36.2640   60.9810   26.9560 C.ar  139  TYR139      0.1957
     26  OH       -37.5820   61.3500   26.8110 O.3   139  TYR139     -0.2866
     27  N        -38.4060   68.2890   25.4100 N.3   207  GLY207     -0.1210
     28  CA       -38.9920   68.5170   24.1040 C.3   207  GLY207      0.1956
     29  C        -38.9640   67.2460   23.2840 C.2   207  GLY207      0.2612
     30  O        -38.2590   66.2970   23.6220 O.2   207  GLY207     -0.2717
     31  N        -39.7300   67.2210   22.2020 N.am  208  GLU208     -0.1965
     32  CA       -39.8000   66.0300   21.3760 C.3   208  GLU208      0.1733
     33  C        -40.1410   66.3800   19.9410 C.2   208  GLU208      0.2616
     34  O        -40.7160   67.4320   19.6660 O.2   208  GLU208     -0.2715
     35  CB       -40.8500   65.0700   21.9260 C.3   208  GLU208      0.0429
     36  CG       -42.2710   65.5860   21.7910 C.3   208  GLU208      0.1163
     37  CD       -43.2990   64.5940   22.2920 C.2   208  GLU208      0.3649
     38  OE1      -44.4980   64.7860   22.0040 O.co2 208  GLU208     -0.2457
     39  OE2      -42.9090   63.6260   22.9770 O.co2 208  GLU208     -0.2457
     40  N        -39.7790   65.4840   19.0300 N.am  209  LEU209     -0.1963
     41  CA       -40.1190   65.6350   17.6240 C.3   209  LEU209      0.1728
     42  C        -41.5330   65.1240   17.4120 C.2   209  LEU209      0.2617
     43  O        -42.2120   65.5120   16.4600 O.2   209  LEU209     -0.2715
     44  CB       -39.1450   64.8470   16.7430 C.3   209  LEU209      0.0311
     45  CG       -37.6910   65.3180   16.6360 C.3   209  LEU209      0.0022
     46  CD1      -37.0000   65.3450   17.9940 C.3   209  LEU209      0.0001
     47  CD2      -36.9320   64.4250   15.6730 C.3   209  LEU209      0.0001
     48  N        -41.9680   64.2480   18.3130 N.am  210  GLY210     -0.1940
     49  CA       -43.2850   63.6500   18.2280 C.3   210  GLY210      0.2014
     50  C        -43.3500   62.5750   17.1640 C.2   210  GLY210      0.2639
     51  O        -44.1980   62.6200   16.2750 O.2   210  GLY210     -0.2714
     52  N        -42.4410   61.6090   17.2460 N.am  211  ILE211     -0.1963
     53  CA       -42.4240   60.5020   16.2960 C.3   211  ILE211      0.1727
     54  C        -42.2370   59.1660   17.0010 C.2   211  ILE211      0.2616
     55  O        -41.4870   59.0600   17.9720 O.2   211  ILE211     -0.2715
     56  CB       -41.3220   60.6750   15.2200 C.3   211  ILE211      0.0290
     57  CG1      -39.9290   60.4550   15.8150 C.3   211  ILE211      0.0022
     58  CG2      -41.4210   62.0410   14.5650 C.3   211  ILE211      0.0023
     59  CD1      -39.4030   59.0500   15.6250 C.3   211  ILE211      0.0001
     60  N        -42.9330   58.1490   16.5090 N.am  212  MET212     -0.1963
     61  CA       -42.7650   56.7970   17.0140 C.3   212  MET212      0.1740
     62  C        -41.8300   56.0620   16.0700 C.2   212  MET212      0.2656
     63  O        -41.8050   56.3500   14.8740 O.2   212  MET212     -0.2711
     64  CB       -44.1130   56.0830   17.0840 C.3   212  MET212      0.0427
     65  CG       -45.1870   56.8510   17.8440 C.3   212  MET212      0.0599
     66  SD       -44.8500   57.0250   19.6100 S.3   212  MET212     -0.1393
     67  CE       -45.0270   55.3310   20.1660 C.3   212  MET212      0.0692
     68  N        -41.0550   55.1230   16.6010 N.am  213  GLY213     -0.1716
     69  CA       -40.1200   54.3820   15.7770 C.2   213  GLY213      0.1480
     70  C        -39.3990   53.2510   16.4830 C.2   213  GLY213      0.2821
     71  O        -39.7100   52.9120   17.6260 O.2   213  GLY213     -0.2669
     72  N        -38.4300   52.6630   15.7870 N.am  214  THR214     -0.1902
     73  CA       -37.6470   51.5640   16.3390 C.3   214  THR214      0.2031
     74  C        -36.3210   51.4120   15.6040 C.2   214  THR214      0.2642
     75  O        -36.0980   52.0400   14.5660 O.2   214  THR214     -0.2714
     76  CB       -38.3990   50.2300   16.2400 C.3   214  THR214      0.1808
     77  OG1      -37.7710   49.2610   17.0880 O.3   214  THR214     -0.2208
     78  CG2      -38.3800   49.7300   14.8060 C.3   214  THR214      0.0379
     79  N        -35.4530   50.5620   16.1460 N.am  215  GLU215     -0.1976
     80  CA       -34.1280   50.3360   15.5830 C.3   215  GLU215      0.1602
     81  C        -34.2130   49.7550   14.1770 C.2   215  GLU215      0.2287
     82  O        -34.9880   48.8300   13.9190 O.2   215  GLU215     -0.2864
     83  CB       -33.3190   49.3970   16.4820 C.3   215  GLU215      0.0415
     84  CG       -33.2540   49.8180   17.9450 C.3   215  GLU215      0.1163
     85  CD       -32.4680   51.1010   18.1580 C.2   215  GLU215      0.3649
     86  OE1      -31.9590   51.6630   17.1660 O.co2 215  GLU215     -0.2457
     87  OE2      -32.3560   51.5440   19.3210 O.co2 215  GLU215     -0.2457
     88  N        -41.8930   54.8600   12.6520 N.3   235  SER235     -0.1202
     89  CA       -43.1180   54.0740   12.6410 C.3   235  SER235      0.2020
     90  C        -44.3120   54.9480   12.2920 C.2   235  SER235      0.2618
     91  O        -45.1820   54.5470   11.5220 O.2   235  SER235     -0.2717
     92  CB       -43.3430   53.4230   14.0050 C.3   235  SER235      0.2103
     93  OG       -44.6420   52.8660   14.0880 O.3   235  SER235     -0.2182
     94  N        -44.3480   56.1450   12.8690 N.am  236  GLN236     -0.1979
     95  CA       -45.4370   57.0850   12.6300 C.3   236  GLN236      0.1601
     96  C        -45.1140   58.4550   13.2140 C.2   236  GLN236      0.2287
     97  O        -44.3520   58.5640   14.1760 O.2   236  GLN236     -0.2864
     98  CB       -46.7350   56.5600   13.2440 C.3   236  GLN236      0.0394
     99  CG       -46.5990   56.1470   14.7010 C.3   236  GLN236      0.0908
    100  CD       -47.9380   55.9420   15.3830 C.2   236  GLN236      0.2608
    101  OE1      -48.8880   56.6910   15.1480 O.2   236  GLN236     -0.2717
    102  NE2      -48.0210   54.9250   16.2350 N.am  236  GLN236     -0.0878
    103  N        -46.7520   61.9200   14.9560 N.3   238  LEU238     -0.1245
    104  CA       -47.9300   62.4320   15.6450 C.3   238  LEU238      0.1561
    105  C        -48.4350   63.7030   14.9730 C.2   238  LEU238      0.2260
    106  O        -47.6410   64.5360   14.5320 O.2   238  LEU238     -0.2867
    107  CB       -47.6190   62.7080   17.1190 C.3   238  LEU238      0.0270
    108  CG       -46.9840   61.5710   17.9230 C.3   238  LEU238      0.0019
    109  CD1      -46.7950   61.9780   19.3790 C.3   238  LEU238      0.0001
    110  CD2      -47.8190   60.3050   17.8210 C.3   238  LEU238      0.0001
    111  N        -31.6220   54.3970   16.8210 N.3   265  PHE265     -0.1227
    112  CA       -32.8000   55.1150   17.2800 C.3   265  PHE265      0.1736
    113  C        -32.6030   55.5250   18.7350 C.2   265  PHE265      0.2595
    114  O        -32.8860   56.6600   19.1150 O.2   265  PHE265     -0.2718
    115  CB       -34.0390   54.2280   17.1270 C.3   265  PHE265      0.0547
    116  CG       -35.3310   54.9020   17.5040 C.ar  265  PHE265     -0.0202
    117  CD1      -36.0450   55.6350   16.5710 C.ar  265  PHE265     -0.0042
    118  CD2      -35.8420   54.7820   18.7860 C.ar  265  PHE265     -0.0042
    119  CE1      -37.2380   56.2470   16.9120 C.ar  265  PHE265     -0.0003
    120  CE2      -37.0320   55.3920   19.1340 C.ar  265  PHE265     -0.0003
    121  CZ       -37.7320   56.1250   18.1950 C.ar  265  PHE265     -0.0000
    122  N        -32.0990   54.5950   19.5410 N.am  266  ALA266     -0.1980
    123  CA       -31.8770   54.8450   20.9590 C.3   266  ALA266      0.1597
    124  C        -30.9500   56.0360   21.1690 C.2   266  ALA266      0.2287
    125  O        -31.1410   56.8260   22.0930 O.2   266  ALA266     -0.2864
    126  CB       -31.3110   53.6060   21.6330 C.3   266  ALA266      0.0319
    127  N        -30.4000   58.6110   18.9500 N.3   268  LEU268     -0.1231
    128  CA       -31.1510   59.7930   18.5490 C.3   268  LEU268      0.1693
    129  C        -32.0640   60.2580   19.6750 C.2   268  LEU268      0.2591
    130  O        -32.1300   61.4490   19.9910 O.2   268  LEU268     -0.2718
    131  CB       -31.9910   59.4890   17.3090 C.3   268  LEU268      0.0284
    132  CG       -32.8780   60.6220   16.7880 C.3   268  LEU268      0.0019
    133  CD1      -32.0430   61.8350   16.4050 C.3   268  LEU268      0.0001
    134  CD2      -33.7020   60.1460   15.6070 C.3   268  LEU268      0.0001
    135  N        -32.7710   59.3040   20.2720 N.am  269  ARG269     -0.1980
    136  CA       -33.6840   59.5860   21.3720 C.3   269  ARG269      0.1597
    137  C        -32.9510   60.3170   22.4830 C.2   269  ARG269      0.2287
    138  O        -33.4420   61.3110   23.0140 O.2   269  ARG269     -0.2864
    139  CB       -34.2840   58.2840   21.9020 C.3   269  ARG269      0.0334
    140  CG       -35.3350   58.4740   22.9760 C.3   269  ARG269      0.0492
    141  CD       -35.8990   57.1390   23.4420 C.3   269  ARG269      0.2205
    142  NE       -36.8700   57.3080   24.5210 N.pl3 269  ARG269     -0.0865
    143  CZ       -36.5580   57.3170   25.8130 C.cat 269  ARG269      0.5346
    144  NH1      -35.2970   57.1630   26.1950 N.pl3 269  ARG269      0.1354
    145  NH2      -37.5060   57.4810   26.7240 N.pl3 269  ARG269      0.1354
    146  N        -31.6880   64.2060   21.2930 N.3   272  VAL272     -0.1245
    147  CA       -32.7250   65.2290   21.3950 C.3   272  VAL272      0.1561
    148  C        -33.3400   65.3080   22.7940 C.2   272  VAL272      0.2260
    149  O        -33.8110   66.3680   23.2150 O.2   272  VAL272     -0.2867
    150  CB       -33.8430   64.9790   20.3730 C.3   272  VAL272      0.0252
    151  CG1      -33.2710   64.9730   18.9680 C.3   272  VAL272      0.0019
    152  CG2      -34.5450   63.6640   20.6740 C.3   272  VAL272      0.0019
    153  N        -47.9060   65.0210   26.1270 N.3   303  GLN303     -0.1231
    154  CA       -48.0780   63.8140   26.9320 C.3   303  GLN303      0.1698
    155  C        -46.7380   63.2930   27.4530 C.2   303  GLN303      0.2592
    156  O        -45.6880   63.5760   26.8740 O.2   303  GLN303     -0.2718
    157  CB       -48.7980   62.7330   26.1170 C.3   303  GLN303      0.0381
    158  CG       -49.2040   61.4990   26.9150 C.3   303  GLN303      0.0905
    159  CD       -49.8950   60.4500   26.0610 C.2   303  GLN303      0.2608
    160  OE1      -50.1550   60.6700   24.8770 O.2   303  GLN303     -0.2717
    161  NE2      -50.1950   59.3020   26.6590 N.am  303  GLN303     -0.0878
    162  N        -46.7850   62.5390   28.5480 N.am  304  ASN304     -0.1974
    163  CA       -45.5860   61.9800   29.1630 C.3   304  ASN304      0.1688
    164  C        -44.5090   63.0310   29.3880 C.2   304  ASN304      0.2292
    165  O        -43.3180   62.7270   29.3440 O.2   304  ASN304     -0.2864
    166  CB       -45.0330   60.8350   28.3120 C.3   304  ASN304      0.1181
    167  CG       -45.9460   59.6390   28.2710 C.2   304  ASN304      0.2629
    168  OD1      -46.0520   58.9900   27.2180 O.2   304  ASN304     -0.2716
    169  ND2      -46.6260   59.3250   29.3320 N.am  304  ASN304     -0.0877
@<TRIPOS>BOND
     1    91    90    2
     2    90    89    1
     3    90    94   am
     4    95    94    1
     5    95    96    1
     6    95    98    1
     7    89    88    1
     8    89    92    1
     9    96    97    2
    10    98    99    1
    11    82    81    2
    12    92    93    1
    13    81    80    1
    14   106   105    2
    15    58    56    1
    16    75    74    2
    17    99   100    1
    18    78    76    1
    19    63    62    2
    20   103   104    1
    21   105   104    1
    22   101   100    2
    23    56    57    1
    24    56    53    1
    25   100   102   am
    26    80    79    1
    27    80    83    1
    28    74    79   am
    29    74    73    1
    30   134   132    1
    31    59    57    1
    32   104   107    1
    33    47    45    1
    34    69    70    1
    35    69    68    2
    36    72    73    1
    37    72    70   am
    38    62    68    1
    39    62    61    1
    40    76    73    1
    41    76    77    1
    42    51    50    2
    43    53    54    1
    44    53    52    1
    45   133   132    1
    46    43    42    2
    47    83    84    1
    48    70    71    2
    49    60    54   am
    50    60    61    1
    51   117   119   ar
    52   117   116   ar
    53    45    44    1
    54    45    46    1
    55    44    41    1
    56   132   131    1
    57   111   112    1
    58   119   121   ar
    59    54    55    2
    60    61    64    1
    61    64    65    1
    62   107   108    1
    63   115   112    1
    64   115   116    1
    65    50    52   am
    66    50    49    1
    67    86    85   ar
    68   112   113    1
    69   131   128    1
    70    42    41    1
    71    42    48   am
    72   116   118   ar
    73    41    40    1
    74   110   108    1
    75    65    66    1
    76   108   109    1
    77    84    85    1
    78    85    87   ar
    79   121   120   ar
    80    49    48    1
    81   128   127    1
    82   128   129    1
    83   113   114    2
    84   113   122   am
    85   118   120   ar
    86   151   150    1
    87    40    33   am
    88   122   123    1
    89    66    67    1
    90    34    33    2
    91   129   130    2
    92   129   135   am
    93    33    32    1
    94   135   136    1
    95   150   152    1
    96   150   147    1
    97   123   124    1
    98   123   126    1
    99   124   125    2
   100   146   147    1
   101   136   139    1
   102   136   137    1
   103    32    35    1
   104    32    31    1
   105   147   148    1
   106    36    35    1
   107    36    37    1
   108   139   140    1
   109    38    37   ar
   110    31    29   am
   111    37    39   ar
   112   137   138    2
   113   148   149    2
   114   140   141    1
   115    29    30    2
   116    29    28    1
   117   141   142    1
   118    28    27    1
   119   142   143    2
   120   160   159    2
   121   143   144    1
   122   143   145    1
   123    24    22   ar
   124    24    25   ar
   125    22    20   ar
   126   159   161   am
   127   159   158    1
   128   157   158    1
   129   157   154    1
   130   153   154    1
   131     4     3    2
   132     5     2    1
   133    26    25    1
   134   156   155    2
   135   154   155    1
   136    25    23   ar
   137     2     3    1
   138     2     1    1
   139   168   167    2
   140     3     6   am
   141    20    19    1
   142    20    21   ar
   143    16    19    1
   144    16    17    1
   145    16    15    1
   146   155   162   am
   147    17    18    2
   148    23    21   ar
   149   167   166    1
   150   167   169   am
   151   166   163    1
   152     6     7    1
   153   162   163    1
   154     7     8    1
   155     7    10    1
   156     8     9    2
   157   163   164    1
   158   165   164    2
   159    10    11    1
   160    11    12    1
   161    13    12   ar
   162    12    14   ar
