@<TRIPOS>MOLECULE
tmp/3otqA00.pdb
 241 237 0 0 0
SMALL
GASTEIGER

@<TRIPOS>ATOM
      1  N         68.8690   -9.7010   65.3950 N.3   264  PHE264     -0.1228
      2  CA        69.2170  -11.1130   65.4750 C.3   264  PHE264      0.1721
      3  C         69.6360  -11.5530   66.8870 C.2   264  PHE264      0.2437
      4  O         70.4600  -10.9020   67.5250 O.2   264  PHE264     -0.2733
      5  CB        70.3470  -11.3700   64.4800 C.3   264  PHE264      0.0547
      6  CG        70.8980  -12.7600   64.5190 C.ar  264  PHE264     -0.0202
      7  CD1       71.9750  -13.0720   65.3430 C.ar  264  PHE264     -0.0042
      8  CD2       70.3480  -13.7610   63.7230 C.ar  264  PHE264     -0.0042
      9  CE1       72.5000  -14.3660   65.3730 C.ar  264  PHE264     -0.0003
     10  CE2       70.8570  -15.0530   63.7400 C.ar  264  PHE264     -0.0003
     11  CZ        71.9370  -15.3590   64.5680 C.ar  264  PHE264     -0.0000
     12  N         69.0510  -12.6470   67.4090 N.am  265  PRO265     -0.2729
     13  CA        68.0180  -13.5090   66.8230 C.3   265  PRO265      0.1401
     14  C         66.7460  -13.2990   67.6330 C.2   265  PRO265      0.2269
     15  O         66.3480  -14.1660   68.3980 O.2   265  PRO265     -0.2865
     16  CB        68.5980  -14.8950   67.0300 C.3   265  PRO265      0.0296
     17  CG        69.1810  -14.7730   68.3860 C.3   265  PRO265      0.0237
     18  CD        69.7920  -13.3800   68.4460 C.3   265  PRO265      0.0939
     19  N         69.9930   -3.8030   65.4620 N.3   332  ASP332     -0.1225
     20  CA        70.8730   -4.8840   65.0550 C.3   332  ASP332      0.1805
     21  C         70.8560   -4.9820   63.5400 C.2   332  ASP332      0.2597
     22  O         71.3160   -4.0880   62.8420 O.2   332  ASP332     -0.2718
     23  CB        70.3810   -6.1920   65.6560 C.3   332  ASP332      0.1424
     24  CG        71.4220   -7.2700   65.6090 C.2   332  ASP332      0.3668
     25  OD1       71.8080   -7.6770   64.4990 O.co2 332  ASP332     -0.2456
     26  OD2       71.8560   -7.7050   66.6910 O.co2 332  ASP332     -0.2456
     27  N         70.3360   -6.0790   63.0220 N.am  333  TRP333     -0.1976
     28  CA        70.2670   -6.1910   61.5830 C.3   333  TRP333      0.1640
     29  C         69.1230   -5.3010   61.1550 C.2   333  TRP333      0.2290
     30  O         69.1810   -4.6640   60.1090 O.2   333  TRP333     -0.2864
     31  CB        70.0220   -7.6370   61.1390 C.3   333  TRP333      0.0576
     32  CG        71.2820   -8.4430   61.0430 C.ar  333  TRP333      0.0006
     33  CD1       71.7980   -9.2670   61.9940 C.ar  333  TRP333      0.0946
     34  CD2       72.2000   -8.4760   59.9400 C.ar  333  TRP333      0.0152
     35  NE1       72.9820   -9.8160   61.5570 N.ar  333  TRP333     -0.2442
     36  CE2       73.2530   -9.3470   60.3000 C.ar  333  TRP333      0.0810
     37  CE3       72.2380   -7.8490   58.6870 C.ar  333  TRP333      0.0012
     38  CZ2       74.3310   -9.6140   59.4500 C.ar  333  TRP333      0.0191
     39  CZ3       73.3100   -8.1120   57.8440 C.ar  333  TRP333      0.0001
     40  CH2       74.3430   -8.9870   58.2320 C.ar  333  TRP333      0.0015
     41  N         70.3180   -2.2400   59.9390 N.3   336  MET336     -0.1245
     42  CA        70.9730   -2.2430   58.6370 C.3   336  MET336      0.1570
     43  C         69.9450   -2.1520   57.5210 C.2   336  MET336      0.2261
     44  O         70.1100   -1.3910   56.5660 O.2   336  MET336     -0.2867
     45  CB        71.7610   -3.5300   58.4710 C.3   336  MET336      0.0387
     46  CG        72.6040   -3.5750   57.2400 C.3   336  MET336      0.0595
     47  SD        74.2830   -3.7250   57.7620 S.3   336  MET336     -0.1393
     48  CE        74.5800   -2.0330   58.5020 C.3   336  MET336      0.0692
     49  N         73.2380   -0.1880   65.3920 N.3   357  THR357     -0.1218
     50  CA        73.7520   -0.3620   64.0420 C.3   357  THR357      0.1862
     51  C         74.0830    0.9440   63.3390 C.2   357  THR357      0.2287
     52  O         73.2120    1.7850   63.1030 O.2   357  THR357     -0.2866
     53  CB        72.7720   -1.1470   63.1900 C.3   357  THR357      0.1770
     54  OG1       72.4100   -2.3400   63.8890 O.3   357  THR357     -0.2211
     55  CG2       73.4050   -1.5240   61.8720 C.3   357  THR357      0.0375
     56  N         84.2510   -9.4480   65.3730 N.3   378  PHE378     -0.1241
     57  CA        83.5400  -10.1500   64.3000 C.3   378  PHE378      0.1605
     58  C         84.0660  -11.5630   63.9380 C.2   378  PHE378      0.2264
     59  O         84.0890  -11.9300   62.7570 O.2   378  PHE378     -0.2867
     60  CB        83.5180   -9.2900   63.0100 C.3   378  PHE378      0.0534
     61  CG        82.8890   -7.9010   63.1680 C.ar  378  PHE378     -0.0203
     62  CD1       82.0150   -7.5990   64.2210 C.ar  378  PHE378     -0.0042
     63  CD2       83.1420   -6.9030   62.2110 C.ar  378  PHE378     -0.0042
     64  CE1       81.4050   -6.3170   64.3160 C.ar  378  PHE378     -0.0003
     65  CE2       82.5400   -5.6250   62.2950 C.ar  378  PHE378     -0.0003
     66  CZ        81.6710   -5.3330   63.3440 C.ar  378  PHE378     -0.0000
     67  N         82.7870  -14.5290   65.2680 N.3   380  TYR380     -0.1227
     68  CA        81.6310  -15.4230   65.2560 C.3   380  TYR380      0.1736
     69  C         80.9440  -15.2620   63.8980 C.2   380  TYR380      0.2595
     70  O         80.1980  -16.1340   63.4570 O.2   380  TYR380     -0.2718
     71  CB        80.6710  -15.0200   66.3830 C.3   380  TYR380      0.0548
     72  CG        80.0840  -13.6360   66.1710 C.ar  380  TYR380     -0.0200
     73  CD1       79.0450  -13.4390   65.2630 C.ar  380  TYR380     -0.0009
     74  CD2       80.6150  -12.5180   66.8100 C.ar  380  TYR380     -0.0009
     75  CE1       78.5530  -12.1860   64.9910 C.ar  380  TYR380      0.0417
     76  CE2       80.1260  -11.2450   66.5430 C.ar  380  TYR380      0.0417
     77  CZ        79.0870  -11.0900   65.6240 C.ar  380  TYR380      0.1957
     78  OH        78.5570   -9.8460   65.3200 O.3   380  TYR380     -0.2866
     79  N         81.1970  -14.1180   63.2620 N.am  381  GLN381     -0.1979
     80  CA        80.6370  -13.8010   61.9640 C.3   381  GLN381      0.1601
     81  C         81.1590  -14.7740   60.9090 C.2   381  GLN381      0.2287
     82  O         80.5890  -14.9030   59.8340 O.2   381  GLN381     -0.2864
     83  CB        80.9900  -12.3630   61.5850 C.3   381  GLN381      0.0394
     84  CG        80.1470  -11.2870   62.2730 C.3   381  GLN381      0.0908
     85  CD        80.1230   -9.9710   61.4860 C.2   381  GLN381      0.2608
     86  OE1       80.0390   -9.9830   60.2560 O.2   381  GLN381     -0.2717
     87  NE2       80.1800   -8.8370   62.1920 N.am  381  GLN381     -0.0878
     88  N         79.4340  -18.3560   61.2350 N.3   384  PHE384     -0.1241
     89  CA        78.0700  -18.3680   60.7140 C.3   384  PHE384      0.1605
     90  C         77.9820  -18.6690   59.2240 C.2   384  PHE384      0.2264
     91  O         76.9010  -18.9060   58.6910 O.2   384  PHE384     -0.2867
     92  CB        77.3840  -17.0310   60.9740 C.3   384  PHE384      0.0534
     93  CG        76.9410  -16.8390   62.3860 C.ar  384  PHE384     -0.0203
     94  CD1       76.8410  -17.9160   63.2550 C.ar  384  PHE384     -0.0042
     95  CD2       76.5890  -15.5770   62.8430 C.ar  384  PHE384     -0.0042
     96  CE1       76.3900  -17.7390   64.5690 C.ar  384  PHE384     -0.0003
     97  CE2       76.1390  -15.3880   64.1500 C.ar  384  PHE384     -0.0003
     98  CZ        76.0400  -16.4770   65.0170 C.ar  384  PHE384     -0.0000
     99  N         72.8720  -23.9260   68.0180 N.3   394  LEU394     -0.1245
    100  CA        71.8530  -22.9530   68.3760 C.3   394  LEU394      0.1561
    101  C         70.4790  -23.6180   68.5210 C.2   394  LEU394      0.2260
    102  O         69.7810  -23.4170   69.5180 O.2   394  LEU394     -0.2867
    103  CB        71.8090  -21.8390   67.3290 C.3   394  LEU394      0.0270
    104  CG        73.0350  -20.9250   67.3210 C.3   394  LEU394      0.0019
    105  CD1       72.7900  -19.7150   66.4270 C.3   394  LEU394      0.0001
    106  CD2       73.3210  -20.4730   68.7380 C.3   394  LEU394      0.0001
    107  N         71.6640  -17.4320   77.3210 N.3   404  SER404     -0.1202
    108  CA        73.0810  -17.1600   77.1290 C.3   404  SER404      0.2020
    109  C         73.2950  -15.8640   76.3380 C.2   404  SER404      0.2618
    110  O         74.1760  -15.0620   76.6590 O.2   404  SER404     -0.2717
    111  CB        73.7360  -18.3230   76.3810 C.3   404  SER404      0.2103
    112  OG        73.5490  -19.5440   77.0650 O.3   404  SER404     -0.2182
    113  N         72.4900  -15.6700   75.2970 N.am  405  LEU405     -0.1979
    114  CA        72.5900  -14.4840   74.4560 C.3   405  LEU405      0.1596
    115  C         72.0450  -13.2560   75.1530 C.2   405  LEU405      0.2287
    116  O         72.7640  -12.2770   75.3660 O.2   405  LEU405     -0.2864
    117  CB        71.8160  -14.6730   73.1530 C.3   405  LEU405      0.0297
    118  CG        72.2320  -15.7990   72.2200 C.3   405  LEU405      0.0022
    119  CD1       71.5270  -15.6360   70.8970 C.3   405  LEU405      0.0001
    120  CD2       73.7360  -15.7700   72.0280 C.3   405  LEU405      0.0001
    121  N         71.8950  -11.5290   77.6250 N.3   407  ARG407     -0.1231
    122  CA        72.6080  -11.2350   78.8640 C.3   407  ARG407      0.1694
    123  C         73.2710   -9.8750   78.7710 C.2   407  ARG407      0.2592
    124  O         73.8580   -9.5450   77.7570 O.2   407  ARG407     -0.2718
    125  CB        73.6670  -12.3010   79.1280 C.3   407  ARG407      0.0321
    126  CG        73.0730  -13.6740   79.2610 C.3   407  ARG407      0.0489
    127  CD        74.0970  -14.6870   79.6250 C.3   407  ARG407      0.2205
    128  NE        73.7190  -15.3770   80.8480 N.pl3 407  ARG407     -0.0865
    129  CZ        73.7720  -14.8220   82.0510 C.cat 407  ARG407      0.5346
    130  NH1       73.4130  -15.5110   83.1290 N.pl3 407  ARG407      0.1354
    131  NH2       74.1960  -13.5730   82.1760 N.pl3 407  ARG407      0.1354
    132  N         73.1670   -9.0850   79.8350 N.am  408  ALA408     -0.1966
    133  CA        73.7660   -7.7530   79.8610 C.3   408  ALA408      0.1728
    134  C         75.2740   -7.8250   79.5730 C.2   408  ALA408      0.2616
    135  O         75.8460   -8.9260   79.4320 O.2   408  ALA408     -0.2715
    136  CB        73.5140   -7.0910   81.2200 C.3   408  ALA408      0.0334
    137  N         75.9050   -6.6510   79.4760 N.am  409  SER409     -0.1950
    138  CA        77.3450   -6.5510   79.2130 C.3   409  SER409      0.1924
    139  C         78.1160   -7.3130   80.2930 C.2   409  SER409      0.2314
    140  O         78.9390   -8.1900   79.9960 O.2   409  SER409     -0.2863
    141  CB        77.7860   -5.0800   79.2110 C.3   409  SER409      0.2116
    142  OG        77.5090   -4.4550   80.4600 O.3   409  SER409     -0.2180
    143  N         77.3240  -11.3740   80.9530 N.3   412  SER412     -0.1202
    144  CA        77.9090  -12.2720   79.9480 C.3   412  SER412      0.2020
    145  C         78.3540  -13.6770   80.3860 C.2   412  SER412      0.2619
    146  O         78.7490  -13.8920   81.5310 O.2   412  SER412     -0.2717
    147  CB        79.0900  -11.5550   79.2760 C.3   412  SER412      0.2103
    148  OG        79.6430  -12.3280   78.2300 O.3   412  SER412     -0.2182
    149  N         78.2780  -14.6290   79.4550 N.am  413  VAL413     -0.1965
    150  CA        78.7000  -16.0180   79.6840 C.3   413  VAL413      0.1727
    151  C         79.3080  -16.5410   78.3750 C.2   413  VAL413      0.2616
    152  O         79.4300  -17.7510   78.1640 O.2   413  VAL413     -0.2715
    153  CB        77.5130  -16.9550   80.1080 C.3   413  VAL413      0.0290
    154  CG1       76.9220  -16.4950   81.4180 C.3   413  VAL413      0.0023
    155  CG2       76.4590  -16.9940   79.0310 C.3   413  VAL413      0.0023
    156  N         79.6900  -15.5970   77.5150 N.am  414  LEU414     -0.1977
    157  CA        80.2730  -15.8660   76.1980 C.3   414  LEU414      0.1596
    158  C         81.4630  -14.9440   75.9400 C.2   414  LEU414      0.2287
    159  O         81.8060  -14.1030   76.7680 O.2   414  LEU414     -0.2864
    160  CB        79.2270  -15.6180   75.1060 C.3   414  LEU414      0.0297
    161  CG        78.5100  -16.7360   74.3550 C.3   414  LEU414      0.0022
    162  CD1       78.2060  -17.9250   75.2580 C.3   414  LEU414      0.0001
    163  CD2       77.2350  -16.1370   73.7790 C.3   414  LEU414      0.0001
    164  N         82.6660  -13.9430   72.0470 N.3   416  MET416     -0.1245
    165  CA        82.7060  -14.0410   70.5790 C.3   416  MET416      0.1570
    166  C         84.0470  -13.8530   69.8590 C.2   416  MET416      0.2261
    167  O         84.1050  -13.8990   68.6250 O.2   416  MET416     -0.2867
    168  CB        81.6640  -13.0720   70.0090 C.3   416  MET416      0.0387
    169  CG        80.2780  -13.2790   70.6310 C.3   416  MET416      0.0595
    170  SD        79.1250  -11.9520   70.2640 S.3   416  MET416     -0.1393
    171  CE        79.1920  -10.9610   71.7730 C.3   416  MET416      0.0692
    172  N         79.9930  -21.4150   69.7110 N.3   425  LEU425     -0.1245
    173  CA        79.7740  -20.1600   70.4070 C.3   425  LEU425      0.1561
    174  C         79.4680  -20.4000   71.8810 C.2   425  LEU425      0.2260
    175  O         79.6010  -19.4890   72.6970 O.2   425  LEU425     -0.2867
    176  CB        78.6340  -19.4000   69.7120 C.3   425  LEU425      0.0270
    177  CG        78.2480  -17.9590   70.0750 C.3   425  LEU425      0.0019
    178  CD1       77.1680  -17.9770   71.1420 C.3   425  LEU425      0.0001
    179  CD2       79.4740  -17.1640   70.5110 C.3   425  LEU425      0.0001
    180  N         73.4520  -13.1840   57.8000 N.3   463  TYR463     -0.1241
    181  CA        74.9050  -13.0980   57.9090 C.3   463  TYR463      0.1605
    182  C         75.5600  -13.7100   56.6790 C.2   463  TYR463      0.2264
    183  O         76.7590  -13.5640   56.4730 O.2   463  TYR463     -0.2867
    184  CB        75.3910  -13.8980   59.1190 C.3   463  TYR463      0.0534
    185  CG        75.1920  -13.2450   60.4580 C.ar  463  TYR463     -0.0201
    186  CD1       76.0440  -12.2240   60.8940 C.ar  463  TYR463     -0.0009
    187  CD2       74.1570  -13.6540   61.3020 C.ar  463  TYR463     -0.0009
    188  CE1       75.8740  -11.6260   62.1370 C.ar  463  TYR463      0.0417
    189  CE2       73.9730  -13.0640   62.5450 C.ar  463  TYR463      0.0417
    190  CZ        74.8330  -12.0480   62.9600 C.ar  463  TYR463      0.1957
    191  OH        74.6220  -11.4530   64.1870 O.3   463  TYR463     -0.2866
    192  N         79.4830   -4.3330   72.8380 N.3   494  PHE494     -0.1227
    193  CA        80.8480   -4.6550   72.4810 C.3   494  PHE494      0.1736
    194  C         81.1270   -4.9870   71.0220 C.2   494  PHE494      0.2595
    195  O         82.2190   -4.7170   70.5280 O.2   494  PHE494     -0.2718
    196  CB        81.3300   -5.7630   73.4070 C.3   494  PHE494      0.0547
    197  CG        81.3850   -5.3370   74.8420 C.ar  494  PHE494     -0.0202
    198  CD1       80.9810   -6.1910   75.8620 C.ar  494  PHE494     -0.0042
    199  CD2       81.8190   -4.0580   75.1750 C.ar  494  PHE494     -0.0042
    200  CE1       81.0050   -5.7700   77.1990 C.ar  494  PHE494     -0.0003
    201  CE2       81.8480   -3.6270   76.4980 C.ar  494  PHE494     -0.0003
    202  CZ        81.4390   -4.4820   77.5140 C.ar  494  PHE494     -0.0000
    203  N         80.1480   -5.5510   70.3240 N.am  495  VAL495     -0.1966
    204  CA        80.3130   -5.9120   68.9070 C.3   495  VAL495      0.1727
    205  C         79.9710   -4.7570   67.9640 C.2   495  VAL495      0.2616
    206  O         80.5820   -4.6050   66.8990 O.2   495  VAL495     -0.2715
    207  CB        79.4240   -7.1010   68.5600 C.3   495  VAL495      0.0290
    208  CG1       78.1500   -6.9950   69.3800 C.3   495  VAL495      0.0023
    209  CG2       79.1130   -7.1210   67.0560 C.3   495  VAL495      0.0023
    210  N         78.9690   -3.9740   68.3610 N.am  496  LEU496     -0.1977
    211  CA        78.5210   -2.8140   67.6090 C.3   496  LEU496      0.1596
    212  C         78.6360   -1.6590   68.5870 C.2   496  LEU496      0.2287
    213  O         77.6460   -1.2310   69.1690 O.2   496  LEU496     -0.2864
    214  CB        77.0610   -2.9800   67.1520 C.3   496  LEU496      0.0297
    215  CG        76.6730   -3.9460   66.0150 C.3   496  LEU496      0.0022
    216  CD1       75.1560   -4.0940   65.9810 C.3   496  LEU496      0.0001
    217  CD2       77.2000   -3.4410   64.6640 C.3   496  LEU496      0.0001
    218  N         73.6150   -4.6530   74.4830 N.3   521  HIS521     -0.1226
    219  CA        73.3590   -4.8480   73.0650 C.3   521  HIS521      0.1752
    220  C         71.8840   -5.0870   72.8080 C.2   521  HIS521      0.2596
    221  O         71.4290   -4.9810   71.6760 O.2   521  HIS521     -0.2718
    222  CB        74.1480   -6.0540   72.5640 C.3   521  HIS521      0.0759
    223  CG        73.6790   -6.5730   71.2400 C.ar  521  HIS521      0.0818
    224  ND1       73.9430   -5.9290   70.0500 N.ar  521  HIS521     -0.2268
    225  CD2       72.9360   -7.6590   70.9230 C.ar  521  HIS521      0.1154
    226  CE1       73.3850   -6.5970   69.0580 C.ar  521  HIS521      0.1986
    227  NE2       72.7670   -7.6500   69.5600 N.ar  521  HIS521     -0.2212
    228  N         71.1360   -5.4330   73.8480 N.am  522  TRP522     -0.1976
    229  CA        69.7060   -5.6840   73.6920 C.3   522  TRP522      0.1640
    230  C         69.0020   -4.4400   74.1980 C.2   522  TRP522      0.2290
    231  O         68.1530   -4.4930   75.0840 O.2   522  TRP522     -0.2864
    232  CB        69.2880   -6.9370   74.4850 C.3   522  TRP522      0.0576
    233  CG        70.2180   -8.1150   74.2630 C.ar  522  TRP522      0.0006
    234  CD1       71.1710   -8.5760   75.1260 C.ar  522  TRP522      0.0946
    235  CD2       70.3740   -8.8760   73.0570 C.ar  522  TRP522      0.0152
    236  NE1       71.9190   -9.5630   74.5310 N.ar  522  TRP522     -0.2442
    237  CE2       71.4530   -9.7680   73.2600 C.ar  522  TRP522      0.0810
    238  CE3       69.7120   -8.8870   71.8230 C.ar  522  TRP522      0.0012
    239  CZ2       71.8860  -10.6610   72.2730 C.ar  522  TRP522      0.0191
    240  CZ3       70.1420   -9.7750   70.8450 C.ar  522  TRP522      0.0001
    241  CH2       71.2220  -10.6500   71.0780 C.ar  522  TRP522      0.0015
@<TRIPOS>BOND
     1   183   182    2
     2    44    43    2
     3   182   181    1
     4    46    47    1
     5    46    45    1
     6    43    42    1
     7    47    48    1
     8   180   181    1
     9    39    40   ar
    10    39    37   ar
    11   181   184    1
    12    40    38   ar
    13    45    42    1
    14    42    41    1
    15    37    34   ar
    16    91    90    2
    17   184   185    1
    18    90    89    1
    19    38    36   ar
    20    82    81    2
    21    34    36   ar
    22    34    32   ar
    23    30    29    2
    24    86    85    2
    25    36    35   ar
    26   185   186   ar
    27   185   187   ar
    28    89    92    1
    29    89    88    1
    30   186   188   ar
    31    81    80    1
    32    92    93    1
    33    32    31    1
    34    32    33   ar
    35    31    28    1
    36    29    28    1
    37   187   189   ar
    38    85    87   am
    39    85    84    1
    40    35    33   ar
    41    28    27    1
    42    83    80    1
    43    83    84    1
    44    55    53    1
    45    80    79    1
    46   188   190   ar
    47    63    65   ar
    48    63    61   ar
    49    65    66   ar
    50    93    95   ar
    51    93    94   ar
    52   189   190   ar
    53    59    58    2
    54    22    21    2
    55    95    97   ar
    56   190   191    1
    57    60    61    1
    58    60    57    1
    59    27    21   am
    60    52    51    2
    61    61    62   ar
    62    53    54    1
    63    53    50    1
    64    94    96   ar
    65    79    69   am
    66    51    50    1
    67    66    64   ar
    68    70    69    2
    69    21    20    1
    70     8    10   ar
    71     8     6   ar
    72    10    11   ar
    73    69    68    1
    74    58    57    1
    75    50    49    1
    76    97    98   ar
    77    62    64   ar
    78    57    56    1
    79     5     6    1
    80     5     2    1
    81    25    24   ar
    82     6     7   ar
    83    11     9   ar
    84    96    98   ar
    85   217   215    1
    86    75    73   ar
    87    75    77   ar
    88    20    19    1
    89    20    23    1
    90    68    67    1
    91    68    71    1
    92    73    72   ar
    93    78    77    1
    94     7     9   ar
    95     1     2    1
    96     2     3    1
    97    24    23    1
    98    24    26   ar
    99    77    76   ar
   100   216   215    1
   101   215   214    1
   102    72    71    1
   103    72    74   ar
   104   105   104    1
   105    76    74   ar
   106    13    16    1
   107    13    12    1
   108    13    14    1
   109     3    12   am
   110     3     4    2
   111   206   205    2
   112    16    17    1
   113   209   207    1
   114   214   211    1
   115   104   103    1
   116   104   106    1
   117   103   100    1
   118    12    18    1
   119   211   210    1
   120   211   212    1
   121    14    15    2
   122   205   210   am
   123   205   204    1
   124    99   100    1
   125   100   101    1
   126    17    18    1
   127   101   102    2
   128   207   204    1
   129   207   208    1
   130   212   213    2
   131   167   166    2
   132   204   203    1
   133   226   227   ar
   134   226   224   ar
   135   227   225   ar
   136   172   173    1
   137   176   177    1
   138   176   173    1
   139   166   165    1
   140   168   165    1
   141   168   169    1
   142   224   223   ar
   143   177   179    1
   144   177   178    1
   145   170   169    1
   146   170   171    1
   147   203   194   am
   148   173   174    1
   149   195   194    2
   150   165   164    1
   151   240   241   ar
   152   240   238   ar
   153   119   118    1
   154   225   223   ar
   155   194   193    1
   156   241   239   ar
   157   223   222    1
   158   221   220    2
   159   238   235   ar
   160   174   175    2
   161   120   118    1
   162   118   117    1
   163   239   237   ar
   164   193   192    1
   165   193   196    1
   166   222   219    1
   167   220   219    1
   168   220   228   am
   169   235   237   ar
   170   235   233   ar
   171   219   218    1
   172   117   114    1
   173   237   236   ar
   174   196   197    1
   175   229   228    1
   176   229   230    1
   177   229   232    1
   178   163   161    1
   179   230   231    2
   180   233   232    1
   181   233   234   ar
   182   161   160    1
   183   161   162    1
   184   114   115    1
   185   114   113    1
   186   236   234   ar
   187   197   199   ar
   188   197   198   ar
   189   160   157    1
   190   115   116    2
   191   199   201   ar
   192   113   109   am
   193   198   200   ar
   194   158   157    1
   195   158   159    2
   196   157   156    1
   197   109   110    2
   198   109   108    1
   199   111   112    1
   200   111   108    1
   201   201   202   ar
   202   108   107    1
   203   200   202   ar
   204   156   151   am
   205   121   122    1
   206   124   123    2
   207   152   151    2
   208   148   147    1
   209   151   150    1
   210   123   122    1
   211   123   132   am
   212   122   125    1
   213   155   153    1
   214   125   126    1
   215   141   138    1
   216   141   142    1
   217   138   137    1
   218   138   139    1
   219   126   127    1
   220   147   144    1
   221   135   134    2
   222   149   150    1
   223   149   145   am
   224   137   134   am
   225   134   133    1
   226   127   128    1
   227   150   153    1
   228   132   133    1
   229   133   136    1
   230   144   145    1
   231   144   143    1
   232   140   139    2
   233   153   154    1
   234   145   146    2
   235   128   129    2
   236   129   131    1
   237   129   130    1
