@<TRIPOS>MOLECULE
tmp/3otsB00.pdb
 118 111 0 0 0
SMALL
GASTEIGER

@<TRIPOS>ATOM
      1  N         29.2110    8.7780   -0.8340 N.3     8  ARG8       -0.1245
      2  CA        28.0390    8.2530   -1.5330 C.3     8  ARG8        0.1563
      3  C         28.4850    7.3060   -2.6240 C.2     8  ARG8        0.2260
      4  O         29.4200    7.6340   -3.3710 O.2     8  ARG8       -0.2867
      5  CB        27.2420    9.3940   -2.1430 C.3     8  ARG8        0.0307
      6  CG        26.6490   10.2900   -1.0990 C.3     8  ARG8        0.0489
      7  CD        25.8710   11.4190   -1.7150 C.3     8  ARG8        0.2205
      8  NE        25.2340   12.2070   -0.6550 N.pl3   8  ARG8       -0.0865
      9  CZ        24.7060   13.4200   -0.8290 C.cat   8  ARG8        0.5346
     10  NH1       24.7360   13.9990   -2.0270 N.pl3   8  ARG8        0.1354
     11  NH2       24.1500   14.0550    0.1960 N.pl3   8  ARG8        0.1354
     12  N         23.3890    6.5480   -8.0910 N.3    23  LEU23      -0.1245
     13  CA        23.6820    6.1600   -6.7160 C.3    23  LEU23       0.1561
     14  C         23.1760    4.7390   -6.4520 C.2    23  LEU23       0.2260
     15  O         22.0010    4.4600   -6.6630 O.2    23  LEU23      -0.2867
     16  CB        22.9380    7.1220   -5.7970 C.3    23  LEU23       0.0270
     17  CG        22.9990    6.8810   -4.2900 C.3    23  LEU23       0.0019
     18  CD1       24.3780    7.2040   -3.7940 C.3    23  LEU23       0.0001
     19  CD2       21.9540    7.7670   -3.6600 C.3    23  LEU23       0.0001
     20  N         21.6190    2.4190   -4.3090 N.3    25  ASN25      -0.1240
     21  CA        20.7420    2.7260   -3.1890 C.3    25  ASN25       0.1653
     22  C         19.9810    1.5090   -2.6970 C.2    25  ASN25       0.2266
     23  O         18.9360    1.1520   -3.2520 O.2    25  ASN25      -0.2867
     24  CB        19.7600    3.8160   -3.6160 C.3    25  ASN25       0.1155
     25  CG        18.9400    4.3630   -2.4480 C.2    25  ASN25       0.2627
     26  OD1       18.8800    3.7540   -1.3830 O.2    25  ASN25      -0.2716
     27  ND2       18.3130    5.5160   -2.6530 N.am   25  ASN25      -0.0877
     28  N         18.2570    1.2680   -0.1510 N.3    27  GLY27      -0.1210
     29  CA        16.9550    1.6840    0.4060 C.3    27  GLY27       0.1956
     30  C         15.8510    1.8450   -0.6220 C.2    27  GLY27       0.2612
     31  O         14.6950    2.0550   -0.2610 O.2    27  GLY27      -0.2717
     32  N         16.2020    1.7440   -1.9030 N.am   28  ALA28      -0.1965
     33  CA        15.2300    1.9280   -2.9850 C.3    28  ALA28       0.1728
     34  C         14.8880    0.5940   -3.6210 C.2    28  ALA28       0.2616
     35  O         15.7870   -0.1520   -4.0210 O.2    28  ALA28      -0.2715
     36  CB        15.7820    2.8740   -4.0620 C.3    28  ALA28       0.0334
     37  N         13.5910    0.3300   -3.7520 N.am   29  ASP29      -0.1957
     38  CA        13.1110   -0.9130   -4.3810 C.3    29  ASP29       0.1840
     39  C         13.4270   -0.8560   -5.8710 C.2    29  ASP29       0.2622
     40  O         13.8010   -1.8670   -6.4660 O.2    29  ASP29      -0.2715
     41  CB        11.5970   -1.0520   -4.2190 C.3    29  ASP29       0.1450
     42  CG        11.1660   -1.2210   -2.7680 C.2    29  ASP29       0.3671
     43  OD1        9.9510   -1.0160   -2.5200 O.co2  29  ASP29      -0.2456
     44  OD2       12.0140   -1.5590   -1.8930 O.co2  29  ASP29      -0.2456
     45  N         13.2480    0.3280   -6.4580 N.am   30  ASP30      -0.1971
     46  CA        13.2690    0.5010   -7.9190 C.3    30  ASP30       0.1709
     47  C         14.3790    1.4570   -8.3640 C.2    30  ASP30       0.2293
     48  O         14.9190    2.2180   -7.5620 O.2    30  ASP30      -0.2864
     49  CB        11.9170    1.0210   -8.4220 C.3    30  ASP30       0.1436
     50  CG        10.7660    0.2130   -7.9130 C.2    30  ASP30       0.3671
     51  OD1        9.8210    0.8200   -7.3660 O.co2  30  ASP30      -0.2456
     52  OD2       10.8290   -1.0310   -7.9970 O.co2  30  ASP30      -0.2456
     53  N         15.4000    4.6180  -10.6910 N.3    32  VAL32      -0.1245
     54  CA        14.7600    5.8030  -11.2770 C.3    32  VAL32       0.1561
     55  C         15.8500    6.7020  -11.8460 C.2    32  VAL32       0.2260
     56  O         16.7970    7.0730  -11.1430 O.2    32  VAL32      -0.2867
     57  CB        13.9100    6.5900  -10.2540 C.3    32  VAL32       0.0252
     58  CG1       13.1790    7.7380  -10.9690 C.3    32  VAL32       0.0019
     59  CG2       12.8890    5.6680   -9.5720 C.3    32  VAL32       0.0019
     60  N          3.6080    4.7640  -14.1450 N.3    45  LYS45      -0.1231
     61  CA         3.6520    4.1530  -12.8210 C.3    45  LYS45       0.1693
     62  C          3.6560    5.2990  -11.8190 C.2    45  LYS45       0.2592
     63  O          4.3410    6.3030  -12.0280 O.2    45  LYS45      -0.2718
     64  CB         4.8990    3.2770  -12.6520 C.3    45  LYS45       0.0285
     65  CG         5.0670    2.6640  -11.2430 C.3    45  LYS45       0.0035
     66  CD         6.3680    1.8460  -11.1270 C.3    45  LYS45       0.0206
     67  CE         6.4910    1.1180   -9.7700 C.3    45  LYS45       0.1093
     68  NZ         5.4050    0.1350   -9.5230 N.3    45  LYS45      -0.1314
     69  N          2.8650    5.1510  -10.7540 N.am   46  LEU46      -0.1966
     70  CA         2.9150    6.0880   -9.6340 C.3    46  LEU46       0.1728
     71  C          3.8710    5.5880   -8.5620 C.2    46  LEU46       0.2616
     72  O          3.7800    4.4430   -8.1080 O.2    46  LEU46      -0.2715
     73  CB         1.5210    6.3020   -9.0440 C.3    46  LEU46       0.0311
     74  CG         0.4880    6.9840   -9.9380 C.3    46  LEU46       0.0022
     75  CD1       -0.8410    7.0530   -9.1730 C.3    46  LEU46       0.0001
     76  CD2        0.9450    8.3730  -10.3680 C.3    46  LEU46       0.0001
     77  N          4.7950    6.4530   -8.1620 N.am   47  ILE47      -0.1963
     78  CA         5.7820    6.1210   -7.1230 C.3    47  ILE47       0.1727
     79  C          5.7840    7.1770   -6.0160 C.2    47  ILE47       0.2616
     80  O          4.9780    8.1200   -6.0400 O.2    47  ILE47      -0.2715
     81  CB         7.2220    5.8290   -7.7030 C.3    47  ILE47       0.0290
     82  CG1        7.8350    7.0530   -8.3920 C.3    47  ILE47       0.0022
     83  CG2        7.2010    4.6110   -8.6400 C.3    47  ILE47       0.0023
     84  CD1        9.3530    6.9240   -8.6890 C.3    47  ILE47       0.0001
     85  N          6.6750    7.0120   -5.0320 N.am   48  GLY48      -0.1955
     86  CA         6.6470    7.8570   -3.8290 C.3    48  GLY48       0.1869
     87  C          5.3370    7.6070   -3.1060 C.2    48  GLY48       0.2309
     88  O          4.9480    6.4460   -2.8890 O.2    48  GLY48      -0.2863
     89  N          1.7170   11.6240   -5.1910 N.3    53  PHE53      -0.1241
     90  CA         2.5230   10.6320   -5.8840 C.3    53  PHE53       0.1605
     91  C          3.2490   11.3080   -7.0280 C.2    53  PHE53       0.2264
     92  O          2.7950   12.3540   -7.5030 O.2    53  PHE53      -0.2867
     93  CB         1.6410    9.5290   -6.4420 C.3    53  PHE53       0.0534
     94  CG         1.0090    8.6730   -5.3880 C.ar   53  PHE53      -0.0203
     95  CD1        1.5720    7.4620   -5.0480 C.ar   53  PHE53      -0.0042
     96  CD2       -0.1510    9.0980   -4.7330 C.ar   53  PHE53      -0.0042
     97  CE1        0.9750    6.6490   -4.0820 C.ar   53  PHE53      -0.0003
     98  CE2       -0.7400    8.3030   -3.7640 C.ar   53  PHE53      -0.0003
     99  CZ        -0.1580    7.0660   -3.4480 C.ar   53  PHE53      -0.0000
    100  N         15.5420   13.6940   -7.8170 N.3    81  PRO81      -0.2102
    101  CA        16.6210   14.5360   -7.3420 C.3    81  PRO81       0.1504
    102  C         18.0050   13.9260   -7.5650 C.2    81  PRO81       0.2575
    103  O         18.9670   14.6610   -7.7680 O.2    81  PRO81      -0.2718
    104  CB        16.3180   14.6830   -5.8490 C.3    81  PRO81       0.0282
    105  CG        14.8630   14.4090   -5.7200 C.3    81  PRO81       0.0208
    106  CD        14.6130   13.3250   -6.7340 C.3    81  PRO81       0.0893
    107  N         18.1170   12.5980   -7.5190 N.am   82  ALA82      -0.1980
    108  CA        19.4010   11.9310   -7.7850 C.3    82  ALA82       0.1597
    109  C         19.0930   10.6710   -8.5890 C.2    82  ALA82       0.2287
    110  O         18.1130   10.0110   -8.2860 O.2    82  ALA82      -0.2864
    111  CB        20.1040   11.5380   -6.4460 C.3    82  ALA82       0.0319
    112  N         19.0600    6.9790   -9.3480 N.3    84  VAL84      -0.1245
    113  CA        19.1270    5.9270   -8.3300 C.3    84  VAL84       0.1561
    114  C         19.1240    4.5360   -8.9630 C.2    84  VAL84       0.2260
    115  O         18.2260    4.2490   -9.7640 O.2    84  VAL84      -0.2867
    116  CB        17.9570    6.0860   -7.3460 C.3    84  VAL84       0.0252
    117  CG1       17.8550    4.8800   -6.4370 C.3    84  VAL84       0.0019
    118  CG2       18.1700    7.3310   -6.5010 C.3    84  VAL84       0.0019
@<TRIPOS>BOND
     1    60    61    1
     2    61    64    1
     3    61    62    1
     4    64    65    1
     5    63    62    2
     6    55    54    1
     7    55    56    2
     8    62    69   am
     9    54    53    1
    10    54    57    1
    11    65    66    1
    12    66    67    1
    13    58    57    1
    14    69    70    1
    15    76    74    1
    16    57    59    1
    17    74    75    1
    18    74    73    1
    19    67    68    1
    20   115   114    2
    21    70    73    1
    22    70    71    1
    23   112   113    1
    24   114   113    1
    25    84    82    1
    26    83    81    1
    27   109   110    2
    28   109   108    1
    29    71    77   am
    30    71    72    2
    31    49    46    1
    32    49    50    1
    33    82    81    1
    34    47    46    1
    35    47    48    2
    36   113   116    1
    37    77    78    1
    38    12    13    1
    39    52    50   ar
    40    46    45    1
    41    50    51   ar
    42   100   101    1
    43   100   106    1
    44   108   107    1
    45   108   111    1
    46   103   102    2
    47    81    78    1
    48   102   107   am
    49   102   101    1
    50    92    91    2
    51   116   118    1
    52   116   117    1
    53   101   104    1
    54    78    79    1
    55    91    90    1
    56   106   105    1
    57    13    14    1
    58    13    16    1
    59    15    14    2
    60    40    39    2
    61    45    39   am
    62    93    90    1
    63    93    94    1
    64    80    79    2
    65    79    85   am
    66    90    89    1
    67    39    38    1
    68   104   105    1
    69    16    17    1
    70    94    95   ar
    71    94    96   ar
    72    95    97   ar
    73    85    86    1
    74    96    98   ar
    75    38    41    1
    76    38    37    1
    77    20    21    1
    78    17    18    1
    79    17    19    1
    80    41    42    1
    81    97    99   ar
    82    36    33    1
    83    35    34    2
    84    86    87    1
    85    98    99   ar
    86    37    34   am
    87    34    33    1
    88    24    21    1
    89    24    25    1
    90     4     3    2
    91    23    22    2
    92    21    22    1
    93    87    88    2
    94    33    32    1
    95    42    43   ar
    96    42    44   ar
    97    27    25   am
    98     3     2    1
    99    25    26    2
   100     5     2    1
   101     5     6    1
   102    10     9    1
   103    32    30   am
   104     7     6    1
   105     7     8    1
   106     2     1    1
   107     9     8    2
   108     9    11    1
   109    30    31    2
   110    30    29    1
   111    28    29    1
