@<TRIPOS>MOLECULE
tmp/3otuA00.pdb
 113 107 0 0 0
SMALL
GASTEIGER

@<TRIPOS>ATOM
      1  N         -6.5660  -13.7370  -21.8420 N.3    38  LYS38      -0.1231
      2  CA        -5.1420  -13.9890  -21.7040 C.3    38  LYS38       0.1693
      3  C         -4.4260  -13.8360  -23.0430 C.2    38  LYS38       0.2591
      4  O         -3.4430  -13.0940  -23.1560 O.2    38  LYS38      -0.2718
      5  CB        -4.9100  -15.3740  -21.1050 C.3    38  LYS38       0.0285
      6  CG        -5.5490  -15.5150  -19.7270 C.3    38  LYS38       0.0035
      7  CD        -5.2620  -16.8580  -19.0840 C.3    38  LYS38       0.0206
      8  CE        -6.0110  -17.0070  -17.7630 C.3    38  LYS38       0.1093
      9  NZ        -5.8940  -18.3760  -17.1500 N.3    38  LYS38      -0.1314
     10  N         -4.9350  -14.5130  -24.0670 N.am   39  ARG39      -0.1980
     11  CA        -4.2550  -14.5250  -25.3580 C.3    39  ARG39       0.1597
     12  C         -4.2360  -13.1590  -26.0480 C.2    39  ARG39       0.2287
     13  O         -3.2740  -12.8130  -26.7370 O.2    39  ARG39      -0.2864
     14  CB        -4.8540  -15.5960  -26.2570 C.3    39  ARG39       0.0334
     15  CG        -4.4350  -17.0240  -25.8550 C.3    39  ARG39       0.0492
     16  CD        -5.0030  -17.4860  -24.4900 C.3    39  ARG39       0.2205
     17  NE        -5.4220  -18.8880  -24.5570 N.pl3  39  ARG39      -0.0865
     18  CZ        -5.8430  -19.6210  -23.5290 C.cat  39  ARG39       0.5346
     19  NH1       -5.9080  -19.1020  -22.3090 N.pl3  39  ARG39       0.1354
     20  NH2       -6.1930  -20.8910  -23.7250 N.pl3  39  ARG39       0.1354
     21  N         -4.4160  -10.2270  -24.3990 N.3    41  ILE41      -0.1231
     22  CA        -3.4890   -9.4420  -23.6100 C.3    41  ILE41       0.1692
     23  C         -2.0600   -9.6750  -24.1100 C.2    41  ILE41       0.2591
     24  O         -1.2690   -8.7380  -24.2080 O.2    41  ILE41      -0.2718
     25  CB        -3.5920   -9.8110  -22.1420 C.3    41  ILE41       0.0266
     26  CG1       -4.7800   -9.1060  -21.5120 C.3    41  ILE41       0.0019
     27  CG2       -2.3240   -9.4320  -21.4030 C.3    41  ILE41       0.0020
     28  CD1       -4.9110   -9.4170  -20.0400 C.3    41  ILE41       0.0001
     29  N         -1.7320  -10.9250  -24.4340 N.am   42  ILE42      -0.1980
     30  CA        -0.4240  -11.2280  -25.0070 C.3    42  ILE42       0.1595
     31  C         -0.2460  -10.5770  -26.3870 C.2    42  ILE42       0.2287
     32  O          0.6660   -9.7650  -26.5880 O.2    42  ILE42      -0.2864
     33  CB        -0.1570  -12.7450  -25.0870 C.3    42  ILE42       0.0276
     34  CG1        0.5150  -13.2460  -23.8000 C.3    42  ILE42       0.0022
     35  CG2        0.7610  -13.0590  -26.2670 C.3    42  ILE42       0.0022
     36  CD1       -0.3320  -13.1370  -22.5440 C.3    42  ILE42       0.0001
     37  N          0.5910   -7.2590  -21.0230 N.3    47  VAL47      -0.1245
     38  CA         0.7580   -7.9700  -19.7720 C.3    47  VAL47       0.1561
     39  C          1.3120   -7.0770  -18.6690 C.2    47  VAL47       0.2260
     40  O          0.9950   -7.2160  -17.5340 O.2    47  VAL47      -0.2867
     41  CB         1.5290   -9.2790  -19.9440 C.3    47  VAL47       0.0252
     42  CG1        1.9340   -9.8400  -18.6160 C.3    47  VAL47       0.0019
     43  CG2        0.6590  -10.2640  -20.6800 C.3    47  VAL47       0.0019
     44  N         -1.4690   -5.2760  -16.8090 N.3    50  VAL50      -0.1231
     45  CA        -2.2400   -6.1590  -15.9340 C.3    50  VAL50       0.1692
     46  C         -1.5110   -6.5050  -14.6360 C.2    50  VAL50       0.2592
     47  O         -2.0790   -6.3880  -13.5430 O.2    50  VAL50      -0.2718
     48  CB        -2.6100   -7.4550  -16.6580 C.3    50  VAL50       0.0266
     49  CG1       -3.2360   -8.4420  -15.6870 C.3    50  VAL50       0.0020
     50  CG2       -3.5480   -7.1470  -17.8320 C.3    50  VAL50       0.0020
     51  N         -0.2580   -6.9410  -14.7470 N.am   51  THR51      -0.1953
     52  CA         0.4810   -7.3200  -13.5440 C.3    51  THR51       0.1897
     53  C          0.6490   -6.0950  -12.6700 C.2    51  THR51       0.2313
     54  O          0.4810   -6.1590  -11.4570 O.2    51  THR51      -0.2863
     55  CB         1.8630   -7.9860  -13.8420 C.3    51  THR51       0.1794
     56  OG1        2.7610   -7.0310  -14.4270 O.3    51  THR51      -0.2208
     57  CG2        1.6940   -9.1800  -14.7780 C.3    51  THR51       0.0378
     58  N         -2.6330   -5.0470  -10.8150 N.3    54  ARG54      -0.1245
     59  CA        -2.7640   -5.9220   -9.6510 C.3    54  ARG54       0.1563
     60  C         -1.8360   -5.5410   -8.4940 C.2    54  ARG54       0.2260
     61  O         -2.2950   -5.3410   -7.3760 O.2    54  ARG54      -0.2867
     62  CB        -2.5170   -7.3840  -10.0350 C.3    54  ARG54       0.0307
     63  CG        -2.6240   -8.3320   -8.8460 C.3    54  ARG54       0.0489
     64  CD        -2.0020   -9.6910   -9.1030 C.3    54  ARG54       0.2205
     65  NE        -2.7640  -10.7540   -8.4430 N.pl3  54  ARG54      -0.0865
     66  CZ        -2.9360  -10.8680   -7.1250 C.cat  54  ARG54       0.5346
     67  NH1       -2.3960   -9.9750   -6.2920 N.pl3  54  ARG54       0.1354
     68  NH2       -3.6580  -11.8790   -6.6370 N.pl3  54  ARG54       0.1354
     69  N         -9.6720  -11.6240   -7.3970 N.3    71  CYS71      -0.1221
     70  CA        -9.1110  -11.9410   -8.6760 C.3    71  CYS71       0.1808
     71  C         -9.3150  -13.4070   -8.8360 C.2    71  CYS71       0.2601
     72  O         -9.0510  -14.1650   -7.8800 O.2    71  CYS71      -0.2717
     73  CB        -7.6100  -11.7400   -8.6170 C.3    71  CYS71       0.0970
     74  SG        -6.9720  -11.7580  -10.2570 S.3    71  CYS71      -0.0800
     75  N         -9.7880  -13.8340  -10.0010 N.am   72  PHE72      -0.1962
     76  CA        -9.8180  -15.2470  -10.3220 C.3    72  PHE72       0.1771
     77  C         -9.6500  -15.4650  -11.8200 C.2    72  PHE72       0.2619
     78  O         -9.5820  -14.5080  -12.5900 O.2    72  PHE72      -0.2715
     79  CB       -11.0750  -15.9310   -9.7790 C.3    72  PHE72       0.0574
     80  CG       -12.3590  -15.2420  -10.1350 C.ar   72  PHE72      -0.0200
     81  CD1      -13.0050  -15.5260  -11.3230 C.ar   72  PHE72      -0.0042
     82  CD2      -12.9430  -14.3410   -9.2540 C.ar   72  PHE72      -0.0042
     83  CE1      -14.2010  -14.9060  -11.6450 C.ar   72  PHE72      -0.0003
     84  CE2      -14.1370  -13.7180   -9.5620 C.ar   72  PHE72      -0.0003
     85  CZ       -14.7700  -13.9980  -10.7610 C.ar   72  PHE72      -0.0000
     86  N         -9.5510  -16.7170  -12.2100 N.am   73  GLN73      -0.1977
     87  CA        -9.3130  -17.0760  -13.5720 C.3    73  GLN73       0.1601
     88  C         -9.9270  -18.3800  -13.9720 C.2    73  GLN73       0.2287
     89  O        -10.3600  -19.1550  -13.1680 O.2    73  GLN73      -0.2864
     90  CB        -7.8340  -17.0910  -13.8860 C.3    73  GLN73       0.0394
     91  CG        -7.0580  -18.1920  -13.2600 C.3    73  GLN73       0.0908
     92  CD        -5.6200  -17.8200  -13.0800 C.2    73  GLN73       0.2608
     93  OE1       -4.8320  -17.9490  -13.9740 O.2    73  GLN73      -0.2717
     94  NE2       -5.2800  -17.3430  -11.9160 N.am   73  GLN73      -0.0878
     95  N         -9.0120  -13.7720  -17.3430 N.3    78  LEU78      -0.1245
     96  CA        -8.6200  -13.2460  -16.0510 C.3    78  LEU78       0.1561
     97  C         -9.7390  -12.3370  -15.6080 C.2    78  LEU78       0.2260
     98  O        -10.2480  -11.6070  -16.4040 O.2    78  LEU78      -0.2867
     99  CB        -7.3710  -12.4120  -16.1740 C.3    78  LEU78       0.0270
    100  CG        -6.0270  -13.0280  -15.8820 C.3    78  LEU78       0.0019
    101  CD1       -5.0050  -11.9280  -15.7650 C.3    78  LEU78       0.0001
    102  CD2       -6.0590  -13.7910  -14.6300 C.3    78  LEU78       0.0001
    103  N        -10.7660   -9.4060  -12.7760 N.3    80  PHE80      -0.1241
    104  CA       -10.5070   -8.4820  -11.6720 C.3    80  PHE80       0.1605
    105  C        -11.8210   -7.9260  -11.1320 C.2    80  PHE80       0.2264
    106  O        -12.5800   -7.3100  -11.8700 O.2    80  PHE80      -0.2867
    107  CB        -9.6190   -7.3160  -12.1290 C.3    80  PHE80       0.0534
    108  CG        -8.1810   -7.6890  -12.3430 C.ar   80  PHE80      -0.0203
    109  CD1       -7.7640   -9.0010  -12.2120 C.ar   80  PHE80      -0.0042
    110  CD2       -7.2490   -6.7280  -12.6800 C.ar   80  PHE80      -0.0042
    111  CE1       -6.4430   -9.3530  -12.4120 C.ar   80  PHE80      -0.0003
    112  CE2       -5.9250   -7.0710  -12.8790 C.ar   80  PHE80      -0.0003
    113  CZ        -5.5260   -8.3910  -12.7420 C.ar   80  PHE80      -0.0000
@<TRIPOS>BOND
     1    13    12    2
     2    32    31    2
     3    31    30    1
     4    35    33    1
     5    14    15    1
     6    14    11    1
     7    12    11    1
     8    15    16    1
     9    11    10    1
    10    33    30    1
    11    33    34    1
    12    30    29    1
    13    17    16    1
    14    17    18    2
    15    29    23   am
    16    21    22    1
    17    24    23    2
    18    23    22    1
    19    10     3   am
    20    34    36    1
    21    20    18    1
    22    22    25    1
    23    18    19    1
    24     4     3    2
    25     3     2    1
    26    25    26    1
    27    25    27    1
    28     1     2    1
    29     2     5    1
    30    26    28    1
    31     5     6    1
    32    37    38    1
    33    43    41    1
    34    41    38    1
    35    41    42    1
    36    38    39    1
    37     6     7    1
    38     7     8    1
    39    39    40    2
    40    50    48    1
    41     8     9    1
    42    95    96    1
    43    44    45    1
    44    48    45    1
    45    48    49    1
    46    98    97    2
    47    99    96    1
    48    99   100    1
    49    96    97    1
    50    45    46    1
    51   100   101    1
    52   100   102    1
    53    57    55    1
    54    51    46   am
    55    51    52    1
    56    46    47    2
    57    56    55    1
    58    93    92    2
    59    88    87    1
    60    88    89    2
    61    90    87    1
    62    90    91    1
    63    55    52    1
    64    87    86    1
    65    52    53    1
    66    91    92    1
    67    92    94   am
    68   112   113   ar
    69   112   110   ar
    70   103   104    1
    71   113   111   ar
    72   110   108   ar
    73    53    54    2
    74    78    77    2
    75   111   109   ar
    76   108   109   ar
    77   108   107    1
    78    86    77   am
    79   107   104    1
    80   106   105    2
    81    77    76    1
    82   104   105    1
    83    83    81   ar
    84    83    85   ar
    85    81    80   ar
    86    58    59    1
    87    85    84   ar
    88    76    75    1
    89    76    79    1
    90    74    73    1
    91    80    79    1
    92    80    82   ar
    93    62    59    1
    94    62    63    1
    95    75    71   am
    96    59    60    1
    97    84    82   ar
    98    64    63    1
    99    64    65    1
   100    71    70    1
   101    71    72    2
   102    70    73    1
   103    70    69    1
   104    60    61    2
   105    65    66    2
   106    66    68    1
   107    66    67    1
