@<TRIPOS>MOLECULE
tmp/3otyB00.pdb
 135 127 0 0 0
SMALL
GASTEIGER

@<TRIPOS>ATOM
      1  N         29.1210    8.7250   -0.7650 N.3     8  ARG8       -0.1245
      2  CA        27.9490    8.1860   -1.4860 C.3     8  ARG8        0.1563
      3  C         28.3990    7.2650   -2.5970 C.2     8  ARG8        0.2260
      4  O         29.3390    7.6010   -3.3390 O.2     8  ARG8       -0.2867
      5  CB        27.1520    9.3260   -2.0950 C.3     8  ARG8        0.0307
      6  CG        26.5580   10.2040   -1.0370 C.3     8  ARG8        0.0489
      7  CD        25.8790   11.3870   -1.6740 C.3     8  ARG8        0.2205
      8  NE        25.1810   12.1360   -0.6300 N.pl3   8  ARG8       -0.0865
      9  CZ        24.6310   13.3380   -0.7940 C.cat   8  ARG8        0.5346
     10  NH1       24.6850   13.9460   -1.9750 N.pl3   8  ARG8        0.1354
     11  NH2       24.0270   13.9260    0.2290 N.pl3   8  ARG8        0.1354
     12  N         23.3700    6.4860   -8.0860 N.3    23  LEU23      -0.1245
     13  CA        23.6590    6.1210   -6.7030 C.3    23  LEU23       0.1561
     14  C         23.1560    4.6900   -6.4480 C.2    23  LEU23       0.2260
     15  O         21.9740    4.3970   -6.6960 O.2    23  LEU23      -0.2867
     16  CB        22.8750    7.0750   -5.8220 C.3    23  LEU23       0.0270
     17  CG        22.9140    6.8510   -4.3090 C.3    23  LEU23       0.0019
     18  CD1       24.3330    7.0620   -3.7940 C.3    23  LEU23       0.0001
     19  CD2       21.9170    7.7500   -3.6100 C.3    23  LEU23       0.0001
     20  N         21.6150    2.3150   -4.3110 N.3    25  ASN25      -0.1240
     21  CA        20.7260    2.6410   -3.2010 C.3    25  ASN25       0.1653
     22  C         19.9430    1.4380   -2.7020 C.2    25  ASN25       0.2266
     23  O         18.8770    1.0990   -3.2420 O.2    25  ASN25      -0.2867
     24  CB        19.7680    3.7540   -3.6380 C.3    25  ASN25       0.1155
     25  CG        18.9490    4.3380   -2.4670 C.2    25  ASN25       0.2627
     26  OD1       18.8500    3.7410   -1.4060 O.2    25  ASN25      -0.2716
     27  ND2       18.3700    5.5190   -2.6790 N.am   25  ASN25      -0.0877
     28  N         18.2420    1.1720   -0.1630 N.3    27  GLY27      -0.1210
     29  CA        16.9540    1.5620    0.4030 C.3    27  GLY27       0.1956
     30  C         15.8640    1.7790   -0.6250 C.2    27  GLY27       0.2612
     31  O         14.7220    2.0490   -0.2600 O.2    27  GLY27      -0.2717
     32  N         16.2060    1.6760   -1.9020 N.am   28  ALA28      -0.1965
     33  CA        15.2400    1.8820   -2.9750 C.3    28  ALA28       0.1728
     34  C         14.8740    0.5600   -3.6180 C.2    28  ALA28       0.2616
     35  O         15.7670   -0.2100   -4.0270 O.2    28  ALA28      -0.2715
     36  CB        15.7970    2.8150   -4.0540 C.3    28  ALA28       0.0334
     37  N         13.5690    0.3090   -3.7650 N.am   29  ASP29      -0.1957
     38  CA        13.1140   -0.9410   -4.4030 C.3    29  ASP29       0.1840
     39  C         13.4160   -0.9150   -5.8920 C.2    29  ASP29       0.2622
     40  O         13.7350   -1.9420   -6.4950 O.2    29  ASP29      -0.2715
     41  CB        11.5850   -1.1150   -4.2370 C.3    29  ASP29       0.1450
     42  CG        11.1590   -1.2920   -2.7760 C.2    29  ASP29       0.3671
     43  OD1        9.9360   -1.1110   -2.5230 O.co2  29  ASP29      -0.2456
     44  OD2       12.0010   -1.6210   -1.9020 O.co2  29  ASP29      -0.2456
     45  N         13.2620    0.2700   -6.4880 N.am   30  ASP30      -0.1971
     46  CA        13.2720    0.4220   -7.9370 C.3    30  ASP30       0.1709
     47  C         14.3860    1.3650   -8.4000 C.2    30  ASP30       0.2293
     48  O         14.9410    2.1520   -7.6160 O.2    30  ASP30      -0.2864
     49  CB        11.9190    0.9830   -8.3960 C.3    30  ASP30       0.1436
     50  CG        10.7470    0.1390   -7.9650 C.2    30  ASP30       0.3671
     51  OD1        9.7420    0.7490   -7.5290 O.co2  30  ASP30      -0.2456
     52  OD2       10.8210   -1.1120   -8.0400 O.co2  30  ASP30      -0.2456
     53  N         15.3670    4.5620  -10.6800 N.3    32  VAL32      -0.1245
     54  CA        14.7160    5.7440  -11.2630 C.3    32  VAL32       0.1561
     55  C         15.7980    6.6140  -11.8520 C.2    32  VAL32       0.2260
     56  O         16.7740    6.9520  -11.1860 O.2    32  VAL32      -0.2867
     57  CB        13.8800    6.5620  -10.2400 C.3    32  VAL32       0.0252
     58  CG1       13.1570    7.6940  -10.9830 C.3    32  VAL32       0.0019
     59  CG2       12.8550    5.6540   -9.5500 C.3    32  VAL32       0.0019
     60  N          3.6120    4.6050  -14.1620 N.3    45  LYS45      -0.1231
     61  CA         3.6410    3.9960  -12.8470 C.3    45  LYS45       0.1693
     62  C          3.6160    5.1550  -11.8500 C.2    45  LYS45       0.2592
     63  O          4.2930    6.1710  -12.0690 O.2    45  LYS45      -0.2718
     64  CB         4.9200    3.1810  -12.6540 C.3    45  LYS45       0.0285
     65  CG         5.0140    2.4870  -11.2780 C.3    45  LYS45       0.0035
     66  CD         6.3110    1.6860  -11.1410 C.3    45  LYS45       0.0206
     67  CE         6.4430    1.0480   -9.7570 C.3    45  LYS45       0.1093
     68  NZ         5.3210    0.1250   -9.4110 N.3    45  LYS45      -0.1314
     69  N          2.8570    4.9910  -10.7610 N.am   46  LEU46      -0.1966
     70  CA         2.8800    5.9460   -9.6610 C.3    46  LEU46       0.1728
     71  C          3.8510    5.4830   -8.5940 C.2    46  LEU46       0.2616
     72  O          3.7690    4.3590   -8.0960 O.2    46  LEU46      -0.2715
     73  CB         1.4780    6.1380   -9.0600 C.3    46  LEU46       0.0311
     74  CG         0.4170    6.7860   -9.9500 C.3    46  LEU46       0.0022
     75  CD1       -0.8760    6.9130   -9.1460 C.3    46  LEU46       0.0001
     76  CD2        0.8730    8.1740  -10.4390 C.3    46  LEU46       0.0001
     77  N          4.7760    6.3530   -8.2390 N.am   47  ILE47      -0.1963
     78  CA         5.7230    6.0430   -7.1700 C.3    47  ILE47       0.1727
     79  C          5.6870    7.0880   -6.0640 C.2    47  ILE47       0.2616
     80  O          4.8720    8.0050   -6.0960 O.2    47  ILE47      -0.2715
     81  CB         7.1710    5.7760   -7.7020 C.3    47  ILE47       0.0290
     82  CG1        7.7460    6.9820   -8.4450 C.3    47  ILE47       0.0022
     83  CG2        7.2030    4.5060   -8.5830 C.3    47  ILE47       0.0023
     84  CD1        9.2860    6.9030   -8.6500 C.3    47  ILE47       0.0001
     85  N          6.5700    6.9340   -5.0750 N.am   48  GLY48      -0.1955
     86  CA         6.5650    7.8010   -3.9010 C.3    48  GLY48       0.1869
     87  C          5.3010    7.5040   -3.1350 C.2    48  GLY48       0.2309
     88  O          4.9940    6.3280   -2.8590 O.2    48  GLY48      -0.2863
     89  N          4.5360    9.8710   -0.3630 N.3    50  ILE50      -0.1245
     90  CA         4.5580   10.9690    0.6060 C.3    50  ILE50       0.1561
     91  C          4.2420   12.2670   -0.1520 C.2    50  ILE50       0.2260
     92  O          4.9090   12.5640   -1.1440 O.2    50  ILE50      -0.2867
     93  CB         5.8900   10.9930    1.4340 C.3    50  ILE50       0.0252
     94  CG1        7.0480   10.4060    0.6070 C.3    50  ILE50       0.0019
     95  CG2        5.7160   10.1620    2.7100 C.3    50  ILE50       0.0019
     96  CD1        8.4460   10.4760    1.2570 C.3    50  ILE50       0.0001
     97  N          1.6980   11.4420   -5.2140 N.3    53  PHE53      -0.1241
     98  CA         2.4820   10.4740   -5.9400 C.3    53  PHE53       0.1605
     99  C          3.1750   11.1710   -7.0880 C.2    53  PHE53       0.2264
    100  O          2.7200   12.2190   -7.5290 O.2    53  PHE53      -0.2867
    101  CB         1.5710    9.3900   -6.5090 C.3    53  PHE53       0.0534
    102  CG         0.9370    8.5170   -5.4530 C.ar   53  PHE53      -0.0203
    103  CD1        1.5320    7.3240   -5.0740 C.ar   53  PHE53      -0.0042
    104  CD2       -0.2430    8.9120   -4.8350 C.ar   53  PHE53      -0.0042
    105  CE1        0.9480    6.5180   -4.0890 C.ar   53  PHE53      -0.0003
    106  CE2       -0.8180    8.1200   -3.8390 C.ar   53  PHE53      -0.0003
    107  CZ        -0.2110    6.9210   -3.4790 C.ar   53  PHE53      -0.0000
    108  N         14.1100   12.9940  -10.9750 N.3    80  THR80      -0.1204
    109  CA        14.5210   12.4300   -9.7100 C.3    80  THR80       0.1979
    110  C         15.6550   13.2920   -9.2160 C.2    80  THR80       0.2460
    111  O         16.5530   13.6450   -9.9960 O.2    80  THR80      -0.2732
    112  CB        14.9220   10.9140   -9.8240 C.3    80  THR80       0.1783
    113  OG1       15.3050   10.4090   -8.5330 O.3    80  THR80      -0.2211
    114  CG2       16.0560   10.6980  -10.8150 C.3    80  THR80       0.0376
    115  N         15.6230   13.6460   -7.9200 N.am   81  PRO81      -0.2717
    116  CA        16.6730   14.5030   -7.4040 C.3    81  PRO81       0.1535
    117  C         18.0630   13.9540   -7.6850 C.2    81  PRO81       0.2599
    118  O         19.0070   14.7190   -7.8820 O.2    81  PRO81      -0.2715
    119  CB        16.3900   14.5270   -5.9000 C.3    81  PRO81       0.0310
    120  CG        14.9280   14.2810   -5.7910 C.3    81  PRO81       0.0237
    121  CD        14.6540   13.2670   -6.8680 C.3    81  PRO81       0.0939
    122  N         18.2010   12.6300   -7.7020 N.am   82  THR82      -0.1951
    123  CA        19.4810   12.0220   -8.0380 C.3    82  THR82       0.1897
    124  C         19.1780   10.6660   -8.6960 C.2    82  THR82       0.2313
    125  O         18.2060   10.0260   -8.2960 O.2    82  THR82      -0.2863
    126  CB        20.3700   11.8510   -6.7670 C.3    82  THR82       0.1794
    127  OG1       21.7550   11.7990   -7.1450 O.3    82  THR82      -0.2208
    128  CG2       19.9880   10.6020   -5.9750 C.3    82  THR82       0.0378
    129  N         19.0090    6.9030   -9.3640 N.3    84  VAL84      -0.1245
    130  CA        19.0960    5.8420   -8.3560 C.3    84  VAL84       0.1561
    131  C         19.0810    4.4530   -9.0090 C.2    84  VAL84       0.2260
    132  O         18.1740    4.1580   -9.8060 O.2    84  VAL84      -0.2867
    133  CB        17.9140    5.9650   -7.3820 C.3    84  VAL84       0.0252
    134  CG1       17.7870    4.7310   -6.5070 C.3    84  VAL84       0.0019
    135  CG2       18.1040    7.2000   -6.5240 C.3    84  VAL84       0.0019
@<TRIPOS>BOND
     1    60    61    1
     2    61    64    1
     3    61    62    1
     4    64    65    1
     5    63    62    2
     6    55    54    1
     7    55    56    2
     8    62    69   am
     9    65    66    1
    10    54    53    1
    11    54    57    1
    12    66    67    1
    13    58    57    1
    14   108   109    1
    15   114   112    1
    16    69    70    1
    17    76    74    1
    18    57    59    1
    19   111   110    2
    20    74    75    1
    21    74    73    1
    22   112   109    1
    23   112   113    1
    24   132   131    2
    25    67    68    1
    26   109   110    1
    27    70    73    1
    28    70    71    1
    29   129   130    1
    30   110   115   am
    31   131   130    1
    32   124   125    2
    33   124   123    1
    34    84    82    1
    35    71    77   am
    36    71    72    2
    37    83    81    1
    38    82    81    1
    39    47    46    1
    40    47    48    2
    41    49    50    1
    42    49    46    1
    43   130   133    1
    44    77    78    1
    45    12    13    1
    46    52    50   ar
    47   123   122    1
    48   123   126    1
    49    50    51   ar
    50    46    45    1
    51   115   116    1
    52   115   121    1
    53   118   117    2
    54    81    78    1
    55   122   117   am
    56   117   116    1
    57   100    99    2
    58   116   119    1
    59   133   135    1
    60   133   134    1
    61    78    79    1
    62   127   126    1
    63    99    98    1
    64   121   120    1
    65   126   128    1
    66    13    14    1
    67    13    16    1
    68    15    14    2
    69   101    98    1
    70   101   102    1
    71    40    39    2
    72    45    39   am
    73    80    79    2
    74    79    85   am
    75    98    97    1
    76   119   120    1
    77    39    38    1
    78    16    17    1
    79   102   103   ar
    80   102   104   ar
    81    85    86    1
    82   103   105   ar
    83   104   106   ar
    84    38    41    1
    85    38    37    1
    86    20    21    1
    87    17    18    1
    88    17    19    1
    89    41    42    1
    90   105   107   ar
    91    36    33    1
    92    35    34    2
    93    86    87    1
    94   106   107   ar
    95    37    34   am
    96    24    21    1
    97    24    25    1
    98    34    33    1
    99     4     3    2
   100    23    22    2
   101    21    22    1
   102    87    88    2
   103    33    32    1
   104    42    43   ar
   105    42    44   ar
   106    27    25   am
   107     3     2    1
   108    25    26    2
   109     5     2    1
   110     5     6    1
   111    10     9    1
   112    32    30   am
   113     7     6    1
   114     7     8    1
   115     2     1    1
   116    92    91    2
   117     9     8    2
   118     9    11    1
   119    30    31    2
   120    30    29    1
   121    89    90    1
   122    28    29    1
   123    91    90    1
   124    90    93    1
   125    94    96    1
   126    94    93    1
   127    93    95    1
