@<TRIPOS>MOLECULE
tmp/3ou0A00.pdb
 146 137 0 0 0
SMALL
GASTEIGER

@<TRIPOS>ATOM
      1  N         56.2150   23.7230   28.2610 N.3   130  ALA130     -0.1245
      2  CA        57.4580   23.0470   28.6270 C.3   130  ALA130      0.1562
      3  C         58.5590   23.1100   27.5680 C.2   130  ALA130      0.2260
      4  O         59.6950   22.7110   27.8290 O.2   130  ALA130     -0.2867
      5  CB        57.1770   21.6000   29.0150 C.3   130  ALA130      0.0290
      6  N         61.4200   28.6890   27.1490 N.3   133  TYR133     -0.1241
      7  CA        62.2740   29.0970   28.2570 C.3   133  TYR133      0.1605
      8  C         61.4920   30.0510   29.1450 C.2   133  TYR133      0.2264
      9  O         61.2930   31.2130   28.7900 O.2   133  TYR133     -0.2867
     10  CB        63.5240   29.8120   27.7480 C.3   133  TYR133      0.0534
     11  CG        64.3900   28.9960   26.8180 C.ar  133  TYR133     -0.0201
     12  CD1       64.0830   28.8900   25.4680 C.ar  133  TYR133     -0.0009
     13  CD2       65.5280   28.3520   27.2850 C.ar  133  TYR133     -0.0009
     14  CE1       64.8770   28.1530   24.6110 C.ar  133  TYR133      0.0417
     15  CE2       66.3300   27.6140   26.4350 C.ar  133  TYR133      0.0417
     16  CZ        65.9990   27.5180   25.1000 C.ar  133  TYR133      0.1957
     17  OH        66.7940   26.7830   24.2510 O.3   133  TYR133     -0.2866
     18  N         73.3210   29.2920   23.2890 N.3   199  GLY199     -0.1210
     19  CA        74.4210   28.4980   23.8070 C.3   199  GLY199      0.1956
     20  C         73.9160   27.2960   24.5840 C.2   199  GLY199      0.2612
     21  O         72.7700   27.2810   25.0340 O.2   199  GLY199     -0.2717
     22  N         74.7640   26.2840   24.7410 N.am  200  GLU200     -0.1965
     23  CA        74.3840   25.0890   25.4900 C.3   200  GLU200      0.1733
     24  C         75.5550   24.4890   26.2640 C.2   200  GLU200      0.2616
     25  O         76.6910   24.4810   25.7870 O.2   200  GLU200     -0.2715
     26  CB        73.7820   24.0300   24.5620 C.3   200  GLU200      0.0429
     27  CG        74.8100   23.2500   23.7560 C.3   200  GLU200      0.1163
     28  CD        74.2000   22.0800   23.0100 C.2   200  GLU200      0.3649
     29  OE1       74.9600   21.3030   22.3940 O.co2 200  GLU200     -0.2457
     30  OE2       72.9590   21.9360   23.0420 O.co2 200  GLU200     -0.2457
     31  N         75.2640   23.9900   27.4620 N.am  201  LEU201     -0.1963
     32  CA        76.2530   23.2890   28.2720 C.3   201  LEU201      0.1728
     33  C         76.4110   21.8660   27.7600 C.2   201  LEU201      0.2617
     34  O         77.4780   21.2620   27.8770 O.2   201  LEU201     -0.2715
     35  CB        75.8150   23.2400   29.7360 C.3   201  LEU201      0.0311
     36  CG        75.8040   24.5170   30.5740 C.3   201  LEU201      0.0022
     37  CD1       74.9460   25.5930   29.9350 C.3   201  LEU201      0.0001
     38  CD2       75.3050   24.2010   31.9730 C.3   201  LEU201      0.0001
     39  N         75.3310   21.3330   27.1980 N.am  202  GLY202     -0.1940
     40  CA        75.3220   19.9700   26.7090 C.3   202  GLY202      0.2014
     41  C         75.1030   18.9800   27.8340 C.2   202  GLY202      0.2638
     42  O         75.9620   18.1440   28.1130 O.2   202  GLY202     -0.2714
     43  N         73.9540   19.0860   28.4940 N.am  203  ILE203     -0.1977
     44  CA        73.5930   18.1510   29.5520 C.3   203  ILE203      0.1596
     45  C         72.0920   17.8810   29.5440 C.2   203  ILE203      0.2287
     46  O         71.2880   18.8000   29.3920 O.2   203  ILE203     -0.2864
     47  CB        74.0260   18.6610   30.9530 C.3   203  ILE203      0.0276
     48  CG1       73.1170   19.7910   31.4380 C.3   203  ILE203      0.0022
     49  CG2       75.4730   19.1150   30.9430 C.3   203  ILE203      0.0022
     50  CD1       72.0120   19.3310   32.3650 C.3   203  ILE203      0.0001
     51  N         68.8020   16.5340   31.7340 N.3   204  GLY204     -0.1210
     52  CA        68.4540   16.5890   33.1410 C.3   204  GLY204      0.1956
     53  C         66.9710   16.7140   33.4160 C.2   204  GLY204      0.2613
     54  O         66.1550   16.7480   32.4960 O.2   204  GLY204     -0.2717
     55  N         66.6230   16.7760   34.6970 N.am  205  THR205     -0.1938
     56  CA        65.2350   16.9480   35.1040 C.3   205  THR205      0.2028
     57  C         65.1490   17.5980   36.4820 C.2   205  THR205      0.2642
     58  O         66.1550   17.7440   37.1770 O.2   205  THR205     -0.2714
     59  CB        64.4740   15.6060   35.1190 C.3   205  THR205      0.1808
     60  OG1       63.0670   15.8510   35.2400 O.3   205  THR205     -0.2208
     61  CG2       64.9370   14.7440   36.2800 C.3   205  THR205      0.0379
     62  N         63.9390   17.9880   36.8680 N.am  206  GLU206     -0.1976
     63  CA        63.7110   18.6360   38.1530 C.3   206  GLU206      0.1602
     64  C         64.0680   17.7100   39.3080 C.2   206  GLU206      0.2287
     65  O         63.6240   16.5620   39.3560 O.2   206  GLU206     -0.2864
     66  CB        62.2460   19.0590   38.2790 C.3   206  GLU206      0.0415
     67  CG        61.7030   19.8230   37.0820 C.3   206  GLU206      0.1163
     68  CD        62.2740   21.2210   36.9680 C.2   206  GLU206      0.3649
     69  OE1       63.0800   21.6100   37.8400 O.co2 206  GLU206     -0.2457
     70  OE2       61.9150   21.9320   36.0050 O.co2 206  GLU206     -0.2457
     71  N         63.2470   16.6100   42.6390 N.3   208  ASN208     -0.1240
     72  CA        62.2110   16.6250   43.6650 C.3   208  ASN208      0.1653
     73  C         62.6340   15.8170   44.8870 C.2   208  ASN208      0.2266
     74  O         63.6650   15.1440   44.8660 O.2   208  ASN208     -0.2867
     75  CB        60.8710   16.1320   43.1070 C.3   208  ASN208      0.1155
     76  CG        60.9180   14.6850   42.6570 C.2   208  ASN208      0.2627
     77  OD1       61.5940   13.8550   43.2620 O.2   208  ASN208     -0.2716
     78  ND2       60.1970   14.3750   41.5860 N.am  208  ASN208     -0.0877
     79  N         63.1530   12.0170   44.3580 N.3   211  LEU211     -0.1245
     80  CA        64.3610   11.7240   43.6000 C.3   211  LEU211      0.1561
     81  C         65.6010   11.9360   44.4640 C.2   211  LEU211      0.2260
     82  O         66.6140   11.2570   44.2930 O.2   211  LEU211     -0.2867
     83  CB        64.4210   12.5980   42.3440 C.3   211  LEU211      0.0270
     84  CG        65.5230   12.3340   41.3130 C.3   211  LEU211      0.0019
     85  CD1       65.0850   12.8230   39.9490 C.3   211  LEU211      0.0001
     86  CD2       66.8340   12.9880   41.7160 C.3   211  LEU211      0.0001
     87  N         71.0440   14.1940   34.2300 N.3   225  SER225     -0.1202
     88  CA        70.7540   12.8610   33.7240 C.3   225  SER225      0.2020
     89  C         71.9870   12.2890   33.0310 C.2   225  SER225      0.2618
     90  O         72.3700   11.1420   33.2640 O.2   225  SER225     -0.2717
     91  CB        69.5720   12.9150   32.7520 C.3   225  SER225      0.2103
     92  OG        69.3200   11.6500   32.1680 O.3   225  SER225     -0.2182
     93  N         72.6090   13.1060   32.1850 N.am  226  GLN226     -0.1979
     94  CA        73.8060   12.7100   31.4510 C.3   226  GLN226      0.1601
     95  C         74.4710   13.9350   30.8360 C.2   226  GLN226      0.2287
     96  O         73.8280   14.9670   30.6510 O.2   226  GLN226     -0.2864
     97  CB        73.4480   11.7210   30.3450 C.3   226  GLN226      0.0394
     98  CG        72.3610   12.2290   29.4210 C.3   226  GLN226      0.0908
     99  CD        72.1950   11.3810   28.1790 C.2   226  GLN226      0.2608
    100  OE1       73.1760   10.9620   27.5620 O.2   226  GLN226     -0.2717
    101  NE2       70.9480   11.1240   27.8010 N.am  226  GLN226     -0.0878
    102  N         76.6720   15.2910   27.4640 N.3   228  LEU228     -0.1245
    103  CA        77.0410   14.9710   26.0920 C.3   228  LEU228      0.1561
    104  C         78.5530   15.0410   25.9190 C.2   228  LEU228      0.2260
    105  O         79.2040   15.9190   26.4820 O.2   228  LEU228     -0.2867
    106  CB        76.3480   15.9300   25.1230 C.3   228  LEU228      0.0270
    107  CG        74.8600   16.1540   25.4040 C.3   228  LEU228      0.0019
    108  CD1       74.2390   17.0850   24.3730 C.3   228  LEU228      0.0001
    109  CD2       74.1160   14.8270   25.4510 C.3   228  LEU228      0.0001
    110  N         65.4710   23.1460   37.4730 N.3   255  PHE255     -0.1241
    111  CA        66.1100   22.8450   36.1990 C.3   255  PHE255      0.1605
    112  C         65.5340   23.7630   35.1290 C.2   255  PHE255      0.2264
    113  O         66.2610   24.2970   34.2920 O.2   255  PHE255     -0.2867
    114  CB        65.8840   21.3800   35.8140 C.3   255  PHE255      0.0534
    115  CG        66.5500   20.9800   34.5270 C.ar  255  PHE255     -0.0203
    116  CD1       67.7700   20.3250   34.5360 C.ar  255  PHE255     -0.0042
    117  CD2       65.9570   21.2610   33.3070 C.ar  255  PHE255     -0.0042
    118  CE1       68.3860   19.9570   33.3540 C.ar  255  PHE255     -0.0003
    119  CE2       66.5690   20.8960   32.1220 C.ar  255  PHE255     -0.0003
    120  CZ        67.7850   20.2420   32.1460 C.ar  255  PHE255     -0.0000
    121  N         67.1230   27.1800   35.3700 N.3   258  LEU258     -0.1231
    122  CA        68.4890   27.0870   34.8670 C.3   258  LEU258      0.1693
    123  C         68.5150   27.0920   33.3440 C.2   258  LEU258      0.2591
    124  O         69.2680   27.8470   32.7270 O.2   258  LEU258     -0.2718
    125  CB        69.1630   25.8170   35.3850 C.3   258  LEU258      0.0284
    126  CG        70.4950   25.4570   34.7210 C.3   258  LEU258      0.0019
    127  CD1       71.5800   26.4560   35.0970 C.3   258  LEU258      0.0001
    128  CD2       70.9120   24.0440   35.0930 C.3   258  LEU258      0.0001
    129  N         67.6910   26.2390   32.7460 N.am  259  ARG259     -0.1980
    130  CA        67.5740   26.1750   31.2970 C.3   259  ARG259      0.1597
    131  C         67.2740   27.5620   30.7350 C.2   259  ARG259      0.2287
    132  O         67.8150   27.9600   29.7030 O.2   259  ARG259     -0.2864
    133  CB        66.4710   25.1910   30.8980 C.3   259  ARG259      0.0334
    134  CG        66.2930   25.0300   29.3980 C.3   259  ARG259      0.0492
    135  CD        65.1710   24.0570   29.0670 C.3   259  ARG259      0.2205
    136  NE        64.9950   23.9070   27.6250 N.pl3 259  ARG259     -0.0865
    137  CZ        64.2170   24.6870   26.8810 C.cat 259  ARG259      0.5346
    138  NH1       63.5350   25.6760   27.4410 N.pl3 259  ARG259      0.1354
    139  NH2       64.1200   24.4780   25.5740 N.pl3 259  ARG259      0.1354
    140  N         70.6640   30.1320   31.0290 N.3   262  VAL262     -0.1245
    141  CA        71.6780   29.8980   30.0100 C.3   262  VAL262      0.1561
    142  C         71.0840   30.0230   28.6110 C.2   262  VAL262      0.2260
    143  O         71.7750   30.4050   27.6660 O.2   262  VAL262     -0.2867
    144  CB        72.3300   28.5110   30.1700 C.3   262  VAL262      0.0252
    145  CG1       72.9050   28.3610   31.5680 C.3   262  VAL262      0.0019
    146  CG2       71.3230   27.4090   29.8840 C.3   262  VAL262      0.0019
@<TRIPOS>BOND
     1    29    28   ar
     2    28    30   ar
     3    28    27    1
     4    18    19    1
     5    27    26    1
     6    19    20    1
     7    17    16    1
     8   108   107    1
     9    26    23    1
    10    20    22   am
    11    20    21    2
    12    14    16   ar
    13    14    12   ar
    14    22    23    1
    15    16    15   ar
    16   106   107    1
    17   106   103    1
    18   107   109    1
    19    12    11   ar
    20    23    24    1
    21   139   137    1
    22    25    24    2
    23   104   103    1
    24   104   105    2
    25   103   102    1
    26    24    31   am
    27    15    13   ar
    28    40    39    1
    29    40    41    1
    30    11    13   ar
    31    11    10    1
    32   137   138    1
    33   137   136    2
    34     6     7    1
    35    39    33   am
    36    31    32    1
    37   100    99    2
    38     3     4    2
    39     3     2    1
    40   136   135    1
    41   143   142    2
    42    10     7    1
    43    33    34    2
    44    33    32    1
    45   101    99   am
    46    41    42    2
    47    41    43   am
    48    99    98    1
    49     7     8    1
    50     1     2    1
    51    32    35    1
    52    43    44    1
    53   142   141    1
    54     2     5    1
    55     9     8    2
    56   135   134    1
    57    46    45    2
    58   134   133    1
    59    98    97    1
    60    45    44    1
    61    44    47    1
    62   132   131    2
    63    35    36    1
    64   146   144    1
    65    37    36    1
    66   141   144    1
    67   141   140    1
    68   144   145    1
    69    97    94    1
    70    36    38    1
    71    96    95    2
    72   131   130    1
    73    95    94    1
    74   133   130    1
    75    49    47    1
    76    47    48    1
    77   130   129    1
    78    48    50    1
    79    94    93    1
    80    51    52    1
    81   119   120   ar
    82   119   117   ar
    83   120   118   ar
    84    92    91    1
    85    93    89   am
    86    54    53    2
    87   124   123    2
    88   129   123   am
    89    91    88    1
    90    89    90    2
    91    89    88    1
    92    52    53    1
    93   117   115   ar
    94   123   122    1
    95   118   116   ar
    96    53    55   am
    97    88    87    1
    98   113   112    2
    99   115   116   ar
   100   115   114    1
   101    55    56    1
   102   126   128    1
   103   126   127    1
   104   126   125    1
   105   122   121    1
   106   122   125    1
   107    56    59    1
   108    56    57    1
   109    59    60    1
   110    59    61    1
   111   112   111    1
   112   114   111    1
   113    70    68   ar
   114   111   110    1
   115    57    62   am
   116    57    58    2
   117    62    63    1
   118    68    67    1
   119    68    69   ar
   120    67    66    1
   121    63    66    1
   122    63    64    1
   123    64    65    2
   124    85    84    1
   125    84    86    1
   126    84    83    1
   127    78    76   am
   128    83    80    1
   129    71    72    1
   130    76    75    1
   131    76    77    2
   132    75    72    1
   133    80    79    1
   134    80    81    1
   135    72    73    1
   136    82    81    2
   137    74    73    2
