@<TRIPOS>MOLECULE
tmp/3ou1A00.pdb
 94 85 0 0 0
SMALL
GASTEIGER

@<TRIPOS>ATOM
      1  N         -8.7130   28.8510   -0.6260 N.3     8  ARG8       -0.1245
      2  CA        -8.1700   27.6680   -1.3720 C.3     8  ARG8        0.1563
      3  C         -7.2880   28.1440   -2.5190 C.2     8  ARG8        0.2260
      4  O         -7.6690   29.0820   -3.2400 O.2     8  ARG8       -0.2867
      5  CB        -9.3040   26.7960   -1.9160 C.3     8  ARG8        0.0307
      6  CG       -10.1760   26.1750   -0.8470 C.3     8  ARG8        0.0489
      7  CD       -11.3090   25.3600   -1.4500 C.3     8  ARG8        0.2205
      8  NE       -12.0690   24.6440   -0.4000 N.pl3   8  ARG8       -0.0865
      9  CZ       -13.3260   24.2120   -0.5400 C.cat   8  ARG8        0.5346
     10  NH1      -13.9890   24.4370   -1.6790 N.pl3   8  ARG8        0.1354
     11  NH2      -13.9300   23.5620    0.4560 N.pl3   8  ARG8        0.1354
     12  N         -6.5990   23.1840   -8.1100 N.3    23  LEU23      -0.1245
     13  CA        -6.2220   23.4670   -6.7350 C.3    23  LEU23       0.1561
     14  C         -4.7880   23.0130   -6.5450 C.2    23  LEU23       0.2260
     15  O         -4.4670   21.8410   -6.8360 O.2    23  LEU23      -0.2867
     16  CB        -7.1430   22.6770   -5.8210 C.3    23  LEU23       0.0270
     17  CG        -6.8770   22.6520   -4.3220 C.3    23  LEU23       0.0019
     18  CD1       -7.2420   23.9830   -3.7340 C.3    23  LEU23       0.0001
     19  CD2       -7.6880   21.5940   -3.6750 C.3    23  LEU23       0.0001
     20  N         -2.3830   21.4470   -4.4840 N.3    25  ASN25      -0.1240
     21  CA        -2.6930   20.5220   -3.3930 C.3    25  ASN25       0.1653
     22  C         -1.4620   19.7400   -2.9170 C.2    25  ASN25       0.2266
     23  O         -1.1120   18.7230   -3.4870 O.2    25  ASN25      -0.2867
     24  CB        -3.8270   19.5600   -3.8050 C.3    25  ASN25       0.1155
     25  CG        -4.3710   18.7470   -2.6240 C.2    25  ASN25       0.2627
     26  OD1       -3.7410   18.6640   -1.5800 O.2    25  ASN25      -0.2716
     27  ND2       -5.5550   18.1450   -2.7970 N.am   25  ASN25      -0.0877
     28  N         -1.1800   17.9570   -0.4210 N.3    27  GLY27      -0.1210
     29  CA        -1.6050   16.6640    0.1050 C.3    27  GLY27       0.1956
     30  C         -1.7710   15.6120   -0.9810 C.2    27  GLY27       0.2612
     31  O         -2.0710   14.4510   -0.6790 O.2    27  GLY27      -0.2717
     32  N         -1.6150   15.9970   -2.2490 N.am   28  ALA28      -0.1965
     33  CA        -1.8700   15.0620   -3.3670 C.3    28  ALA28       0.1728
     34  C         -0.5570   14.6920   -4.0270 C.2    28  ALA28       0.2616
     35  O          0.2210   15.5750   -4.3550 O.2    28  ALA28      -0.2715
     36  CB        -2.8020   15.7080   -4.3990 C.3    28  ALA28       0.0334
     37  N         -0.2840   13.3960   -4.1970 N.am   29  ASP29      -0.1957
     38  CA         0.9820   13.0270   -4.8710 C.3    29  ASP29       0.1840
     39  C          0.9370   13.3820   -6.3520 C.2    29  ASP29       0.2622
     40  O          1.9330   13.8140   -6.9280 O.2    29  ASP29      -0.2715
     41  CB         1.2090   11.5170   -4.7850 C.3    29  ASP29       0.1450
     42  CG         1.2910   11.0050   -3.3640 C.2    29  ASP29       0.3671
     43  OD1        1.0330    9.7880   -3.1880 O.co2  29  ASP29      -0.2456
     44  OD2        1.6260   11.7700   -2.4280 O.co2  29  ASP29      -0.2456
     45  N         -0.2380   13.1890   -6.9500 N.am   30  ASP30      -0.1971
     46  CA        -0.4190   13.2870   -8.3830 C.3    30  ASP30       0.1709
     47  C         -1.3820   14.3820   -8.7970 C.2    30  ASP30       0.2293
     48  O         -2.1800   14.8950   -7.9940 O.2    30  ASP30      -0.2864
     49  CB        -0.9540   11.9540   -8.9040 C.3    30  ASP30       0.1436
     50  CG        -0.0470   10.7950   -8.5700 C.2    30  ASP30       0.3671
     51  OD1       -0.5820    9.7740   -8.0870 O.co2  30  ASP30      -0.2456
     52  OD2        1.1680   10.9260   -8.7270 O.co2  30  ASP30      -0.2456
     53  N         -4.5930   15.3390  -11.0600 N.3    32  VAL32      -0.1245
     54  CA        -5.7790   14.6950  -11.6730 C.3    32  VAL32       0.1561
     55  C         -6.7100   15.7800  -12.1980 C.2    32  VAL32       0.2260
     56  O         -7.1020   16.7050  -11.4690 O.2    32  VAL32      -0.2867
     57  CB        -6.5630   13.7830  -10.6900 C.3    32  VAL32       0.0252
     58  CG1       -7.6650   13.0020  -11.4580 C.3    32  VAL32       0.0019
     59  CG2       -5.6320   12.8150   -9.9800 C.3    32  VAL32       0.0019
     60  N         -4.2510    3.7050  -14.7040 N.3    45  LYS45      -0.1245
     61  CA        -3.6490    3.7950  -13.4010 C.3    45  LYS45       0.1561
     62  C         -4.8060    3.7040  -12.4370 C.2    45  LYS45       0.2260
     63  O         -5.8620    4.3010  -12.7000 O.2    45  LYS45      -0.2867
     64  CB        -2.9450    5.1410  -13.2310 C.3    45  LYS45       0.0271
     65  CG        -2.2780    5.2850  -11.8550 C.3    45  LYS45       0.0035
     66  CD        -1.4070    6.5260  -11.7440 C.3    45  LYS45       0.0206
     67  CE        -0.8640    6.7150  -10.3210 C.3    45  LYS45       0.1093
     68  NZ         0.1480    5.6890   -9.9810 N.3    45  LYS45      -0.1314
     69  N         -6.0760    4.8180   -8.8290 N.3    47  ILE47      -0.1231
     70  CA        -5.8040    5.7970   -7.7760 C.3    47  ILE47       0.1692
     71  C         -6.8360    5.7190   -6.6570 C.2    47  ILE47       0.2592
     72  O         -7.8110    4.9850   -6.7570 O.2    47  ILE47      -0.2718
     73  CB        -5.6720    7.2570   -8.3040 C.3    47  ILE47       0.0266
     74  CG1       -6.9500    7.7680   -8.9500 C.3    47  ILE47       0.0019
     75  CG2       -4.4650    7.3990   -9.2670 C.3    47  ILE47       0.0020
     76  CD1       -6.8650    9.2840   -9.2900 C.3    47  ILE47       0.0001
     77  N         -6.6140    6.4730   -5.5850 N.am   48  GLY48      -0.1957
     78  CA        -7.5240    6.4060   -4.4350 C.3    48  GLY48       0.1869
     79  C         -7.2790    5.1060   -3.7090 C.2    48  GLY48       0.2309
     80  O         -6.1480    4.7880   -3.3640 O.2    48  GLY48      -0.2863
     81  N        -12.6650   17.6820   -7.6690 N.3    82  THR82      -0.1218
     82  CA       -12.1420   18.9910   -8.1000 C.3    82  THR82       0.1862
     83  C        -10.7810   18.7670   -8.7750 C.2    82  THR82       0.2287
     84  O        -10.1220   17.7850   -8.4430 O.2    82  THR82      -0.2866
     85  CB       -11.9870   19.9760   -6.9060 C.3    82  THR82       0.1770
     86  OG1      -11.3620   21.1960   -7.3520 O.3    82  THR82      -0.2211
     87  CG2      -11.1650   19.3420   -5.7910 C.3    82  THR82       0.0375
     88  N         -7.0190   18.8510   -9.5140 N.3    84  VAL84      -0.1245
     89  CA        -5.9630   18.9570   -8.5230 C.3    84  VAL84       0.1561
     90  C         -4.5990   18.9820   -9.2060 C.2    84  VAL84       0.2260
     91  O         -4.3370   18.1420  -10.0540 O.2    84  VAL84      -0.2867
     92  CB        -6.0280   17.7710   -7.5400 C.3    84  VAL84       0.0252
     93  CG1       -4.7290   17.6840   -6.7200 C.3    84  VAL84       0.0019
     94  CG2       -7.2360   17.9210   -6.6050 C.3    84  VAL84       0.0019
@<TRIPOS>BOND
     1    60    61    1
     2    61    64    1
     3    61    62    1
     4    64    65    1
     5    63    62    2
     6    55    54    1
     7    55    56    2
     8    65    66    1
     9    66    67    1
    10    54    53    1
    11    54    57    1
    12    58    57    1
    13    57    59    1
    14    67    68    1
    15    91    90    2
    16    88    89    1
    17    76    74    1
    18    75    73    1
    19    90    89    1
    20    74    73    1
    21    49    50    1
    22    49    46    1
    23    69    70    1
    24    47    46    1
    25    47    48    2
    26    83    84    2
    27    83    82    1
    28    52    50   ar
    29    50    51   ar
    30    89    92    1
    31    46    45    1
    32    73    70    1
    33    12    13    1
    34    82    81    1
    35    82    85    1
    36    70    71    1
    37    92    93    1
    38    92    94    1
    39    86    85    1
    40    45    39   am
    41    40    39    2
    42    85    87    1
    43    15    14    2
    44    72    71    2
    45    13    14    1
    46    13    16    1
    47    71    77   am
    48    39    38    1
    49    16    17    1
    50    77    78    1
    51    38    41    1
    52    38    37    1
    53    41    42    1
    54    20    21    1
    55    78    79    1
    56    36    33    1
    57    35    34    2
    58    17    18    1
    59    17    19    1
    60    37    34   am
    61    34    33    1
    62    24    21    1
    63    24    25    1
    64    79    80    2
    65    23    22    2
    66    21    22    1
    67    33    32    1
    68    42    43   ar
    69    42    44   ar
    70     4     3    2
    71    27    25   am
    72    25    26    2
    73     3     2    1
    74    32    30   am
    75     5     2    1
    76     5     6    1
    77    10     9    1
    78     7     6    1
    79     7     8    1
    80     2     1    1
    81    30    31    2
    82    30    29    1
    83     9     8    2
    84     9    11    1
    85    28    29    1
