@<TRIPOS>MOLECULE
tmp/3ou3B00.pdb
 127 120 0 0 0
SMALL
GASTEIGER

@<TRIPOS>ATOM
      1  N         29.1470    8.7550   -0.7430 N.3     8  ARG8       -0.1245
      2  CA        27.9740    8.2370   -1.4700 C.3     8  ARG8        0.1563
      3  C         28.4040    7.2760   -2.5640 C.2     8  ARG8        0.2260
      4  O         29.3150    7.5960   -3.3460 O.2     8  ARG8       -0.2867
      5  CB        27.1780    9.3900   -2.0700 C.3     8  ARG8        0.0307
      6  CG        26.5560   10.2600   -1.0180 C.3     8  ARG8        0.0489
      7  CD        25.8020   11.4070   -1.6450 C.3     8  ARG8        0.2205
      8  NE        25.2120   12.2360   -0.5960 N.pl3   8  ARG8       -0.0865
      9  CZ        24.6380   13.4240   -0.7960 C.cat   8  ARG8        0.5346
     10  NH1       24.5600   13.9350   -2.0220 N.pl3   8  ARG8        0.1354
     11  NH2       24.1440   14.1010    0.2330 N.pl3   8  ARG8        0.1354
     12  N         23.3230    6.5390   -8.0460 N.3    23  LEU23      -0.1245
     13  CA        23.5990    6.1810   -6.6590 C.3    23  LEU23       0.1561
     14  C         23.1270    4.7390   -6.3990 C.2    23  LEU23       0.2260
     15  O         21.9430    4.4320   -6.6470 O.2    23  LEU23      -0.2867
     16  CB        22.7920    7.1110   -5.7570 C.3    23  LEU23       0.0270
     17  CG        22.8720    6.8900   -4.2450 C.3    23  LEU23       0.0019
     18  CD1       24.2690    7.1840   -3.7640 C.3    23  LEU23       0.0001
     19  CD2       21.8080    7.7520   -3.5200 C.3    23  LEU23       0.0001
     20  N         21.5790    2.3630   -4.2590 N.3    25  ASN25      -0.1240
     21  CA        20.6820    2.7110   -3.1500 C.3    25  ASN25       0.1653
     22  C         19.9150    1.5080   -2.6420 C.2    25  ASN25       0.2266
     23  O         18.8650    1.1520   -3.1760 O.2    25  ASN25      -0.2867
     24  CB        19.6780    3.7810   -3.6100 C.3    25  ASN25       0.1155
     25  CG        18.8670    4.3700   -2.4460 C.2    25  ASN25       0.2627
     26  OD1       18.8130    3.7940   -1.3610 O.2    25  ASN25      -0.2716
     27  ND2       18.2500    5.5240   -2.6720 N.am   25  ASN25      -0.0877
     28  N         18.1690    1.2460   -0.1160 N.3    27  GLY27      -0.1210
     29  CA        16.8830    1.6880    0.4390 C.3    27  GLY27       0.1956
     30  C         15.7850    1.8450   -0.5970 C.2    27  GLY27       0.2612
     31  O         14.6320    2.0440   -0.2400 O.2    27  GLY27      -0.2717
     32  N         16.1330    1.7240   -1.8730 N.am   28  ALA28      -0.1965
     33  CA        15.1690    1.9190   -2.9450 C.3    28  ALA28       0.1728
     34  C         14.8220    0.5880   -3.5830 C.2    28  ALA28       0.2616
     35  O         15.7140   -0.1680   -3.9950 O.2    28  ALA28      -0.2715
     36  CB        15.7140    2.8930   -4.0130 C.3    28  ALA28       0.0334
     37  N         13.5260    0.3170   -3.6900 N.am   29  ASP29      -0.1957
     38  CA        13.0710   -0.9210   -4.3310 C.3    29  ASP29       0.1840
     39  C         13.3640   -0.8730   -5.8230 C.2    29  ASP29       0.2622
     40  O         13.6990   -1.8990   -6.4210 O.2    29  ASP29      -0.2715
     41  CB        11.5670   -1.0990   -4.1610 C.3    29  ASP29       0.1450
     42  CG        11.1370   -1.2290   -2.7110 C.2    29  ASP29       0.3671
     43  OD1        9.9260   -0.9910   -2.4800 O.co2  29  ASP29      -0.2456
     44  OD2       11.9580   -1.5890   -1.8300 O.co2  29  ASP29      -0.2456
     45  N         13.2060    0.3120   -6.4190 N.am   30  ASP30      -0.1971
     46  CA        13.2290    0.4530   -7.8830 C.3    30  ASP30       0.1709
     47  C         14.3320    1.4100   -8.3240 C.2    30  ASP30       0.2293
     48  O         14.8390    2.2030   -7.5220 O.2    30  ASP30      -0.2864
     49  CB        11.8840    0.9640   -8.4230 C.3    30  ASP30       0.1436
     50  CG        10.7060    0.1710   -7.9130 C.2    30  ASP30       0.3671
     51  OD1        9.7510    0.7990   -7.4040 O.co2  30  ASP30      -0.2456
     52  OD2       10.7370   -1.0790   -7.9820 O.co2  30  ASP30      -0.2456
     53  N         15.3190    4.5630  -10.6000 N.3    32  VAL32      -0.1245
     54  CA        14.6870    5.7610  -11.1820 C.3    32  VAL32       0.1561
     55  C         15.7750    6.6310  -11.7790 C.2    32  VAL32       0.2260
     56  O         16.7380    6.9870  -11.0990 O.2    32  VAL32      -0.2867
     57  CB        13.8620    6.5560  -10.1550 C.3    32  VAL32       0.0252
     58  CG1       13.0820    7.6860  -10.8630 C.3    32  VAL32       0.0019
     59  CG2       12.8840    5.6360   -9.4540 C.3    32  VAL32       0.0019
     60  N          3.5580    4.6870  -14.1050 N.3    45  LYS45      -0.1231
     61  CA         3.6130    4.0820  -12.7790 C.3    45  LYS45       0.1693
     62  C          3.6070    5.2210  -11.7710 C.2    45  LYS45       0.2592
     63  O          4.3010    6.2200  -11.9700 O.2    45  LYS45      -0.2718
     64  CB         4.8770    3.2300  -12.6090 C.3    45  LYS45       0.0285
     65  CG         5.0240    2.6160  -11.1950 C.3    45  LYS45       0.0035
     66  CD         6.3140    1.7930  -11.0490 C.3    45  LYS45       0.0206
     67  CE         6.4390    1.1500   -9.6460 C.3    45  LYS45       0.1093
     68  NZ         5.3360    0.1870   -9.3280 N.3    45  LYS45      -0.1314
     69  N          2.8370    5.0590  -10.6900 N.am   46  LEU46      -0.1966
     70  CA         2.8770    5.9930   -9.5680 C.3    46  LEU46       0.1728
     71  C          3.8350    5.5120   -8.4960 C.2    46  LEU46       0.2616
     72  O          3.7290    4.3810   -8.0130 O.2    46  LEU46      -0.2715
     73  CB         1.4650    6.2020   -8.9830 C.3    46  LEU46       0.0311
     74  CG         0.4470    6.9140   -9.8870 C.3    46  LEU46       0.0022
     75  CD1       -0.9270    6.9970   -9.1630 C.3    46  LEU46       0.0001
     76  CD2        0.9290    8.2980  -10.3110 C.3    46  LEU46       0.0001
     77  N          4.7750    6.3690   -8.1250 N.am   47  ILE47      -0.1963
     78  CA         5.7480    6.0480   -7.0810 C.3    47  ILE47       0.1727
     79  C          5.7460    7.1050   -5.9820 C.2    47  ILE47       0.2616
     80  O          4.9280    8.0360   -6.0000 O.2    47  ILE47      -0.2715
     81  CB         7.1970    5.7780   -7.6370 C.3    47  ILE47       0.0290
     82  CG1        7.7940    7.0110   -8.3270 C.3    47  ILE47       0.0022
     83  CG2        7.2300    4.5290   -8.5470 C.3    47  ILE47       0.0023
     84  CD1        9.3110    6.8710   -8.6650 C.3    47  ILE47       0.0001
     85  N          6.6550    6.9520   -5.0160 N.am   48  GLY48      -0.1955
     86  CA         6.6610    7.8060   -3.8240 C.3    48  GLY48       0.1869
     87  C          5.3610    7.5530   -3.0990 C.2    48  GLY48       0.2309
     88  O          4.9620    6.3890   -2.9150 O.2    48  GLY48      -0.2863
     89  N          1.7590   11.4940   -5.1310 N.3    53  PHE53      -0.1241
     90  CA         2.5520   10.5030   -5.8420 C.3    53  PHE53       0.1605
     91  C          3.2410   11.1970   -6.9940 C.2    53  PHE53       0.2264
     92  O          2.7950   12.2660   -7.4090 O.2    53  PHE53      -0.2867
     93  CB         1.6560    9.4150   -6.4050 C.3    53  PHE53       0.0534
     94  CG         1.0080    8.5620   -5.3550 C.ar   53  PHE53      -0.0203
     95  CD1        1.5960    7.3810   -4.9530 C.ar   53  PHE53      -0.0042
     96  CD2       -0.1880    8.9630   -4.7640 C.ar   53  PHE53      -0.0042
     97  CE1        0.9910    6.5790   -3.9790 C.ar   53  PHE53      -0.0003
     98  CE2       -0.7910    8.1760   -3.7860 C.ar   53  PHE53      -0.0003
     99  CZ        -0.1820    6.9760   -3.4010 C.ar   53  PHE53      -0.0000
    100  N         13.9090   13.0330  -10.8840 N.3    80  THR80      -0.1204
    101  CA        14.3660   12.4740   -9.6260 C.3    80  THR80       0.1979
    102  C         15.4980   13.3450   -9.1150 C.2    80  THR80       0.2460
    103  O         16.3790   13.7340   -9.8850 O.2    80  THR80      -0.2732
    104  CB        14.7750   10.9530   -9.7460 C.3    80  THR80       0.1783
    105  OG1       15.1720   10.4520   -8.4590 O.3    80  THR80      -0.2211
    106  CG2       15.9040   10.7430  -10.7520 C.3    80  THR80       0.0376
    107  N         15.4670   13.6710   -7.8120 N.am   81  PRO81      -0.2717
    108  CA        16.5270   14.5100   -7.2770 C.3    81  PRO81       0.1535
    109  C         17.9140   13.9310   -7.5580 C.2    81  PRO81       0.2599
    110  O         18.8690   14.6840   -7.7670 O.2    81  PRO81      -0.2715
    111  CB        16.2240   14.5430   -5.7760 C.3    81  PRO81       0.0310
    112  CG        14.7600   14.2660   -5.6730 C.3    81  PRO81       0.0237
    113  CD        14.4910   13.2780   -6.7730 C.3    81  PRO81       0.0939
    114  N         18.0360   12.6030   -7.5480 N.am   82  THR82      -0.1951
    115  CA        19.3180   11.9520   -7.8400 C.3    82  THR82       0.1897
    116  C         19.0110   10.6540   -8.6100 C.2    82  THR82       0.2313
    117  O         18.0090   10.0100   -8.2860 O.2    82  THR82      -0.2863
    118  CB        20.0720   11.5740   -6.5200 C.3    82  THR82       0.1794
    119  OG1       19.4170   10.4720   -5.8900 O.3    82  THR82      -0.2208
    120  CG2       20.0890   12.7270   -5.5340 C.3    82  THR82       0.0378
    121  N         18.9940    6.9300   -9.3200 N.3    84  VAL84      -0.1245
    122  CA        19.0770    5.8920   -8.2890 C.3    84  VAL84       0.1561
    123  C         19.0570    4.5090   -8.9190 C.2    84  VAL84       0.2260
    124  O         18.1370    4.2140   -9.6930 O.2    84  VAL84      -0.2867
    125  CB        17.9050    6.0300   -7.2990 C.3    84  VAL84       0.0252
    126  CG1       17.8410    4.8570   -6.3570 C.3    84  VAL84       0.0019
    127  CG2       18.0180    7.3290   -6.5170 C.3    84  VAL84       0.0019
@<TRIPOS>BOND
     1    60    61    1
     2    61    64    1
     3    61    62    1
     4    64    65    1
     5    63    62    2
     6    55    54    1
     7    55    56    2
     8    62    69   am
     9    65    66    1
    10    54    53    1
    11    54    57    1
    12    66    67    1
    13   100   101    1
    14    58    57    1
    15   106   104    1
    16    69    70    1
    17    76    74    1
    18    57    59    1
    19    74    75    1
    20    74    73    1
    21   103   102    2
    22   104   101    1
    23   104   105    1
    24   124   123    2
    25    67    68    1
    26   101   102    1
    27    70    73    1
    28    70    71    1
    29   121   122    1
    30   102   107   am
    31   123   122    1
    32    84    82    1
    33   116   117    2
    34   116   115    1
    35    83    81    1
    36    71    77   am
    37    71    72    2
    38    49    50    1
    39    49    46    1
    40    82    81    1
    41    47    46    1
    42    47    48    2
    43   122   125    1
    44    77    78    1
    45    12    13    1
    46    52    50   ar
    47    50    51   ar
    48    46    45    1
    49   115   114    1
    50   115   118    1
    51   107   108    1
    52   107   113    1
    53   110   109    2
    54    81    78    1
    55   109   114   am
    56   109   108    1
    57    92    91    2
    58   125   127    1
    59   125   126    1
    60   108   111    1
    61    78    79    1
    62    91    90    1
    63   113   112    1
    64    13    14    1
    65    13    16    1
    66    15    14    2
    67   118   119    1
    68   118   120    1
    69    40    39    2
    70    45    39   am
    71    93    90    1
    72    93    94    1
    73    80    79    2
    74    79    85   am
    75    90    89    1
    76    39    38    1
    77   111   112    1
    78    16    17    1
    79    94    95   ar
    80    94    96   ar
    81    85    86    1
    82    95    97   ar
    83    96    98   ar
    84    38    41    1
    85    38    37    1
    86    20    21    1
    87    17    18    1
    88    17    19    1
    89    41    42    1
    90    36    33    1
    91    35    34    2
    92    97    99   ar
    93    86    87    1
    94    98    99   ar
    95    37    34   am
    96    24    21    1
    97    24    25    1
    98    34    33    1
    99     4     3    2
   100    23    22    2
   101    21    22    1
   102    87    88    2
   103    33    32    1
   104    42    43   ar
   105    42    44   ar
   106    27    25   am
   107     3     2    1
   108    25    26    2
   109     5     2    1
   110     5     6    1
   111    10     9    1
   112    32    30   am
   113     7     6    1
   114     7     8    1
   115     2     1    1
   116     9     8    2
   117     9    11    1
   118    30    31    2
   119    30    29    1
   120    28    29    1
