@<TRIPOS>MOLECULE
tmp/3ou4B00.pdb
 139 132 0 0 0
SMALL
GASTEIGER

@<TRIPOS>ATOM
      1  N          6.3140  -14.0450   -0.7710 N.3     8  ARG8       -0.1245
      2  CA         5.1480  -14.5660   -1.4970 C.3     8  ARG8        0.1563
      3  C          5.5960  -15.5160   -2.6010 C.2     8  ARG8        0.2260
      4  O          6.5170  -15.1800   -3.3630 O.2     8  ARG8       -0.2867
      5  CB         4.3390  -13.4240   -2.0980 C.3     8  ARG8        0.0307
      6  CG         3.7310  -12.5330   -1.0620 C.3     8  ARG8        0.0489
      7  CD         2.8020  -11.5050   -1.6610 C.3     8  ARG8        0.2205
      8  NE         2.3180  -10.6180   -0.6040 N.pl3   8  ARG8       -0.0865
      9  CZ         1.7290   -9.4390   -0.8030 C.cat   8  ARG8        0.5346
     10  NH1        1.5190   -8.9840   -2.0370 N.pl3   8  ARG8        0.1354
     11  NH2        1.3470   -8.7130    0.2390 N.pl3   8  ARG8        0.1354
     12  N          0.5240  -16.2200   -8.0290 N.3    23  LEU23      -0.1245
     13  CA         0.7910  -16.6230   -6.6470 C.3    23  LEU23       0.1561
     14  C          0.3060  -18.0620   -6.3990 C.2    23  LEU23       0.2260
     15  O         -0.8710  -18.3530   -6.6240 O.2    23  LEU23      -0.2867
     16  CB         0.0060  -15.6850   -5.7340 C.3    23  LEU23       0.0270
     17  CG         0.0520  -15.9190   -4.2160 C.3    23  LEU23       0.0019
     18  CD1        1.4350  -15.6360   -3.7360 C.3    23  LEU23       0.0001
     19  CD2       -0.9790  -15.0150   -3.5530 C.3    23  LEU23       0.0001
     20  N         -1.2630  -20.4220   -4.2600 N.3    25  ASN25      -0.1240
     21  CA        -2.1420  -20.0960   -3.1410 C.3    25  ASN25       0.1653
     22  C         -2.9180  -21.3150   -2.6490 C.2    25  ASN25       0.2266
     23  O         -3.9790  -21.6680   -3.1990 O.2    25  ASN25      -0.2867
     24  CB        -3.1010  -18.9780   -3.5710 C.3    25  ASN25       0.1155
     25  CG        -3.9220  -18.4320   -2.4210 C.2    25  ASN25       0.2627
     26  OD1       -3.9890  -19.0350   -1.3560 O.2    25  ASN25      -0.2716
     27  ND2       -4.5530  -17.2960   -2.6410 N.am   25  ASN25      -0.0877
     28  N         -4.6140  -21.5380   -0.0850 N.3    27  GLY27      -0.1210
     29  CA        -5.9180  -21.1070    0.4480 C.3    27  GLY27       0.1956
     30  C         -7.0200  -20.9500   -0.5810 C.2    27  GLY27       0.2612
     31  O         -8.1690  -20.7250   -0.2220 O.2    27  GLY27      -0.2717
     32  N         -6.6670  -21.0700   -1.8580 N.am   28  ALA28      -0.1965
     33  CA        -7.6260  -20.8680   -2.9410 C.3    28  ALA28       0.1728
     34  C         -7.9880  -22.1920   -3.5870 C.2    28  ALA28       0.2616
     35  O         -7.0880  -22.9310   -3.9940 O.2    28  ALA28      -0.2715
     36  CB        -7.0250  -19.9310   -3.9960 C.3    28  ALA28       0.0334
     37  N         -9.2890  -22.4570   -3.7210 N.am   29  ASP29      -0.1957
     38  CA        -9.7480  -23.7110   -4.3490 C.3    29  ASP29       0.1840
     39  C         -9.4430  -23.6640   -5.8390 C.2    29  ASP29       0.2622
     40  O         -9.0820  -24.6700   -6.4420 O.2    29  ASP29      -0.2715
     41  CB       -11.2620  -23.9090   -4.1840 C.3    29  ASP29       0.1450
     42  CG       -11.7020  -24.0460   -2.7360 C.2    29  ASP29       0.3671
     43  OD1      -12.9340  -23.8930   -2.5350 O.co2  29  ASP29      -0.2456
     44  OD2      -10.8760  -24.3270   -1.8330 O.co2  29  ASP29      -0.2456
     45  N         -9.6090  -22.4790   -6.4210 N.am   30  ASP30      -0.1971
     46  CA        -9.5920  -22.3090   -7.8730 C.3    30  ASP30       0.1709
     47  C         -8.4800  -21.3700   -8.3210 C.2    30  ASP30       0.2293
     48  O         -7.9390  -20.5880   -7.5320 O.2    30  ASP30      -0.2864
     49  CB       -10.9430  -21.7590   -8.3510 C.3    30  ASP30       0.1436
     50  CG       -12.1050  -22.5780   -7.8630 C.2    30  ASP30       0.3671
     51  OD1      -13.0490  -21.9740   -7.3090 O.co2  30  ASP30      -0.2456
     52  OD2      -12.0680  -23.8210   -7.9990 O.co2  30  ASP30      -0.2456
     53  N         -7.4860  -18.2080  -10.6570 N.3    32  VAL32      -0.1245
     54  CA        -8.1350  -17.0230  -11.2290 C.3    32  VAL32       0.1561
     55  C         -7.0450  -16.1340  -11.8070 C.2    32  VAL32       0.2260
     56  O         -6.0870  -15.7680  -11.1150 O.2    32  VAL32      -0.2867
     57  CB        -8.9580  -16.2360  -10.1860 C.3    32  VAL32       0.0252
     58  CG1       -9.6750  -15.0900  -10.8750 C.3    32  VAL32       0.0019
     59  CG2       -9.9830  -17.1220   -9.4910 C.3    32  VAL32       0.0019
     60  N        -19.2960  -18.0770  -14.1330 N.3    45  LYS45      -0.1231
     61  CA       -19.2370  -18.6660  -12.8000 C.3    45  LYS45       0.1693
     62  C        -19.2060  -17.5330  -11.7870 C.2    45  LYS45       0.2592
     63  O        -18.4920  -16.5430  -11.9720 O.2    45  LYS45      -0.2718
     64  CB       -17.9910  -19.5430  -12.6470 C.3    45  LYS45       0.0285
     65  CG       -17.8210  -20.2030  -11.2690 C.3    45  LYS45       0.0035
     66  CD       -16.5110  -20.9730  -11.2100 C.3    45  LYS45       0.0206
     67  CE       -16.2990  -21.6770   -9.8780 C.3    45  LYS45       0.1093
     68  NZ       -17.3000  -22.7480   -9.6290 N.3    45  LYS45      -0.1314
     69  N        -19.9940  -17.6730  -10.7230 N.am   46  LEU46      -0.1966
     70  CA       -19.9420  -16.7430   -9.5950 C.3    46  LEU46       0.1728
     71  C        -18.9760  -17.2570   -8.5340 C.2    46  LEU46       0.2616
     72  O        -19.0540  -18.4150   -8.0920 O.2    46  LEU46      -0.2715
     73  CB       -21.3410  -16.5250   -9.0050 C.3    46  LEU46       0.0311
     74  CG       -22.3790  -15.8710   -9.9180 C.3    46  LEU46       0.0022
     75  CD1      -23.7330  -15.8130   -9.2130 C.3    46  LEU46       0.0001
     76  CD2      -21.9630  -14.4840  -10.3750 C.3    46  LEU46       0.0001
     77  N        -18.0380  -16.4040   -8.1500 N.am   47  ILE47      -0.1963
     78  CA       -17.0710  -16.7640   -7.1070 C.3    47  ILE47       0.1727
     79  C        -17.0640  -15.7250   -5.9930 C.2    47  ILE47       0.2617
     80  O        -17.8230  -14.7440   -6.0370 O.2    47  ILE47      -0.2715
     81  CB       -15.6290  -17.0710   -7.6720 C.3    47  ILE47       0.0290
     82  CG1      -14.9970  -15.8480   -8.3490 C.3    47  ILE47       0.0022
     83  CG2      -15.6540  -18.3270   -8.5800 C.3    47  ILE47       0.0023
     84  CD1      -13.4960  -16.0080   -8.6740 C.3    47  ILE47       0.0001
     85  N        -16.2280  -15.9580   -4.9800 N.am   48  GLY48      -0.1940
     86  CA       -16.1920  -15.0850   -3.8060 C.3    48  GLY48       0.2014
     87  C        -17.4590  -15.3210   -3.0100 C.2    48  GLY48       0.2639
     88  O        -17.7730  -16.4660   -2.6720 O.2    48  GLY48      -0.2714
     89  N        -18.1910  -14.2520   -2.7230 N.am   49  GLY49      -0.1939
     90  CA       -19.3510  -14.3380   -1.8150 C.3    49  GLY49       0.2014
     91  C        -19.3680  -13.3320   -0.6700 C.2    49  GLY49       0.2638
     92  O        -20.3730  -13.1810    0.0210 O.2    49  GLY49      -0.2714
     93  N        -18.2440  -12.6590   -0.4410 N.am   50  ILE50      -0.1977
     94  CA       -18.1960  -11.5340    0.4990 C.3    50  ILE50       0.1596
     95  C        -18.5600  -10.2510   -0.2610 C.2    50  ILE50       0.2287
     96  O        -17.9340   -9.9670   -1.2780 O.2    50  ILE50      -0.2864
     97  CB       -16.7810  -11.4050    1.1240 C.3    50  ILE50       0.0276
     98  CG1      -16.4400  -12.6390    1.9780 C.3    50  ILE50       0.0022
     99  CG2      -16.6340  -10.0960    1.9090 C.3    50  ILE50       0.0022
    100  CD1      -17.3000  -12.8330    3.2090 C.3    50  ILE50       0.0001
    101  N        -21.0990  -11.2730   -5.1270 N.3    53  PHE53      -0.1241
    102  CA       -20.3070  -12.2620   -5.8520 C.3    53  PHE53       0.1605
    103  C        -19.5900  -11.5840   -7.0000 C.2    53  PHE53       0.2264
    104  O        -20.0410  -10.5360   -7.4670 O.2    53  PHE53      -0.2867
    105  CB       -21.2070  -13.3580   -6.4220 C.3    53  PHE53       0.0534
    106  CG       -21.8520  -14.2140   -5.3780 C.ar   53  PHE53      -0.0203
    107  CD1      -21.2720  -15.4070   -5.0010 C.ar   53  PHE53      -0.0042
    108  CD2      -23.0350  -13.8150   -4.7800 C.ar   53  PHE53      -0.0042
    109  CE1      -21.8720  -16.2120   -4.0280 C.ar   53  PHE53      -0.0003
    110  CE2      -23.6310  -14.6040   -3.8010 C.ar   53  PHE53      -0.0003
    111  CZ       -23.0410  -15.8070   -3.4330 C.ar   53  PHE53      -0.0000
    112  N         -9.0020   -9.8530  -10.7260 N.3    80  THR80      -0.1204
    113  CA        -8.4790  -10.3850   -9.4960 C.3    80  THR80       0.1979
    114  C         -7.3560   -9.4710   -9.0630 C.2    80  THR80       0.2460
    115  O         -6.5230   -9.0550   -9.8850 O.2    80  THR80      -0.2732
    116  CB        -8.0390  -11.8860   -9.6240 C.3    80  THR80       0.1783
    117  OG1       -7.5240  -12.3650   -8.3680 O.3    80  THR80      -0.2211
    118  CG2       -6.9960  -12.0880  -10.7110 C.3    80  THR80       0.0376
    119  N         -7.3420   -9.1180   -7.7680 N.am   81  PRO81      -0.2717
    120  CA        -6.2680   -8.2800   -7.2680 C.3    81  PRO81       0.1535
    121  C         -4.8830   -8.8650   -7.5530 C.2    81  PRO81       0.2599
    122  O         -3.9320   -8.1200   -7.7750 O.2    81  PRO81      -0.2715
    123  CB        -6.5510   -8.2220   -5.7650 C.3    81  PRO81       0.0310
    124  CG        -8.0270   -8.4240   -5.6590 C.3    81  PRO81       0.0237
    125  CD        -8.3020   -9.4730   -6.7060 C.3    81  PRO81       0.0939
    126  N         -4.7720  -10.1910   -7.5520 N.am   82  THR82      -0.1951
    127  CA        -3.4950  -10.8640   -7.7630 C.3    82  THR82       0.1897
    128  C         -3.7810  -12.1410   -8.5660 C.2    82  THR82       0.2313
    129  O         -4.7520  -12.8230   -8.2610 O.2    82  THR82      -0.2863
    130  CB        -2.8650  -11.2530   -6.3910 C.3    82  THR82       0.1794
    131  OG1       -1.8080  -12.1920   -6.5840 O.3    82  THR82      -0.2208
    132  CG2       -3.8990  -11.8980   -5.5090 C.3    82  THR82       0.0378
    133  N         -3.8250  -15.8320   -9.3150 N.3    84  VAL84      -0.1245
    134  CA        -3.7510  -16.8960   -8.3160 C.3    84  VAL84       0.1561
    135  C         -3.7670  -18.2910   -8.9350 C.2    84  VAL84       0.2260
    136  O         -4.6610  -18.5980   -9.7370 O.2    84  VAL84      -0.2867
    137  CB        -4.9060  -16.7580   -7.3110 C.3    84  VAL84       0.0252
    138  CG1       -5.0730  -18.0260   -6.4940 C.3    84  VAL84       0.0019
    139  CG2       -4.6810  -15.5470   -6.3900 C.3    84  VAL84       0.0019
@<TRIPOS>BOND
     1    60    61    1
     2    61    64    1
     3    61    62    1
     4    64    65    1
     5    63    62    2
     6    55    54    1
     7    55    56    2
     8    62    69   am
     9    65    66    1
    10    54    53    1
    11    54    57    1
    12    66    67    1
    13    58    57    1
    14   112   113    1
    15    69    70    1
    16   118   116    1
    17    76    74    1
    18    57    59    1
    19    74    75    1
    20    74    73    1
    21   115   114    2
    22    67    68    1
    23   136   135    2
    24   116   113    1
    25   116   117    1
    26    70    73    1
    27    70    71    1
    28   113   114    1
    29   133   134    1
    30   114   119   am
    31   135   134    1
    32    84    82    1
    33    83    81    1
    34   128   129    2
    35   128   127    1
    36    71    77   am
    37    71    72    2
    38    49    46    1
    39    49    50    1
    40    82    81    1
    41    47    46    1
    42    47    48    2
    43   134   137    1
    44    77    78    1
    45    12    13    1
    46    52    50   ar
    47    46    45    1
    48    50    51   ar
    49   122   121    2
    50   119   120    1
    51   119   125    1
    52   127   126    1
    53   127   130    1
    54    81    78    1
    55   121   126   am
    56   121   120    1
    57   104   103    2
    58   137   138    1
    59   137   139    1
    60   120   123    1
    61    78    79    1
    62   103   102    1
    63   125   124    1
    64    13    14    1
    65    13    16    1
    66    15    14    2
    67   131   130    1
    68    40    39    2
    69   105   102    1
    70   105   106    1
    71    45    39   am
    72   130   132    1
    73    80    79    2
    74    79    85   am
    75   102   101    1
    76    39    38    1
    77   123   124    1
    78    16    17    1
    79   106   107   ar
    80   106   108   ar
    81   107   109   ar
    82    85    86    1
    83   108   110   ar
    84    38    41    1
    85    38    37    1
    86    20    21    1
    87    17    18    1
    88    17    19    1
    89    41    42    1
    90   109   111   ar
    91    36    33    1
    92    35    34    2
    93    86    87    1
    94   110   111   ar
    95    37    34   am
    96    34    33    1
    97    24    21    1
    98    24    25    1
    99     4     3    2
   100    23    22    2
   101    21    22    1
   102    87    89   am
   103    87    88    2
   104    33    32    1
   105    42    43   ar
   106    42    44   ar
   107    89    90    1
   108    27    25   am
   109     3     2    1
   110    25    26    2
   111     5     2    1
   112     5     6    1
   113    10     9    1
   114    32    30   am
   115    90    91    1
   116     7     6    1
   117     7     8    1
   118     2     1    1
   119    96    95    2
   120     9     8    2
   121     9    11    1
   122    91    93   am
   123    91    92    2
   124    30    31    2
   125    30    29    1
   126    93    94    1
   127    95    94    1
   128    28    29    1
   129    94    97    1
   130    97    99    1
   131    97    98    1
   132    98   100    1
