@<TRIPOS>MOLECULE
tmp/3ou7D01.pdb
 100 98 0 0 0
SMALL
GASTEIGER

@<TRIPOS>ATOM
      1  N         34.5730  -82.9520  -19.1470 N.3    13  TYR13      -0.1241
      2  CA        35.9080  -83.5090  -18.8790 C.3    13  TYR13       0.1605
      3  C         36.4330  -84.2960  -20.0830 C.2    13  TYR13       0.2264
      4  O         37.6470  -84.3120  -20.3270 O.2    13  TYR13      -0.2867
      5  CB        35.9170  -84.3460  -17.5770 C.3    13  TYR13       0.0534
      6  CG        35.8740  -83.4180  -16.3790 C.ar   13  TYR13      -0.0201
      7  CD1       36.9990  -82.6120  -16.0680 C.ar   13  TYR13      -0.0009
      8  CD2       34.6920  -83.2670  -15.6180 C.ar   13  TYR13      -0.0009
      9  CE1       36.9600  -81.7020  -15.0420 C.ar   13  TYR13       0.0417
     10  CE2       34.6240  -82.3680  -14.5780 C.ar   13  TYR13       0.0417
     11  CZ        35.7640  -81.5840  -14.2700 C.ar   13  TYR13       0.1957
     12  OH        35.7200  -80.6650  -13.2170 O.3    13  TYR13      -0.2866
     13  N         37.7190  -81.6030  -22.2670 N.3    16  ARG16      -0.1245
     14  CA        38.8430  -80.8560  -21.7100 C.3    16  ARG16       0.1563
     15  C         40.1310  -81.6900  -21.6770 C.2    16  ARG16       0.2260
     16  O         41.2400  -81.1660  -21.5050 O.2    16  ARG16      -0.2867
     17  CB        38.4700  -80.3850  -20.3080 C.3    16  ARG16       0.0307
     18  CG        39.4830  -79.4760  -19.7110 C.3    16  ARG16       0.0489
     19  CD        39.0220  -79.0200  -18.3170 C.3    16  ARG16       0.2205
     20  NE        40.1360  -78.5410  -17.5350 N.pl3  16  ARG16      -0.0865
     21  CZ        40.0990  -78.2490  -16.2290 C.cat  16  ARG16       0.5346
     22  NH1       38.9790  -78.3500  -15.5020 N.pl3  16  ARG16       0.1354
     23  NH2       41.2150  -77.8350  -15.6680 N.pl3  16  ARG16       0.1354
     24  N         43.8830  -80.4000  -20.3950 N.3    20  TYR20      -0.1241
     25  CA        43.6050  -80.3680  -18.9360 C.3    20  TYR20       0.1605
     26  C         44.8280  -79.8530  -18.1800 C.2    20  TYR20       0.2264
     27  O         44.7330  -78.8720  -17.4100 O.2    20  TYR20      -0.2867
     28  CB        43.2450  -81.7460  -18.4170 C.3    20  TYR20       0.0534
     29  CG        42.8680  -81.7810  -16.9450 C.ar   20  TYR20      -0.0201
     30  CD1       41.5450  -81.4510  -16.5000 C.ar   20  TYR20      -0.0009
     31  CD2       43.8170  -82.1550  -15.9800 C.ar   20  TYR20      -0.0009
     32  CE1       41.2190  -81.4820  -15.1600 C.ar   20  TYR20       0.0417
     33  CE2       43.5000  -82.1910  -14.6240 C.ar   20  TYR20       0.0417
     34  CZ        42.2130  -81.8570  -14.2210 C.ar   20  TYR20       0.1957
     35  OH        41.9470  -81.9150  -12.8710 O.3    20  TYR20      -0.2866
     36  N         45.2120  -77.3180  -15.1670 N.3    24  PHE24      -0.1227
     37  CA        45.1090  -78.1180  -13.9460 C.3    24  PHE24       0.1736
     38  C         43.9590  -77.6180  -13.0350 C.2    24  PHE24       0.2595
     39  O         43.1820  -76.7000  -13.4340 O.2    24  PHE24      -0.2718
     40  CB        46.4740  -78.1220  -13.2310 C.3    24  PHE24       0.0547
     41  CG        46.5970  -79.2100  -12.1800 C.ar   24  PHE24      -0.0202
     42  CD1       46.0510  -80.4810  -12.4100 C.ar   24  PHE24      -0.0042
     43  CD2       47.2330  -78.9630  -10.9600 C.ar   24  PHE24      -0.0042
     44  CE1       46.1270  -81.4970  -11.4320 C.ar   24  PHE24      -0.0003
     45  CE2       47.3300  -79.9700   -9.9870 C.ar   24  PHE24      -0.0003
     46  CZ        46.7740  -81.2350  -10.2230 C.ar   24  PHE24      -0.0000
     47  N         43.8580  -78.1900  -11.8240 N.am   25  VAL25      -0.1966
     48  CA        42.9270  -77.6820  -10.7780 C.3    25  VAL25       0.1712
     49  C         43.4860  -76.3570  -10.1340 C.2    25  VAL25       0.2458
     50  O         44.5860  -76.3250   -9.5460 O.2    25  VAL25      -0.2730
     51  CB        42.7390  -78.7460   -9.6400 C.3    25  VAL25       0.0289
     52  CG1       42.0330  -78.1550   -8.4000 C.3    25  VAL25       0.0023
     53  CG2       42.0330  -80.0030  -10.1510 C.3    25  VAL25       0.0023
     54  N         42.7100  -75.2680  -10.2110 N.am   26  PRO26      -0.2727
     55  CA        43.2040  -73.9880   -9.7160 C.3    26  PRO26       0.1402
     56  C         43.8370  -74.0990   -8.3200 C.2    26  PRO26       0.2269
     57  O         43.1820  -74.5530   -7.3540 O.2    26  PRO26      -0.2865
     58  CB        41.9510  -73.1340   -9.5970 C.3    26  PRO26       0.0296
     59  CG        40.8800  -73.8040  -10.4360 C.3    26  PRO26       0.0237
     60  CD        41.2780  -75.2490  -10.6070 C.3    26  PRO26       0.0939
     61  N         39.7150  -84.2080   -5.8860 N.3   113  HIS113     -0.1241
     62  CA        38.8320  -83.3500   -6.6080 C.3   113  HIS113      0.1621
     63  C         37.6780  -83.9890   -7.3480 C.2   113  HIS113      0.2264
     64  O         37.1500  -83.3600   -8.3230 O.2   113  HIS113     -0.2867
     65  CB        39.6120  -82.4030   -7.5410 C.3   113  HIS113      0.0745
     66  CG        40.4010  -81.4290   -6.7710 C.ar  113  HIS113      0.0817
     67  ND1       41.7350  -81.6240   -6.4830 N.ar  113  HIS113     -0.2268
     68  CD2       40.0300  -80.3010   -6.1180 C.ar  113  HIS113      0.1154
     69  CE1       42.1690  -80.6390   -5.7160 C.ar  113  HIS113      0.1986
     70  NE2       41.1490  -79.8240   -5.4800 N.ar  113  HIS113     -0.2212
     71  N         32.3700  -82.9870   -7.3010 N.3   117  HIS117     -0.1241
     72  CA        31.5230  -83.2030   -8.5090 C.3   117  HIS117      0.1621
     73  C         30.3670  -84.1810   -8.2890 C.2   117  HIS117      0.2264
     74  O         29.6540  -84.5460   -9.2320 O.2   117  HIS117     -0.2867
     75  CB        32.3850  -83.6090   -9.7000 C.3   117  HIS117      0.0745
     76  CG        33.4400  -82.6000   -9.9590 C.ar  117  HIS117      0.0817
     77  ND1       33.1360  -81.3170  -10.3530 N.ar  117  HIS117     -0.2268
     78  CD2       34.7800  -82.6160   -9.7220 C.ar  117  HIS117      0.1154
     79  CE1       34.2470  -80.5960  -10.4020 C.ar  117  HIS117      0.1986
     80  NE2       35.2650  -81.3730  -10.0650 N.ar  117  HIS117     -0.2212
     81  N         31.4440  -73.7290  -17.2790 N.3   166  ARG166     -0.1245
     82  CA        32.8340  -73.5980  -17.7390 C.3   166  ARG166      0.1563
     83  C         32.7710  -73.4550  -19.2410 C.2   166  ARG166      0.2260
     84  O         31.9010  -74.0590  -19.9060 O.2   166  ARG166     -0.2867
     85  CB        33.6410  -74.9130  -17.4670 C.3   166  ARG166      0.0307
     86  CG        33.6930  -75.3490  -16.0160 C.3   166  ARG166      0.0489
     87  CD        34.6180  -74.3920  -15.2230 C.3   166  ARG166      0.2205
     88  NE        34.6370  -74.6770  -13.7930 N.pl3 166  ARG166     -0.0865
     89  CZ        35.3050  -75.6730  -13.2100 C.cat 166  ARG166      0.5346
     90  NH1       36.0260  -76.5270  -13.9010 N.pl3 166  ARG166      0.1354
     91  NH2       35.2580  -75.8010  -11.9090 N.pl3 166  ARG166      0.1354
     92  N         29.6040  -78.4790   -8.7440 N.3   178  LYS178     -0.1245
     93  CA        30.7090  -77.9670   -7.9210 C.3   178  LYS178      0.1561
     94  C         30.1850  -77.6290   -6.5620 C.2   178  LYS178      0.2260
     95  O         29.6760  -76.5330   -6.3600 O.2   178  LYS178     -0.2867
     96  CB        31.3590  -76.7150   -8.5410 C.3   178  LYS178      0.0271
     97  CG        32.6940  -76.3170   -7.8740 C.3   178  LYS178      0.0035
     98  CD        33.7700  -77.3580   -8.1120 C.3   178  LYS178      0.0206
     99  CE        35.1630  -76.9230   -7.5640 C.3   178  LYS178      0.1093
    100  NZ        36.2100  -77.9630   -7.8830 N.3   178  LYS178     -0.1314
@<TRIPOS>BOND
     1    13    14    1
     2    14    15    1
     3    14    17    1
     4    15    16    2
     5    24    25    1
     6     4     3    2
     7    17    18    1
     8     3     2    1
     9    84    83    2
    10    18    19    1
    11    83    82    1
    12     1     2    1
    13    25    28    1
    14    25    26    1
    15     2     5    1
    16    28    29    1
    17    19    20    1
    18    26    27    2
    19    82    85    1
    20    82    81    1
    21     5     6    1
    22    20    21    2
    23    85    86    1
    24    29    30   ar
    25    29    31   ar
    26    30    32   ar
    27     6     7   ar
    28     6     8   ar
    29    21    23    1
    30    21    22    1
    31     7     9   ar
    32    86    87    1
    33    31    33   ar
    34     8    10   ar
    35    87    88    1
    36    36    37    1
    37    32    34   ar
    38     9    11   ar
    39    33    34   ar
    40    10    11   ar
    41    11    12    1
    42    34    35    1
    43    37    40    1
    44    37    38    1
    45    90    89    1
    46    88    89    2
    47    39    38    2
    48    40    41    1
    49    89    91    1
    50    38    47   am
    51    42    41   ar
    52    42    44   ar
    53    41    43   ar
    54    47    48    1
    55    44    46   ar
    56    43    45   ar
    57    48    49    1
    58    48    51    1
    59    60    59    1
    60    60    54    1
    61    59    58    1
    62    79    77   ar
    63    79    80   ar
    64    77    76   ar
    65    46    45   ar
    66    54    49   am
    67    54    55    1
    68    53    51    1
    69    49    50    2
    70    80    78   ar
    71    76    78   ar
    72    76    75    1
    73    55    58    1
    74    55    56    1
    75    75    72    1
    76    51    52    1
    77    74    73    2
    78    92    93    1
    79    96    93    1
    80    96    97    1
    81    72    73    1
    82    72    71    1
    83    64    63    2
    84    56    57    2
    85    98    97    1
    86    98    99    1
    87    93    94    1
    88   100    99    1
    89    65    66    1
    90    65    62    1
    91    63    62    1
    92    66    67   ar
    93    66    68   ar
    94    62    61    1
    95    94    95    2
    96    67    69   ar
    97    68    70   ar
    98    69    70   ar
