@<TRIPOS>MOLECULE
tmp/3ou7A00.pdb
 225 223 0 0 0
SMALL
GASTEIGER

@<TRIPOS>ATOM
      1  N         15.3540  -57.9360   -7.0710 N.3     7  ILE7       -0.1245
      2  CA        15.4710  -56.7450   -6.2400 C.3     7  ILE7        0.1561
      3  C         14.1640  -56.4660   -5.4220 C.2     7  ILE7        0.2260
      4  O         14.2090  -56.0090   -4.2340 O.2     7  ILE7       -0.2867
      5  CB        15.8640  -55.5120   -7.2000 C.3     7  ILE7        0.0252
      6  CG1       17.2790  -55.6850   -7.7560 C.3     7  ILE7        0.0019
      7  CG2       15.8870  -54.2310   -6.5110 C.3     7  ILE7        0.0019
      8  CD1       18.2580  -55.9090   -6.6350 C.3     7  ILE7        0.0001
      9  N         13.9770  -59.0420   -2.5200 N.3    10  GLN10      -0.1231
     10  CA        14.9110  -58.7970   -1.4610 C.3    10  GLN10       0.1698
     11  C         14.3860  -57.7640   -0.5350 C.2    10  GLN10       0.2592
     12  O         14.4330  -57.9470    0.6860 O.2    10  GLN10      -0.2718
     13  CB        16.2960  -58.4130   -2.0370 C.3    10  GLN10       0.0381
     14  CG        17.1890  -57.6820   -1.1210 C.3    10  GLN10       0.0905
     15  CD        18.6390  -57.6550   -1.6630 C.2    10  GLN10       0.2608
     16  OE1       19.3870  -58.6520   -1.5570 O.2    10  GLN10      -0.2717
     17  NE2       19.0020  -56.5370   -2.3050 N.am   10  GLN10      -0.0878
     18  N         13.8840  -56.6620   -1.0750 N.am   11  LEU11      -0.1980
     19  CA        13.3080  -55.6830   -0.1750 C.3    11  LEU11       0.1596
     20  C         12.0490  -56.1950    0.5890 C.2    11  LEU11       0.2287
     21  O         11.9100  -55.9550    1.7860 O.2    11  LEU11      -0.2864
     22  CB        13.0340  -54.3460   -0.8620 C.3    11  LEU11       0.0297
     23  CG        12.2170  -53.3300   -0.0810 C.3    11  LEU11       0.0022
     24  CD1       12.9960  -52.8520    1.1820 C.3    11  LEU11       0.0001
     25  CD2       11.8860  -52.1260   -1.0220 C.3    11  LEU11       0.0001
     26  N         13.0310  -58.2730    3.4620 N.3    14  TYR14      -0.1241
     27  CA        13.4440  -57.5790    4.6590 C.3    14  TYR14       0.1605
     28  C         12.2470  -56.9090    5.3270 C.2    14  TYR14       0.2264
     29  O         12.1910  -56.8210    6.5610 O.2    14  TYR14      -0.2867
     30  CB        14.6530  -56.6460    4.4090 C.3    14  TYR14       0.0534
     31  CG        15.9460  -57.4230    4.2320 C.ar   14  TYR14      -0.0201
     32  CD1       16.5920  -57.9770    5.3250 C.ar   14  TYR14      -0.0009
     33  CD2       16.5250  -57.5990    2.9720 C.ar   14  TYR14      -0.0009
     34  CE1       17.7490  -58.6770    5.1950 C.ar   14  TYR14       0.0417
     35  CE2       17.7250  -58.3390    2.7980 C.ar   14  TYR14       0.0417
     36  CZ        18.3340  -58.8560    3.9310 C.ar   14  TYR14       0.1957
     37  OH        19.4780  -59.5770    3.8270 O.3    14  TYR14      -0.2866
     38  N         13.7060  -59.8070   12.9980 N.3    21  TYR21      -0.1241
     39  CA        15.0590  -59.7140   12.4190 C.3    21  TYR21       0.1605
     40  C         16.1510  -59.9690   13.4660 C.2    21  TYR21       0.2264
     41  O         17.0470  -60.7870   13.2340 O.2    21  TYR21      -0.2867
     42  CB        15.2840  -58.3400   11.7930 C.3    21  TYR21       0.0534
     43  CG        16.6780  -58.1580   11.2630 C.ar   21  TYR21      -0.0201
     44  CD1       17.0220  -58.6330    9.9970 C.ar   21  TYR21      -0.0009
     45  CD2       17.6640  -57.5120   12.0210 C.ar   21  TYR21      -0.0009
     46  CE1       18.3080  -58.4690    9.4840 C.ar   21  TYR21       0.0417
     47  CE2       18.9500  -57.3320   11.5200 C.ar   21  TYR21       0.0417
     48  CZ        19.2690  -57.8300   10.2500 C.ar   21  TYR21       0.1957
     49  OH        20.5300  -57.6710    9.7150 O.3    21  TYR21      -0.2866
     50  N         19.6080  -61.8300   13.5030 N.3    25  PHE25      -0.1227
     51  CA        20.6550  -60.8890   13.1250 C.3    25  PHE25       0.1736
     52  C         21.4410  -61.3790   11.8940 C.2    25  PHE25       0.2595
     53  O         20.8910  -62.1120   11.1010 O.2    25  PHE25      -0.2718
     54  CB        21.6400  -60.7110   14.2650 C.3    25  PHE25       0.0547
     55  CG        22.4980  -59.5000   14.1180 C.ar   25  PHE25      -0.0202
     56  CD1       21.9950  -58.3650   13.4790 C.ar   25  PHE25      -0.0042
     57  CD2       23.7810  -59.4550   14.6720 C.ar   25  PHE25      -0.0042
     58  CE1       22.7950  -57.2210   13.3310 C.ar   25  PHE25      -0.0003
     59  CE2       24.5810  -58.3000   14.5680 C.ar   25  PHE25      -0.0003
     60  CZ        24.0970  -57.1990   13.8790 C.ar   25  PHE25      -0.0000
     61  N         22.7050  -60.9670   11.7260 N.am   26  VAL26      -0.1980
     62  CA        23.5640  -61.4460   10.6120 C.3    26  VAL26       0.1595
     63  C         24.4290  -62.5330   11.1830 C.2    26  VAL26       0.2287
     64  O         25.0000  -62.3690   12.2520 O.2    26  VAL26      -0.2864
     65  CB        24.4010  -60.2660   10.0500 C.3    26  VAL26       0.0276
     66  CG1       25.6130  -60.7080    9.1140 C.3    26  VAL26       0.0022
     67  CG2       23.3990  -59.2310    9.4020 C.3    26  VAL26       0.0022
     68  N         23.9400  -43.1810    7.3760 N.3    51  GLU51      -0.1245
     69  CA        24.0370  -44.6450    7.4270 C.3    51  GLU51       0.1567
     70  C         23.1000  -45.1590    6.3900 C.2    51  GLU51       0.2260
     71  O         21.9760  -44.7050    6.3630 O.2    51  GLU51      -0.2867
     72  CB        23.5680  -45.2260    8.7590 C.3    51  GLU51       0.0388
     73  CG        23.5480  -46.7460    8.6890 C.3    51  GLU51       0.1160
     74  CD        23.2010  -47.4750    9.9890 C.2    51  GLU51       0.3649
     75  OE1       22.6450  -46.8520   10.9390 O.co2  51  GLU51      -0.2457
     76  OE2       23.5120  -48.7000   10.0620 O.co2  51  GLU51      -0.2457
     77  N         20.9610  -48.3990    4.6280 N.3    53  ALA53      -0.1231
     78  CA        20.4140  -49.6950    5.0430 C.3    53  ALA53       0.1694
     79  C         20.5270  -49.9620    6.5640 C.2    53  ALA53       0.2593
     80  O         20.9600  -51.0220    6.9990 O.2    53  ALA53      -0.2718
     81  CB        21.0430  -50.8170    4.1950 C.3    53  ALA53       0.0304
     82  N         20.0950  -49.0060    7.3880 N.am   54  SER54      -0.1938
     83  CA        20.2150  -49.1530    8.8350 C.3    54  SER54       0.2055
     84  C         19.3690  -50.2420    9.5510 C.2    54  SER54       0.2644
     85  O         19.6630  -50.5620   10.7130 O.2    54  SER54      -0.2714
     86  CB        19.9750  -47.8020    9.4730 C.3    54  SER54       0.2130
     87  OG        18.7630  -47.2690    9.0100 O.3    54  SER54      -0.2179
     88  N         18.3510  -50.8290    8.8860 N.am   55  GLY55      -0.1939
     89  CA        17.6930  -52.0420    9.4050 C.3    55  GLY55       0.2014
     90  C         17.0540  -51.7610   10.7580 C.2    55  GLY55       0.2639
     91  O         16.4520  -50.6840   10.9840 O.2    55  GLY55      -0.2714
     92  N         17.2260  -52.6970   11.6930 N.am   56  THR56      -0.1950
     93  CA        16.7620  -52.4430   13.0310 C.3    56  THR56       0.1897
     94  C         17.6370  -51.5970   13.9020 C.2    56  THR56       0.2313
     95  O         17.3560  -51.5170   15.1220 O.2    56  THR56      -0.2863
     96  CB        16.5660  -53.7310   13.8340 C.3    56  THR56       0.1794
     97  OG1       17.8220  -54.3810   14.0000 O.3    56  THR56      -0.2208
     98  CG2       15.5520  -54.6580   13.1420 C.3    56  THR56       0.0378
     99  N         21.1150  -51.7600   14.7420 N.3    58  TYR58      -0.1227
    100  CA        22.2700  -52.2470   15.4970 C.3    58  TYR58       0.1736
    101  C         23.4820  -51.3310   15.3410 C.2    58  TYR58       0.2595
    102  O         24.0840  -50.9110   16.3570 O.2    58  TYR58      -0.2718
    103  CB        22.6080  -53.6480   15.0430 C.3    58  TYR58       0.0548
    104  CG        23.8770  -54.2010   15.6820 C.ar   58  TYR58      -0.0200
    105  CD1       23.8000  -55.1420   16.7290 C.ar   58  TYR58      -0.0009
    106  CD2       25.1520  -53.7980   15.2300 C.ar   58  TYR58      -0.0009
    107  CE1       24.9420  -55.6430   17.3010 C.ar   58  TYR58       0.0417
    108  CE2       26.3040  -54.3070   15.7980 C.ar   58  TYR58       0.0417
    109  CZ        26.1910  -55.2260   16.8280 C.ar   58  TYR58       0.1957
    110  OH        27.3220  -55.7630   17.3960 O.3    58  TYR58      -0.2866
    111  N         23.8340  -50.9730   14.0960 N.am   59  TRP59      -0.1976
    112  CA        24.9780  -50.1190   13.8860 C.3    59  TRP59       0.1640
    113  C         24.6050  -48.6820   14.2190 C.2    59  TRP59       0.2290
    114  O         25.4600  -47.8620   14.6010 O.2    59  TRP59      -0.2864
    115  CB        25.5380  -50.2630   12.4540 C.3    59  TRP59       0.0576
    116  CG        26.1330  -51.6600   12.3120 C.ar   59  TRP59       0.0006
    117  CD1       25.5460  -52.7810   11.7510 C.ar   59  TRP59       0.0946
    118  CD2       27.4120  -52.0680   12.7860 C.ar   59  TRP59       0.0152
    119  NE1       26.4090  -53.8630   11.8660 N.ar   59  TRP59      -0.2442
    120  CE2       27.5560  -53.4470   12.4860 C.ar   59  TRP59       0.0810
    121  CE3       28.4840  -51.3790   13.4030 C.ar   59  TRP59       0.0012
    122  CZ2       28.7130  -54.1720   12.8230 C.ar   59  TRP59       0.0191
    123  CZ3       29.6310  -52.1080   13.7640 C.ar   59  TRP59       0.0001
    124  CH2       29.7400  -53.4750   13.4540 C.ar   59  TRP59       0.0015
    125  N         16.6350  -46.4110    5.1370 N.3    74  ASP74      -0.1225
    126  CA        16.3510  -47.8220    4.8840 C.3    74  ASP74       0.1805
    127  C         15.1820  -47.9300    3.8920 C.2    74  ASP74       0.2598
    128  O         14.3220  -47.0660    3.8120 O.2    74  ASP74      -0.2718
    129  CB        16.0530  -48.6270    6.1690 C.3    74  ASP74       0.1424
    130  CG        16.0850  -50.1320    5.9160 C.2    74  ASP74       0.3668
    131  OD1       17.1170  -50.7830    6.1720 O.co2  74  ASP74      -0.2456
    132  OD2       15.1180  -50.6960    5.3750 O.co2  74  ASP74      -0.2456
    133  N         15.1370  -48.9980    3.1250 N.am   75  GLY75      -0.1942
    134  CA        14.0260  -49.0790    2.1770 C.3    75  GLY75       0.2014
    135  C         12.7260  -49.4900    2.8690 C.2    75  GLY75       0.2639
    136  O         11.6650  -49.3920    2.2710 O.2    75  GLY75      -0.2714
    137  N         12.7930  -49.9330    4.1260 N.am   76  SER76      -0.1949
    138  CA        11.6320  -50.5150    4.8070 C.3    76  SER76       0.1924
    139  C         11.1110  -49.7140    6.0260 C.2    76  SER76       0.2314
    140  O         11.8270  -49.5410    7.0420 O.2    76  SER76      -0.2863
    141  CB        11.9230  -51.9720    5.1780 C.3    76  SER76       0.2116
    142  OG        11.2000  -52.3640    6.3340 O.3    76  SER76      -0.2180
    143  N         11.3850  -51.5610    9.1600 N.3    79  MET79      -0.1245
    144  CA        12.6990  -51.6270    9.7730 C.3    79  MET79       0.1570
    145  C         12.8280  -50.3340   10.5280 C.2    79  MET79       0.2261
    146  O         13.3040  -50.2860   11.6490 O.2    79  MET79      -0.2867
    147  CB        13.8250  -51.7440    8.7180 C.3    79  MET79       0.0387
    148  CG        14.0640  -53.1770    8.1630 C.3    79  MET79       0.0595
    149  SD        14.6050  -54.3390    9.4550 S.3    79  MET79      -0.1393
    150  CE        15.0890  -55.7500    8.4660 C.3    79  MET79       0.0692
    151  N         13.8700  -44.9010    1.9780 N.3    96  GLN96      -0.1231
    152  CA        14.5250  -44.5520    0.7220 C.3    96  GLN96       0.1698
    153  C         14.9070  -45.8300    0.0630 C.2    96  GLN96       0.2592
    154  O         15.5320  -46.7000    0.7070 O.2    96  GLN96      -0.2718
    155  CB        15.8250  -43.7690    0.9620 C.3    96  GLN96       0.0381
    156  CG        16.6880  -43.4850   -0.3280 C.3    96  GLN96       0.0905
    157  CD        15.9960  -42.5430   -1.3860 C.2    96  GLN96       0.2608
    158  OE1       15.6580  -41.4160   -1.0600 O.2    96  GLN96      -0.2717
    159  NE2       15.8480  -43.0010   -2.6470 N.am   96  GLN96      -0.0878
    160  N         14.5520  -45.9330   -1.2120 N.am   97  ASP97      -0.1960
    161  CA        14.9380  -47.0410   -1.9950 C.3    97  ASP97       0.1840
    162  C         16.3250  -46.7240   -2.4970 C.2    97  ASP97       0.2622
    163  O         16.5210  -45.6860   -3.1570 O.2    97  ASP97      -0.2715
    164  CB        13.9800  -47.2270   -3.1720 C.3    97  ASP97       0.1450
    165  CG        14.4560  -48.3000   -4.1290 C.2    97  ASP97       0.3671
    166  OD1       15.5140  -48.9760   -3.9060 O.co2  97  ASP97      -0.2456
    167  OD2       13.7860  -48.4710   -5.1460 O.co2  97  ASP97      -0.2456
    168  N         17.3060  -47.5660   -2.1540 N.am   98  LEU98      -0.1963
    169  CA        18.7020  -47.2360   -2.4280 C.3    98  LEU98       0.1728
    170  C         19.0930  -47.5270   -3.8810 C.2    98  LEU98       0.2616
    171  O         20.1380  -47.0890   -4.3160 O.2    98  LEU98      -0.2715
    172  CB        19.6600  -47.9170   -1.4200 C.3    98  LEU98       0.0311
    173  CG        19.7090  -47.2780   -0.0010 C.3    98  LEU98       0.0022
    174  CD1       20.4750  -48.1300    1.0810 C.3    98  LEU98       0.0001
    175  CD2       20.2570  -45.8380   -0.0480 C.3    98  LEU98       0.0001
    176  N         18.2670  -48.2470   -4.6420 N.am   99  PHE99      -0.1974
    177  CA        18.5380  -48.4110   -6.0750 C.3    99  PHE99       0.1639
    178  C         17.9460  -47.2900   -6.9230 C.2    99  PHE99       0.2290
    179  O         18.0840  -47.3060   -8.1360 O.2    99  PHE99      -0.2864
    180  CB        18.1130  -49.8000   -6.6190 C.3    99  PHE99       0.0560
    181  CG        18.8680  -50.9100   -5.9840 C.ar   99  PHE99      -0.0200
    182  CD1       20.2570  -50.9470   -6.0890 C.ar   99  PHE99      -0.0042
    183  CD2       18.2090  -51.8480   -5.1620 C.ar   99  PHE99      -0.0042
    184  CE1       21.0030  -51.9240   -5.4340 C.ar   99  PHE99      -0.0003
    185  CE2       18.9300  -52.8610   -4.5050 C.ar   99  PHE99      -0.0003
    186  CZ        20.3360  -52.9230   -4.6430 C.ar   99  PHE99      -0.0000
    187  N         26.5800  -51.4480    6.9550 N.3   113  ALA113     -0.1231
    188  CA        26.9810  -52.8020    7.3780 C.3   113  ALA113      0.1694
    189  C         26.1120  -53.8090    6.6230 C.2   113  ALA113      0.2592
    190  O         24.9000  -53.6650    6.6080 O.2   113  ALA113     -0.2718
    191  CB        26.7690  -52.9770    8.8570 C.3   113  ALA113      0.0304
    192  N         26.7430  -54.8100    6.0060 N.am  114  HIS114     -0.1962
    193  CA        26.0550  -55.8380    5.2710 C.3   114  HIS114      0.1787
    194  C         25.0370  -55.3630    4.2470 C.2   114  HIS114      0.2620
    195  O         24.0100  -56.0060    4.0780 O.2   114  HIS114     -0.2715
    196  CB        25.4170  -56.8410    6.2420 C.3   114  HIS114      0.0785
    197  CG        26.4320  -57.6360    6.9470 C.ar  114  HIS114      0.0821
    198  ND1       26.9190  -57.2750    8.1880 N.ar  114  HIS114     -0.2267
    199  CD2       27.1850  -58.6850    6.5190 C.ar  114  HIS114      0.1154
    200  CE1       27.8880  -58.1170    8.5250 C.ar  114  HIS114      0.1986
    201  NE2       28.0700  -58.9760    7.5290 N.ar  114  HIS114     -0.2212
    202  N         25.2930  -54.2510    3.5970 N.am  115  TRP115     -0.1974
    203  CA        24.4340  -53.7840    2.5200 C.3   115  TRP115      0.1640
    204  C         25.0510  -54.1340    1.1570 C.2   115  TRP115      0.2290
    205  O         24.3820  -54.6720    0.2570 O.2   115  TRP115     -0.2864
    206  CB        24.1900  -52.2900    2.6490 C.3   115  TRP115      0.0576
    207  CG        23.6380  -51.7420    1.3880 C.ar  115  TRP115      0.0006
    208  CD1       24.2280  -50.8360    0.5570 C.ar  115  TRP115      0.0946
    209  CD2       22.4080  -52.1290    0.7580 C.ar  115  TRP115      0.0152
    210  NE1       23.4110  -50.6000   -0.5370 N.ar  115  TRP115     -0.2442
    211  CE2       22.2870  -51.3760   -0.4280 C.ar  115  TRP115      0.0810
    212  CE3       21.3670  -53.0030    1.1150 C.ar  115  TRP115      0.0012
    213  CZ2       21.1880  -51.5070   -1.2970 C.ar  115  TRP115      0.0191
    214  CZ3       20.2860  -53.1050    0.2830 C.ar  115  TRP115      0.0001
    215  CH2       20.2140  -52.3660   -0.9320 C.ar  115  TRP115      0.0015
    216  N         24.2740  -57.1630   -1.0880 N.3   118  HIS118     -0.1241
    217  CA        22.8890  -57.2130   -1.6130 C.3   118  HIS118      0.1621
    218  C         22.7320  -56.2820   -2.8290 C.2   118  HIS118      0.2264
    219  O         21.6040  -56.1080   -3.3340 O.2   118  HIS118     -0.2867
    220  CB        21.9210  -56.7950   -0.5000 C.3   118  HIS118      0.0745
    221  CG        22.0020  -57.6790    0.7020 C.ar  118  HIS118      0.0817
    222  ND1       21.8470  -59.0470    0.6230 N.ar  118  HIS118     -0.2268
    223  CD2       22.3270  -57.4130    1.9840 C.ar  118  HIS118      0.1154
    224  CE1       22.0030  -59.5800    1.8210 C.ar  118  HIS118      0.1986
    225  NE2       22.2800  -58.6090    2.6710 N.ar  118  HIS118     -0.2212
@<TRIPOS>BOND
     1   179   178    2
     2     6     5    1
     3     6     8    1
     4     5     7    1
     5     5     2    1
     6     1     2    1
     7   178   177    1
     8   180   177    1
     9   180   181    1
    10     2     3    1
    11   182   181   ar
    12   182   184   ar
    13   177   176    1
    14   181   183   ar
    15   184   186   ar
    16     3     4    2
    17   183   185   ar
    18   167   165   ar
    19   186   185   ar
    20   176   170   am
    21   171   170    2
    22   165   166   ar
    23   165   164    1
    24   170   169    1
    25   219   218    2
    26   164   161    1
    27   163   162    2
    28   218   217    1
    29   159   157   am
    30     9    10    1
    31   162   168   am
    32   162   161    1
    33   169   168    1
    34   169   172    1
    35    17    15   am
    36    13    10    1
    37    13    14    1
    38   161   160    1
    39    15    16    2
    40    15    14    1
    41   217   216    1
    42   217   220    1
    43    10    11    1
    44   172   173    1
    45   157   158    2
    46   157   156    1
    47   213   215   ar
    48   213   211   ar
    49   160   153   am
    50    18    11   am
    51    18    19    1
    52    25    23    1
    53   215   214   ar
    54    22    19    1
    55    22    23    1
    56   210   211   ar
    57   210   208   ar
    58    11    12    2
    59   220   221    1
    60   211   209   ar
    61   156   155    1
    62    19    20    1
    63    23    24    1
    64   175   173    1
    65   173   174    1
    66   153   154    2
    67   153   152    1
    68   205   204    2
    69   214   212   ar
    70   208   207   ar
    71    20    21    2
    72   222   221   ar
    73   222   224   ar
    74   221   223   ar
    75   152   155    1
    76   152   151    1
    77   209   212   ar
    78   209   207   ar
    79   204   203    1
    80   207   206    1
    81   224   225   ar
    82   223   225   ar
    83   134   135    1
    84   134   133    1
    85   136   135    2
    86   203   206    1
    87   203   202    1
    88    35    33   ar
    89    35    36   ar
    90   135   137   am
    91    33    31   ar
    92   133   127   am
    93    26    27    1
    94   202   194   am
    95   128   127    2
    96    37    36    1
    97   127   126    1
    98    36    34   ar
    99   195   194    2
   100   137   138    1
   101    81    78    1
   102    31    30    1
   103    31    32   ar
   104   194   193    1
   105    30    27    1
   106    77    78    1
   107    27    28    1
   108   138   141    1
   109   138   139    1
   110   126   125    1
   111   126   129    1
   112    78    79    1
   113   141   142    1
   114    34    32   ar
   115   193   192    1
   116   193   196    1
   117    28    29    2
   118   132   130   ar
   119   130   129    1
   120   130   131   ar
   121   192   189   am
   122   139   140    2
   123   196   197    1
   124    71    70    2
   125    70    69    1
   126   199   197   ar
   127   199   201   ar
   128    79    80    2
   129    79    82   am
   130   190   189    2
   131   189   188    1
   132   197   198   ar
   133   187   188    1
   134    68    69    1
   135   188   191    1
   136    82    83    1
   137    69    72    1
   138   201   200   ar
   139   148   147    1
   140   148   149    1
   141   198   200   ar
   142   150   149    1
   143    73    72    1
   144    73    74    1
   145   147   144    1
   146    83    86    1
   147    83    84    1
   148    88    89    1
   149    88    84   am
   150    87    86    1
   151    66    65    1
   152   143   144    1
   153    67    65    1
   154    89    90    1
   155    46    44   ar
   156    46    48   ar
   157    84    85    2
   158    49    48    1
   159   144   145    1
   160    74    76   ar
   161    74    75   ar
   162    44    43   ar
   163    65    62    1
   164    48    47   ar
   165   145   146    2
   166    62    63    1
   167    62    61    1
   168    90    91    2
   169    90    92   am
   170    53    52    2
   171    63    64    2
   172    43    42    1
   173    43    45   ar
   174    47    45   ar
   175    92    93    1
   176    61    52   am
   177   117   119   ar
   178   117   116   ar
   179    42    39    1
   180   119   120   ar
   181    52    51    1
   182   116   115    1
   183   116   118   ar
   184    39    38    1
   185    39    40    1
   186   115   112    1
   187   120   118   ar
   188   120   122   ar
   189   118   121   ar
   190   122   124   ar
   191    93    96    1
   192    93    94    1
   193    51    50    1
   194    51    54    1
   195    98    96    1
   196    41    40    2
   197    58    56   ar
   198    58    60   ar
   199   121   123   ar
   200   124   123   ar
   201    56    55   ar
   202    96    97    1
   203    60    59   ar
   204   112   111    1
   205   112   113    1
   206    94    95    2
   207   111   101   am
   208    55    54    1
   209    55    57   ar
   210   113   114    2
   211    59    57   ar
   212    99   100    1
   213   103   100    1
   214   103   104    1
   215   106   104   ar
   216   106   108   ar
   217   101   100    1
   218   101   102    2
   219   104   105   ar
   220   108   109   ar
   221   105   107   ar
   222   109   107   ar
   223   109   110    1
