@<TRIPOS>MOLECULE
tmp/3oubB00.pdb
 109 102 0 0 0
SMALL
GASTEIGER

@<TRIPOS>ATOM
      1  N          6.3170  -14.0380   -0.7830 N.3     8  ARG8       -0.1245
      2  CA         5.1490  -14.5580   -1.5020 C.3     8  ARG8        0.1563
      3  C          5.5880  -15.5060   -2.6100 C.2     8  ARG8        0.2260
      4  O          6.4940  -15.1650   -3.3830 O.2     8  ARG8       -0.2867
      5  CB         4.3480  -13.4100   -2.1030 C.3     8  ARG8        0.0307
      6  CG         3.7000  -12.5450   -1.0630 C.3     8  ARG8        0.0489
      7  CD         2.8800  -11.4360   -1.6740 C.3     8  ARG8        0.2205
      8  NE         2.2830  -10.6250   -0.6150 N.pl3   8  ARG8       -0.0865
      9  CZ         1.7050   -9.4370   -0.7980 C.cat   8  ARG8        0.5346
     10  NH1        1.6300   -8.9000   -2.0130 N.pl3   8  ARG8        0.1354
     11  NH2        1.2030   -8.7840    0.2410 N.pl3   8  ARG8        0.1354
     12  N          0.5180  -16.2190   -8.0430 N.3    23  LEU23      -0.1245
     13  CA         0.7860  -16.6250   -6.6670 C.3    23  LEU23       0.1561
     14  C          0.3050  -18.0610   -6.4140 C.2    23  LEU23       0.2260
     15  O         -0.8730  -18.3520   -6.6400 O.2    23  LEU23      -0.2867
     16  CB         0.0110  -15.6860   -5.7490 C.3    23  LEU23       0.0270
     17  CG         0.0840  -15.9100   -4.2350 C.3    23  LEU23       0.0019
     18  CD1        1.4780  -15.6370   -3.7770 C.3    23  LEU23       0.0001
     19  CD2       -0.9250  -14.9980   -3.5580 C.3    23  LEU23       0.0001
     20  N         -1.2620  -20.4250   -4.2780 N.3    25  ASN25      -0.1240
     21  CA        -2.1390  -20.1010   -3.1550 C.3    25  ASN25       0.1653
     22  C         -2.9170  -21.3120   -2.6550 C.2    25  ASN25       0.2266
     23  O         -3.9730  -21.6690   -3.2050 O.2    25  ASN25      -0.2867
     24  CB        -3.0980  -18.9810   -3.5820 C.3    25  ASN25       0.1155
     25  CG        -3.9130  -18.4300   -2.4270 C.2    25  ASN25       0.2627
     26  OD1       -3.9850  -19.0290   -1.3570 O.2    25  ASN25      -0.2716
     27  ND2       -4.5360  -17.2950   -2.6500 N.am   25  ASN25      -0.0877
     28  N         -4.6160  -21.5520   -0.0960 N.3    27  GLY27      -0.1210
     29  CA        -5.9140  -21.1320    0.4480 C.3    27  GLY27       0.1956
     30  C         -7.0000  -20.9510   -0.5930 C.2    27  GLY27       0.2612
     31  O         -8.1490  -20.7060   -0.2410 O.2    27  GLY27      -0.2717
     32  N         -6.6400  -21.0630   -1.8690 N.am   28  ALA28      -0.1965
     33  CA        -7.6050  -20.8690   -2.9490 C.3    28  ALA28       0.1728
     34  C         -7.9820  -22.1940   -3.5920 C.2    28  ALA28       0.2616
     35  O         -7.0930  -22.9260   -4.0190 O.2    28  ALA28      -0.2715
     36  CB        -7.0150  -19.9410   -4.0060 C.3    28  ALA28       0.0334
     37  N         -9.2870  -22.4650   -3.7030 N.am   29  ASP29      -0.1957
     38  CA        -9.7470  -23.7160   -4.3450 C.3    29  ASP29       0.1840
     39  C         -9.4480  -23.6640   -5.8400 C.2    29  ASP29       0.2622
     40  O         -9.0870  -24.6690   -6.4490 O.2    29  ASP29      -0.2715
     41  CB       -11.2600  -23.9220   -4.1860 C.3    29  ASP29       0.1450
     42  CG       -11.7030  -24.0740   -2.7430 C.2    29  ASP29       0.3671
     43  OD1      -12.9400  -23.9450   -2.5580 O.co2  29  ASP29      -0.2456
     44  OD2      -10.8800  -24.3310   -1.8280 O.co2  29  ASP29      -0.2456
     45  N         -9.6180  -22.4800   -6.4260 N.am   30  ASP30      -0.1971
     46  CA        -9.5930  -22.3210   -7.8790 C.3    30  ASP30       0.1709
     47  C         -8.4820  -21.3810   -8.3380 C.2    30  ASP30       0.2293
     48  O         -7.9460  -20.5920   -7.5520 O.2    30  ASP30      -0.2864
     49  CB       -10.9430  -21.7930   -8.3800 C.3    30  ASP30       0.1436
     50  CG       -12.1030  -22.6070   -7.8820 C.2    30  ASP30       0.3671
     51  OD1      -13.0630  -21.9960   -7.3710 O.co2  30  ASP30      -0.2456
     52  OD2      -12.0570  -23.8520   -7.9710 O.co2  30  ASP30      -0.2456
     53  N         -7.4980  -18.2120  -10.6600 N.3    32  VAL32      -0.1245
     54  CA        -8.1400  -17.0230  -11.2380 C.3    32  VAL32       0.1561
     55  C         -7.0510  -16.1310  -11.8160 C.2    32  VAL32       0.2260
     56  O         -6.0860  -15.7710  -11.1230 O.2    32  VAL32      -0.2867
     57  CB        -8.9590  -16.2270  -10.2010 C.3    32  VAL32       0.0252
     58  CG1       -9.6680  -15.0790  -10.8980 C.3    32  VAL32       0.0019
     59  CG2       -9.9960  -17.0990   -9.5200 C.3    32  VAL32       0.0019
     60  N        -19.3110  -18.0690  -14.1330 N.3    45  LYS45      -0.1231
     61  CA       -19.2540  -18.6650  -12.8020 C.3    45  LYS45       0.1693
     62  C        -19.2230  -17.5320  -11.7920 C.2    45  LYS45       0.2592
     63  O        -18.5050  -16.5490  -11.9780 O.2    45  LYS45      -0.2718
     64  CB       -18.0090  -19.5470  -12.6380 C.3    45  LYS45       0.0285
     65  CG       -17.8430  -20.1900  -11.2390 C.3    45  LYS45       0.0035
     66  CD       -16.5480  -21.0010  -11.1620 C.3    45  LYS45       0.0206
     67  CE       -16.3500  -21.6970   -9.8180 C.3    45  LYS45       0.1093
     68  NZ       -17.3890  -22.7220   -9.5240 N.3    45  LYS45      -0.1314
     69  N        -20.0040  -17.6730  -10.7250 N.am   46  LEU46      -0.1966
     70  CA       -19.9530  -16.7410   -9.5990 C.3    46  LEU46       0.1728
     71  C        -18.9880  -17.2480   -8.5400 C.2    46  LEU46       0.2616
     72  O        -19.0740  -18.3970   -8.0910 O.2    46  LEU46      -0.2715
     73  CB       -21.3490  -16.5410   -9.0000 C.3    46  LEU46       0.0311
     74  CG       -22.3910  -15.8810   -9.9040 C.3    46  LEU46       0.0022
     75  CD1      -23.7240  -15.7750   -9.1680 C.3    46  LEU46       0.0001
     76  CD2      -21.9510  -14.5120  -10.4010 C.3    46  LEU46       0.0001
     77  N        -18.0440  -16.4000   -8.1570 N.am   47  ILE47      -0.1963
     78  CA       -17.0850  -16.7660   -7.1100 C.3    47  ILE47       0.1727
     79  C        -17.0730  -15.7290   -5.9920 C.2    47  ILE47       0.2616
     80  O        -17.8270  -14.7480   -6.0360 O.2    47  ILE47      -0.2715
     81  CB       -15.6510  -17.0810   -7.6770 C.3    47  ILE47       0.0290
     82  CG1      -15.0290  -15.8610   -8.3670 C.3    47  ILE47       0.0022
     83  CG2      -15.6980  -18.3300   -8.5860 C.3    47  ILE47       0.0023
     84  CD1      -13.5260  -16.0040   -8.6870 C.3    47  ILE47       0.0001
     85  N        -16.2400  -15.9670   -4.9760 N.am   48  GLY48      -0.1955
     86  CA       -16.2070  -15.1000   -3.8020 C.3    48  GLY48       0.1869
     87  C        -17.4850  -15.3320   -3.0260 C.2    48  GLY48       0.2309
     88  O        -17.8320  -16.4820   -2.7260 O.2    48  GLY48      -0.2863
     89  N         -7.3370   -9.1280   -7.7490 N.3    81  PRO81      -0.2102
     90  CA        -6.2630   -8.2890   -7.2550 C.3    81  PRO81       0.1504
     91  C         -4.8790   -8.8730   -7.5480 C.2    81  PRO81       0.2576
     92  O         -3.9340   -8.1270   -7.7840 O.2    81  PRO81      -0.2718
     93  CB        -6.5410   -8.2230   -5.7500 C.3    81  PRO81       0.0282
     94  CG        -8.0160   -8.4360   -5.6340 C.3    81  PRO81       0.0208
     95  CD        -8.2950   -9.4830   -6.6870 C.3    81  PRO81       0.0893
     96  N         -4.7650  -10.2010   -7.5460 N.am   82  THR82      -0.1953
     97  CA        -3.4870  -10.8730   -7.7580 C.3    82  THR82       0.1897
     98  C         -3.7670  -12.1450   -8.5760 C.2    82  THR82       0.2313
     99  O         -4.7440  -12.8260   -8.2880 O.2    82  THR82      -0.2863
    100  CB        -2.8620  -11.2560   -6.3830 C.3    82  THR82       0.1794
    101  OG1       -1.8050  -12.1970   -6.5630 O.3    82  THR82      -0.2208
    102  CG2       -3.9110  -11.8730   -5.4800 C.3    82  THR82       0.0378
    103  N         -3.8250  -15.8280   -9.3180 N.3    84  VAL84      -0.1245
    104  CA        -3.7520  -16.8990   -8.3180 C.3    84  VAL84       0.1561
    105  C         -3.7670  -18.2940   -8.9410 C.2    84  VAL84       0.2260
    106  O         -4.6600  -18.5960   -9.7390 O.2    84  VAL84      -0.2867
    107  CB        -4.9230  -16.7750   -7.3300 C.3    84  VAL84       0.0252
    108  CG1       -5.0450  -18.0170   -6.4690 C.3    84  VAL84       0.0019
    109  CG2       -4.7470  -15.5420   -6.4520 C.3    84  VAL84       0.0019
@<TRIPOS>BOND
     1    60    61    1
     2    61    64    1
     3    61    62    1
     4    64    65    1
     5    63    62    2
     6    55    54    1
     7    55    56    2
     8    62    69   am
     9    65    66    1
    10    54    53    1
    11    54    57    1
    12    66    67    1
    13    58    57    1
    14    69    70    1
    15    76    74    1
    16    57    59    1
    17    74    75    1
    18    74    73    1
    19    67    68    1
    20   106   105    2
    21    70    73    1
    22    70    71    1
    23   103   104    1
    24   105   104    1
    25    84    82    1
    26    83    81    1
    27    98    99    2
    28    98    97    1
    29    71    77   am
    30    71    72    2
    31    49    50    1
    32    49    46    1
    33    82    81    1
    34    47    46    1
    35    47    48    2
    36   104   107    1
    37    77    78    1
    38    12    13    1
    39    52    50   ar
    40    50    51   ar
    41    46    45    1
    42    92    91    2
    43    97    96    1
    44    97   100    1
    45    89    90    1
    46    89    95    1
    47    81    78    1
    48    91    96   am
    49    91    90    1
    50   107   108    1
    51   107   109    1
    52    90    93    1
    53    78    79    1
    54    95    94    1
    55    13    14    1
    56    13    16    1
    57    15    14    2
    58   101   100    1
    59    40    39    2
    60    45    39   am
    61   100   102    1
    62    80    79    2
    63    79    85   am
    64    39    38    1
    65    93    94    1
    66    16    17    1
    67    85    86    1
    68    38    41    1
    69    38    37    1
    70    20    21    1
    71    17    18    1
    72    17    19    1
    73    41    42    1
    74    35    34    2
    75    36    33    1
    76    86    87    1
    77    37    34   am
    78    34    33    1
    79    24    21    1
    80    24    25    1
    81     4     3    2
    82    23    22    2
    83    21    22    1
    84    87    88    2
    85    33    32    1
    86    42    43   ar
    87    42    44   ar
    88    27    25   am
    89     3     2    1
    90    25    26    2
    91     5     2    1
    92     5     6    1
    93    10     9    1
    94    32    30   am
    95     7     6    1
    96     7     8    1
    97     2     1    1
    98     9     8    2
    99     9    11    1
   100    30    31    2
   101    30    29    1
   102    28    29    1
