@<TRIPOS>MOLECULE
tmp/3oudA00.pdb
 103 95 0 0 0
SMALL
GASTEIGER

@<TRIPOS>ATOM
      1  N         -8.7430   28.9760   -0.8210 N.3     8  ARG8       -0.1245
      2  CA        -8.1770   27.7910   -1.5290 C.3     8  ARG8        0.1563
      3  C         -7.2670   28.2560   -2.6660 C.2     8  ARG8        0.2260
      4  O         -7.6050   29.2300   -3.4100 O.2     8  ARG8       -0.2867
      5  CB        -9.2910   26.9020   -2.0930 C.3     8  ARG8        0.0307
      6  CG       -10.1960   26.3450   -1.0360 C.3     8  ARG8        0.0489
      7  CD       -11.2620   25.4720   -1.6730 C.3     8  ARG8        0.2205
      8  NE       -12.0430   24.8220   -0.6150 N.pl3   8  ARG8       -0.0865
      9  CZ       -13.2640   24.3190   -0.7850 C.cat   8  ARG8        0.5346
     10  NH1      -13.8410   24.3970   -1.9840 N.pl3   8  ARG8        0.1354
     11  NH2      -13.9070   23.7540    0.2370 N.pl3   8  ARG8        0.1354
     12  N         -6.5690   23.2700   -8.2280 N.3    23  LEU23      -0.1245
     13  CA        -6.1490   23.5250   -6.8540 C.3    23  LEU23       0.1561
     14  C         -4.7090   23.0400   -6.6410 C.2    23  LEU23       0.2260
     15  O         -4.4110   21.8440   -6.9220 O.2    23  LEU23      -0.2867
     16  CB        -7.0680   22.7560   -5.9250 C.3    23  LEU23       0.0270
     17  CG        -6.8210   22.7800   -4.4170 C.3    23  LEU23       0.0019
     18  CD1       -6.9860   24.1840   -3.8190 C.3    23  LEU23       0.0001
     19  CD2       -7.7290   21.8100   -3.6920 C.3    23  LEU23       0.0001
     20  N         -2.3080   21.5060   -4.5260 N.3    25  ASN25      -0.1240
     21  CA        -2.6570   20.6000   -3.4440 C.3    25  ASN25       0.1653
     22  C         -1.4290   19.8110   -2.9700 C.2    25  ASN25       0.2266
     23  O         -1.1050   18.7620   -3.5280 O.2    25  ASN25      -0.2867
     24  CB        -3.7650   19.6270   -3.8790 C.3    25  ASN25       0.1155
     25  CG        -4.3100   18.7990   -2.7070 C.2    25  ASN25       0.2627
     26  OD1       -3.7000   18.7340   -1.6530 O.2    25  ASN25      -0.2716
     27  ND2       -5.4930   18.2240   -2.8730 N.am   25  ASN25      -0.0877
     28  N         -1.1770   18.0760   -0.4570 N.3    27  GLY27      -0.1210
     29  CA        -1.5620   16.8030    0.1070 C.3    27  GLY27       0.1956
     30  C         -1.7610   15.7250   -0.9440 C.2    27  GLY27       0.2612
     31  O         -1.9950   14.5770   -0.5940 O.2    27  GLY27      -0.2717
     32  N         -1.6590   16.0910   -2.2240 N.am   28  ALA28      -0.1965
     33  CA        -1.8420   15.1580   -3.3280 C.3    28  ALA28       0.1728
     34  C         -0.5210   14.7730   -3.9450 C.2    28  ALA28       0.2616
     35  O          0.2140   15.6420   -4.3770 O.2    28  ALA28      -0.2715
     36  CB        -2.7410   15.7750   -4.4350 C.3    28  ALA28       0.0334
     37  N         -0.2570   13.4650   -4.0750 N.am   29  ASP29      -0.1957
     38  CA         0.9710   13.0370   -4.8150 C.3    29  ASP29       0.1840
     39  C          0.9180   13.3720   -6.3160 C.2    29  ASP29       0.2622
     40  O          1.9190   13.7640   -6.9140 O.2    29  ASP29      -0.2715
     41  CB         1.1600   11.5110   -4.6850 C.3    29  ASP29       0.1450
     42  CG         1.2890   11.0310   -3.2290 C.2    29  ASP29       0.3671
     43  OD1        1.1020    9.7990   -3.0230 O.co2  29  ASP29      -0.2456
     44  OD2        1.5970   11.8240   -2.2950 O.co2  29  ASP29      -0.2456
     45  N         -0.2560   13.2090   -6.9220 N.am   30  ASP30      -0.1971
     46  CA        -0.4150   13.2500   -8.3750 C.3    30  ASP30       0.1709
     47  C         -1.3730   14.3430   -8.8030 C.2    30  ASP30       0.2293
     48  O         -2.1530   14.8850   -7.9790 O.2    30  ASP30      -0.2864
     49  CB        -0.9670   11.9010   -8.8460 C.3    30  ASP30       0.1436
     50  CG        -0.0980   10.7500   -8.4090 C.2    30  ASP30       0.3671
     51  OD1       -0.6340    9.7590   -7.8590 O.co2  30  ASP30      -0.2456
     52  OD2        1.1150   10.8810   -8.5560 O.co2  30  ASP30      -0.2456
     53  N         -4.5820   15.3690  -11.0220 N.3    32  VAL32      -0.1245
     54  CA        -5.7600   14.7110  -11.6240 C.3    32  VAL32       0.1561
     55  C         -6.6560   15.7860  -12.1920 C.2    32  VAL32       0.2260
     56  O         -7.0190   16.7510  -11.4950 O.2    32  VAL32      -0.2867
     57  CB        -6.5680   13.8680  -10.6200 C.3    32  VAL32       0.0252
     58  CG1       -7.6950   13.1190  -11.3980 C.3    32  VAL32       0.0019
     59  CG2       -5.6600   12.8980   -9.8940 C.3    32  VAL32       0.0019
     60  N         -6.1450    4.7170   -8.6890 N.3    47  ILE47      -0.1245
     61  CA        -5.8530    5.6740   -7.6400 C.3    47  ILE47       0.1561
     62  C         -6.9140    5.6440   -6.5590 C.2    47  ILE47       0.2260
     63  O         -7.8640    4.8640   -6.6270 O.2    47  ILE47      -0.2867
     64  CB        -5.6490    7.1140   -8.1980 C.3    47  ILE47       0.0252
     65  CG1       -6.9120    7.6630   -8.8590 C.3    47  ILE47       0.0019
     66  CG2       -4.4340    7.1680   -9.1660 C.3    47  ILE47       0.0019
     67  CD1       -6.8040    9.2190   -9.1470 C.3    47  ILE47       0.0001
     68  N         -9.5010    3.9860   -0.9270 N.3    50  ILE50      -0.1245
     69  CA       -10.4540    3.8960    0.1840 C.3    50  ILE50       0.1561
     70  C        -11.8910    3.7750   -0.3660 C.2    50  ILE50       0.2260
     71  O        -12.3390    4.6260   -1.1210 O.2    50  ILE50      -0.2867
     72  CB       -10.2530    5.0700    1.2020 C.3    50  ILE50       0.0252
     73  CG1       -8.7720    5.1620    1.6010 C.3    50  ILE50       0.0019
     74  CG2      -11.0600    4.8370    2.4410 C.3    50  ILE50       0.0019
     75  CD1       -8.3820    6.4320    2.3990 C.3    50  ILE50       0.0001
     76  N        -12.8580   13.9320  -11.1220 N.3    80  THR80      -0.1204
     77  CA       -12.3440   14.3690   -9.8490 C.3    80  THR80       0.1979
     78  C        -13.2590   15.4470   -9.3650 C.2    80  THR80       0.2460
     79  O        -13.7020   16.2780  -10.1710 O.2    80  THR80      -0.2732
     80  CB       -10.8400   14.8320   -9.9270 C.3    80  THR80       0.1783
     81  OG1      -10.4140   15.3480   -8.6550 O.3    80  THR80      -0.2211
     82  CG2      -10.6240   15.8640  -11.0240 C.3    80  THR80       0.0376
     83  N        -13.5570   15.4430   -8.0510 N.am   81  PRO81      -0.2717
     84  CA       -14.4120   16.4970   -7.5290 C.3    81  PRO81       0.1535
     85  C        -13.9040   17.8920   -7.8440 C.2    81  PRO81       0.2599
     86  O        -14.7000   18.7580   -8.1530 O.2    81  PRO81      -0.2715
     87  CB       -14.4440   16.2150   -6.0230 C.3    81  PRO81       0.0310
     88  CG       -14.1700   14.7590   -5.9070 C.3    81  PRO81       0.0237
     89  CD       -13.1510   14.4970   -6.9950 C.3    81  PRO81       0.0939
     90  N        -12.5900   18.1230   -7.7830 N.am   82  THR82      -0.1951
     91  CA       -12.0230   19.4260   -8.1810 C.3    82  THR82       0.1897
     92  C        -10.6740   19.1200   -8.8550 C.2    82  THR82       0.2313
     93  O        -10.0310   18.1550   -8.4630 O.2    82  THR82      -0.2863
     94  CB       -11.8290   20.3780   -6.9560 C.3    82  THR82       0.1794
     95  OG1      -11.0670   21.5480   -7.3300 O.3    82  THR82      -0.2208
     96  CG2      -11.1140   19.6410   -5.8190 C.3    82  THR82       0.0378
     97  N         -6.9320   18.9520   -9.6270 N.3    84  VAL84      -0.1245
     98  CA        -5.8800   19.0260   -8.5920 C.3    84  VAL84       0.1561
     99  C         -4.5180   19.0270   -9.2620 C.2    84  VAL84       0.2260
    100  O         -4.2540   18.1530  -10.0580 O.2    84  VAL84      -0.2867
    101  CB        -5.9670   17.8210   -7.6430 C.3    84  VAL84       0.0252
    102  CG1       -4.7160   17.7190   -6.7360 C.3    84  VAL84       0.0019
    103  CG2       -7.1950   17.9960   -6.7810 C.3    84  VAL84       0.0019
@<TRIPOS>BOND
     1    55    54    1
     2    55    56    2
     3    54    53    1
     4    54    57    1
     5    58    57    1
     6    76    77    1
     7    82    80    1
     8    57    59    1
     9    79    78    2
    10   100    99    2
    11    80    77    1
    12    80    81    1
    13    77    78    1
    14    97    98    1
    15    78    83   am
    16    99    98    1
    17    66    64    1
    18    67    65    1
    19    65    64    1
    20    92    93    2
    21    92    91    1
    22    49    50    1
    23    49    46    1
    24    47    46    1
    25    47    48    2
    26    60    61    1
    27    98   101    1
    28    52    50   ar
    29    50    51   ar
    30    46    45    1
    31    12    13    1
    32    64    61    1
    33    91    90    1
    34    91    94    1
    35    86    85    2
    36    83    84    1
    37    83    89    1
    38    85    90   am
    39    85    84    1
    40   101   103    1
    41   101   102    1
    42    61    62    1
    43    84    87    1
    44    95    94    1
    45    89    88    1
    46    94    96    1
    47    45    39   am
    48    15    14    2
    49    40    39    2
    50    13    14    1
    51    13    16    1
    52    63    62    2
    53    39    38    1
    54    87    88    1
    55    16    17    1
    56    38    41    1
    57    38    37    1
    58    41    42    1
    59    20    21    1
    60    36    33    1
    61    17    18    1
    62    17    19    1
    63    35    34    2
    64    37    34   am
    65    34    33    1
    66    24    21    1
    67    24    25    1
    68    23    22    2
    69    21    22    1
    70     4     3    2
    71    33    32    1
    72    42    43   ar
    73    42    44   ar
    74    27    25   am
    75    25    26    2
    76     3     2    1
    77    32    30   am
    78     5     2    1
    79     5     6    1
    80    10     9    1
    81     7     6    1
    82     7     8    1
    83     2     1    1
    84    71    70    2
    85    30    31    2
    86    30    29    1
    87    68    69    1
    88     9     8    2
    89     9    11    1
    90    28    29    1
    91    70    69    1
    92    69    72    1
    93    72    73    1
    94    72    74    1
    95    73    75    1
