@<TRIPOS>MOLECULE
tmp/3ouhA00.pdb
 173 164 0 0 0
SMALL
GASTEIGER

@<TRIPOS>ATOM
      1  N         44.6020   11.4150    3.9180 N.3    63  ASP63      -0.1239
      2  CA        43.9830   11.8650    2.6750 C.3    63  ASP63       0.1674
      3  C         45.0470   12.1210    1.6430 C.2    63  ASP63       0.2266
      4  O         46.0600   12.7520    1.9470 O.2    63  ASP63      -0.2867
      5  CB        43.1260   13.1290    2.8550 C.3    63  ASP63       0.1410
      6  CG        43.9350   14.3280    3.3210 C.2    63  ASP63       0.3668
      7  OD1       44.6160   14.1920    4.3720 O.co2  63  ASP63      -0.2456
      8  OD2       43.8570   15.4060    2.6520 O.co2  63  ASP63      -0.2456
      9  N         45.6930   13.7830   -2.1730 N.3    65  ILE65      -0.1245
     10  CA        45.1350   14.8370   -2.9960 C.3    65  ILE65       0.1561
     11  C         45.6970   14.9310   -4.4040 C.2    65  ILE65       0.2260
     12  O         46.7830   14.4690   -4.7060 O.2    65  ILE65      -0.2867
     13  CB        45.2250   16.2140   -2.3150 C.3    65  ILE65       0.0252
     14  CG1       46.6880   16.6720   -2.1430 C.3    65  ILE65       0.0019
     15  CG2       44.4920   16.1450   -0.9870 C.3    65  ILE65       0.0019
     16  CD1       46.8440   18.1910   -1.8010 C.3    65  ILE65       0.0001
     17  N         45.5260   18.3830   -7.3040 N.3    67  TRP67      -0.1241
     18  CA        44.9640   19.6160   -7.8770 C.3    67  TRP67       0.1605
     19  C         44.4730   19.3850   -9.3000 C.2    67  TRP67       0.2264
     20  O         45.1560   18.7880  -10.0980 O.2    67  TRP67      -0.2867
     21  CB        46.0180   20.7190   -7.9260 C.3    67  TRP67       0.0550
     22  CG        46.4870   21.0980   -6.6060 C.ar   67  TRP67       0.0003
     23  CD1       47.6480   20.7460   -6.0460 C.ar   67  TRP67       0.0946
     24  CD2       45.7870   21.8980   -5.6320 C.ar   67  TRP67       0.0152
     25  NE1       47.7380   21.2760   -4.7780 N.ar   67  TRP67      -0.2442
     26  CE2       46.5980   21.9770   -4.5030 C.ar   67  TRP67       0.0810
     27  CE3       44.5510   22.5460   -5.6160 C.ar   67  TRP67       0.0012
     28  CZ2       46.2310   22.7040   -3.3640 C.ar   67  TRP67       0.0191
     29  CZ3       44.1870   23.2820   -4.4950 C.ar   67  TRP67       0.0001
     30  CH2       45.0180   23.3510   -3.3840 C.ar   67  TRP67       0.0015
     31  N         41.0280   20.9460   -5.1630 N.3   108  MET108     -0.1245
     32  CA        41.6940   19.8460   -4.4360 C.3   108  MET108      0.1570
     33  C         40.7700   18.6690   -4.2970 C.2   108  MET108      0.2261
     34  O         39.8120   18.7060   -3.5270 O.2   108  MET108     -0.2867
     35  CB        42.0870   20.3080   -3.0610 C.3   108  MET108      0.0387
     36  CG        43.0430   19.3850   -2.3220 C.3   108  MET108      0.0595
     37  SD        43.0500   19.9220   -0.6120 S.3   108  MET108     -0.1393
     38  CE        41.5800   19.1210   -0.0030 C.3   108  MET108      0.0692
     39  N         40.1250    9.9840    1.0210 N.3   112  TYR112     -0.1241
     40  CA        40.4950    9.3790    2.3040 C.3   112  TYR112      0.1605
     41  C         40.4070    7.8730    2.1520 C.2   112  TYR112      0.2264
     42  O         39.3810    7.3640    1.7980 O.2   112  TYR112     -0.2867
     43  CB        39.5440    9.8090    3.4020 C.3   112  TYR112      0.0534
     44  CG        39.7420   11.2310    3.8780 C.ar  112  TYR112     -0.0201
     45  CD1       40.4200   11.4980    5.0600 C.ar  112  TYR112     -0.0009
     46  CD2       39.2450   12.3070    3.1420 C.ar  112  TYR112     -0.0009
     47  CE1       40.6220   12.8000    5.4740 C.ar  112  TYR112      0.0417
     48  CE2       39.4290   13.5880    3.5510 C.ar  112  TYR112      0.0417
     49  CZ        40.1120   13.8390    4.7150 C.ar  112  TYR112      0.1957
     50  OH        40.3240   15.1350    5.1070 O.3   112  TYR112     -0.2866
     51  N         41.2400   13.9480    9.5780 N.3   119  TYR119     -0.1241
     52  CA        42.0690   15.1520    9.3470 C.3   119  TYR119      0.1605
     53  C         41.9950   15.8910   10.6800 C.2   119  TYR119      0.2264
     54  O         40.9230   16.3430   11.0530 O.2   119  TYR119     -0.2867
     55  CB        41.4920   16.0470    8.1890 C.3   119  TYR119      0.0534
     56  CG        42.4680   17.0530    7.5860 C.ar  119  TYR119     -0.0201
     57  CD1       42.9030   16.9410    6.2650 C.ar  119  TYR119     -0.0009
     58  CD2       42.9550   18.1040    8.3270 C.ar  119  TYR119     -0.0009
     59  CE1       43.8240   17.8410    5.7270 C.ar  119  TYR119      0.0417
     60  CE2       43.8540   19.0170    7.7970 C.ar  119  TYR119      0.0417
     61  CZ        44.2860   18.8810    6.5000 C.ar  119  TYR119      0.1957
     62  OH        45.1870   19.7960    5.9850 O.3   119  TYR119     -0.2866
     63  N         41.5630   21.9110   12.4490 N.3   122  HIS122     -0.1241
     64  CA        42.3080   22.9050   11.6770 C.3   122  HIS122      0.1621
     65  C         41.4330   24.0220   11.1900 C.2   122  HIS122      0.2264
     66  O         40.2220   23.9870   11.2710 O.2   122  HIS122     -0.2867
     67  CB        43.0290   22.2820   10.4530 C.3   122  HIS122      0.0745
     68  CG        42.1050   21.7790    9.4020 C.ar  122  HIS122      0.0817
     69  ND1       41.3920   20.6070    9.5390 N.ar  122  HIS122     -0.2268
     70  CD2       41.7800   22.2800    8.1850 C.ar  122  HIS122      0.1154
     71  CE1       40.6610   20.4100    8.4570 C.ar  122  HIS122      0.1986
     72  NE2       40.8840   21.4060    7.6150 N.ar  122  HIS122     -0.2212
     73  N         41.2710   26.4300    7.8120 N.3   124  ASP124     -0.1239
     74  CA        41.7680   26.3380    6.4580 C.3   124  ASP124      0.1674
     75  C         42.7670   27.4350    6.2330 C.2   124  ASP124      0.2266
     76  O         43.7990   27.1840    5.6760 O.2   124  ASP124     -0.2867
     77  CB        40.5950   26.3840    5.4780 C.3   124  ASP124      0.1410
     78  CG        39.9020   25.0160    5.3240 C.2   124  ASP124      0.3668
     79  OD1       38.9280   24.9580    4.5460 O.co2 124  ASP124     -0.2456
     80  OD2       40.3520   24.0090    5.9460 O.co2 124  ASP124     -0.2456
     81  N         42.3320   33.2290    1.4040 N.3   131  ARG131     -0.1245
     82  CA        41.1570   32.3800    1.2920 C.3   131  ARG131      0.1563
     83  C         40.0910   32.8010    2.2510 C.2   131  ARG131      0.2260
     84  O         40.3470   32.8330    3.4440 O.2   131  ARG131     -0.2867
     85  CB        41.5420   30.9450    1.5120 C.3   131  ARG131      0.0307
     86  CG        42.4280   30.4570    0.4070 C.3   131  ARG131      0.0489
     87  CD        42.8120   29.0370    0.6440 C.3   131  ARG131      0.2205
     88  NE        43.8060   28.8710    1.6960 N.pl3 131  ARG131     -0.0865
     89  CZ        44.1020   27.7120    2.2640 C.cat 131  ARG131      0.5346
     90  NH1       43.4700   26.6020    1.9140 N.pl3 131  ARG131      0.1354
     91  NH2       45.0250   27.6640    3.2090 N.pl3 131  ARG131      0.1354
     92  N         33.1080   22.9170   -0.5790 N.3   136  ILE136     -0.1245
     93  CA        33.4170   21.4750   -0.6890 C.3   136  ILE136      0.1561
     94  C         32.2610   20.7150   -1.3140 C.2   136  ILE136      0.2260
     95  O         31.0880   20.8890   -0.9150 O.2   136  ILE136     -0.2867
     96  CB        33.7010   20.7930    0.7100 C.3   136  ILE136      0.0252
     97  CG1       34.7530   21.5670    1.5190 C.3   136  ILE136      0.0019
     98  CG2       34.1570   19.4230    0.5300 C.3   136  ILE136      0.0019
     99  CD1       35.2610   20.9130    2.7550 C.3   136  ILE136      0.0001
    100  N         30.9550   16.7750   -1.9520 N.3   138  TYR138     -0.1241
    101  CA        31.0940   15.3850   -1.5640 C.3   138  TYR138      0.1605
    102  C         30.3660   14.4280   -2.5340 C.2   138  TYR138      0.2264
    103  O         29.2260   14.6840   -2.9520 O.2   138  TYR138     -0.2867
    104  CB        30.5220   15.1860   -0.1770 C.3   138  TYR138      0.0534
    105  CG        31.1790   15.9920    0.9350 C.ar  138  TYR138     -0.0201
    106  CD1       32.4340   15.6520    1.4020 C.ar  138  TYR138     -0.0009
    107  CD2       30.5260   17.0490    1.5410 C.ar  138  TYR138     -0.0009
    108  CE1       33.0410   16.3410    2.4120 C.ar  138  TYR138      0.0417
    109  CE2       31.1450   17.7620    2.5780 C.ar  138  TYR138      0.0417
    110  CZ        32.3980   17.3890    3.0050 C.ar  138  TYR138      0.1957
    111  OH        33.0520   18.0710    4.0260 O.3   138  TYR138     -0.2866
    112  N         32.3440   15.3510    8.9610 N.3   152  LEU152     -0.1245
    113  CA        33.0960   16.5750    9.1330 C.3   152  LEU152      0.1561
    114  C         32.4660   17.3820   10.2490 C.2   152  LEU152      0.2260
    115  O         31.3140   17.7810   10.1460 O.2   152  LEU152     -0.2867
    116  CB        33.0940   17.4230    7.8610 C.3   152  LEU152      0.0270
    117  CG        33.7180   18.8090    8.0600 C.3   152  LEU152      0.0019
    118  CD1       35.1930   18.6530    8.1440 C.3   152  LEU152      0.0001
    119  CD2       33.3240   19.7500    6.9670 C.3   152  LEU152      0.0001
    120  N         37.5340   23.1150   12.1470 N.3   183  HIS183     -0.1241
    121  CA        36.8690   21.8670   11.7310 C.3   183  HIS183      0.1621
    122  C         37.8190   20.6850   11.7350 C.2   183  HIS183      0.2264
    123  O         39.0310   20.8450   11.8990 O.2   183  HIS183     -0.2867
    124  CB        36.1690   22.0220   10.3530 C.3   183  HIS183      0.0745
    125  CG        37.0700   22.4680    9.2390 C.ar  183  HIS183      0.0817
    126  ND1       37.4730   23.7800    9.0790 N.ar  183  HIS183     -0.2268
    127  CD2       37.5950   21.7860    8.1890 C.ar  183  HIS183      0.1154
    128  CE1       38.2480   23.8710    8.0110 C.ar  183  HIS183      0.1986
    129  NE2       38.3210   22.6830    7.4360 N.ar  183  HIS183     -0.2212
    130  N         37.8800   16.2480   10.1150 N.3   185  VAL185     -0.1245
    131  CA        37.2300   15.0480    9.6410 C.3   185  VAL185      0.1561
    132  C         37.4240   13.8810   10.6270 C.2   185  VAL185      0.2260
    133  O         38.5420   13.4700   10.9610 O.2   185  VAL185     -0.2867
    134  CB        37.7430   14.6470    8.2460 C.3   185  VAL185      0.0252
    135  CG1       36.8120   13.6280    7.6540 C.3   185  VAL185      0.0019
    136  CG2       37.7880   15.8500    7.3350 C.3   185  VAL185      0.0019
    137  N         36.5870    7.8920    1.0750 N.3   192  ARG192     -0.1245
    138  CA        35.7790    9.1170    1.2140 C.3   192  ARG192      0.1563
    139  C         36.3600   10.1700    0.3020 C.2   192  ARG192      0.2260
    140  O         37.4620   10.6500    0.5330 O.2   192  ARG192     -0.2867
    141  CB        35.7860    9.6360    2.6540 C.3   192  ARG192      0.0307
    142  CG        34.9450   10.8930    2.9510 C.3   192  ARG192      0.0489
    143  CD        35.1910   11.2300    4.4480 C.3   192  ARG192      0.2205
    144  NE        34.6790   12.4930    4.9730 N.pl3 192  ARG192     -0.0865
    145  CZ        35.1750   13.7020    4.7030 C.cat 192  ARG192      0.5346
    146  NH1       36.1710   13.8670    3.8520 N.pl3 192  ARG192      0.1354
    147  NH2       34.6470   14.7750    5.2900 N.pl3 192  ARG192      0.1354
    148  N         36.1150   13.8250   -1.7860 N.3   194  ALA194     -0.1245
    149  CA        35.5920   15.1700   -1.7290 C.3   194  ALA194      0.1562
    150  C         36.4290   16.0250   -2.6510 C.2   194  ALA194      0.2260
    151  O         37.5900   15.7030   -2.9270 O.2   194  ALA194     -0.2867
    152  CB        35.6790   15.7080   -0.2950 C.3   194  ALA194      0.0290
    153  N         37.3800   20.2260   -3.1680 N.3   196  THR196     -0.1218
    154  CA        37.3860   21.5320   -2.5300 C.3   196  THR196      0.1862
    155  C         37.9520   22.6050   -3.4590 C.2   196  THR196      0.2287
    156  O         38.9450   22.3650   -4.1500 O.2   196  THR196     -0.2866
    157  CB        38.2900   21.5320   -1.2450 C.3   196  THR196      0.1770
    158  OG1       37.8160   20.5560   -0.3160 O.3   196  THR196     -0.2211
    159  CG2       38.2240   22.8450   -0.5610 C.3   196  THR196      0.0375
    160  N         38.7030   26.8780   -2.9280 N.3   198  TRP198     -0.1241
    161  CA        38.7100   28.0270   -1.9790 C.3   198  TRP198      0.1605
    162  C         38.6240   29.3520   -2.7440 C.2   198  TRP198      0.2264
    163  O         39.3310   29.5330   -3.7340 O.2   198  TRP198     -0.2867
    164  CB        39.9920   28.0570   -1.1510 C.3   198  TRP198      0.0550
    165  CG        40.0350   27.0560   -0.0470 C.ar  198  TRP198      0.0003
    166  CD1       39.4920   27.1710    1.1910 C.ar  198  TRP198      0.0946
    167  CD2       40.7060   25.8080   -0.0690 C.ar  198  TRP198      0.0152
    168  NE1       39.7600   26.0450    1.9380 N.ar  198  TRP198     -0.2442
    169  CE2       40.5080   25.2000    1.1780 C.ar  198  TRP198      0.0810
    170  CE3       41.4470   25.1320   -1.0390 C.ar  198  TRP198      0.0012
    171  CZ2       41.0070   23.9600    1.4730 C.ar  198  TRP198      0.0191
    172  CZ3       41.9590   23.9290   -0.7380 C.ar  198  TRP198      0.0001
    173  CH2       41.7380   23.3390    0.5170 C.ar  198  TRP198      0.0015
@<TRIPOS>BOND
     1    20    19    2
     2    19    18    1
     3    21    18    1
     4    21    22    1
     5    18    17    1
     6    22    23   ar
     7    22    24   ar
     8    23    25   ar
     9    24    27   ar
    10    24    26   ar
    11    27    29   ar
    12    31    32    1
    13    25    26   ar
    14    12    11    2
    15    26    28   ar
    16    29    30   ar
    17    32    33    1
    18    32    35    1
    19    11    10    1
    20    33    34    2
    21   156   155    2
    22   163   162    2
    23   155   154    1
    24    30    28   ar
    25   153   154    1
    26    35    36    1
    27    10    13    1
    28    10     9    1
    29   103   102    2
    30   160   161    1
    31   151   150    2
    32   162   161    1
    33   150   149    1
    34   102   101    1
    35   154   157    1
    36    36    37    1
    37    13    14    1
    38    13    15    1
    39    14    16    1
    40   161   164    1
    41   100   101    1
    42   148   149    1
    43   149   152    1
    44   101   104    1
    45    94    95    2
    46    94    93    1
    47   157   159    1
    48   157   158    1
    49   164   165    1
    50   170   172   ar
    51   170   167   ar
    52   172   173   ar
    53    93    92    1
    54    93    96    1
    55    37    38    1
    56   104   105    1
    57   167   165   ar
    58   167   169   ar
    59   165   166   ar
    60   139   140    2
    61   139   138    1
    62    86    87    1
    63    86    85    1
    64   173   171   ar
    65    98    96    1
    66    87    88    1
    67    96    97    1
    68   105   106   ar
    69   105   107   ar
    70    39    40    1
    71   137   138    1
    72   169   171   ar
    73   169   168   ar
    74   166   168   ar
    75   138   141    1
    76    82    81    1
    77    82    85    1
    78    82    83    1
    79   106   108   ar
    80    97    99    1
    81   107   109   ar
    82     3     4    2
    83     3     2    1
    84    88    89    2
    85    42    41    2
    86    90    89    1
    87    41    40    1
    88    83    84    2
    89    89    91    1
    90    40    43    1
    91   108   110   ar
    92   109   110   ar
    93     8     6   ar
    94   141   142    1
    95     2     5    1
    96     2     1    1
    97     5     6    1
    98   142   143    1
    99   110   111    1
   100    46    48   ar
   101    46    44   ar
   102     6     7   ar
   103    43    44    1
   104    48    49   ar
   105   146   145    1
   106    44    45   ar
   107   143   144    1
   108    79    78   ar
   109   145   144    2
   110   145   147    1
   111    49    50    1
   112    49    47   ar
   113    45    47   ar
   114    78    77    1
   115    78    80   ar
   116    77    74    1
   117    76    75    2
   118    59    57   ar
   119    59    61   ar
   120    62    61    1
   121    75    74    1
   122    57    56   ar
   123    74    73    1
   124    61    60   ar
   125   119   117    1
   126   136   134    1
   127   129   128   ar
   128   129   127   ar
   129    56    55    1
   130    56    58   ar
   131    72    70   ar
   132    72    71   ar
   133   135   134    1
   134    60    58   ar
   135   116   117    1
   136   116   113    1
   137   128   126   ar
   138   117   118    1
   139    70    68   ar
   140    55    52    1
   141   127   125   ar
   142   134   131    1
   143    71    69   ar
   144   112   113    1
   145   126   125   ar
   146   113   114    1
   147   125   124    1
   148    52    51    1
   149    52    53    1
   150    68    69   ar
   151    68    67    1
   152   131   130    1
   153   131   132    1
   154   115   114    2
   155   124   121    1
   156    67    64    1
   157   132   133    2
   158    53    54    2
   159    65    66    2
   160    65    64    1
   161    64    63    1
   162   121   122    1
   163   121   120    1
   164   122   123    2
