@<TRIPOS>MOLECULE
tmp/3ouiA01.pdb
 132 127 0 0 0
SMALL
GASTEIGER

@<TRIPOS>ATOM
      1  N         19.0630  -19.1200  -26.6190 N.3    10  ILE10      -0.1231
      2  CA        19.3630  -18.4080  -25.3730 C.3    10  ILE10       0.1692
      3  C         20.8390  -18.0190  -25.2310 C.2    10  ILE10       0.2591
      4  O         21.1580  -16.8700  -24.9190 O.2    10  ILE10      -0.2718
      5  CB        18.8720  -19.1780  -24.1220 C.3    10  ILE10       0.0266
      6  CG1       17.3540  -19.3760  -24.2000 C.3    10  ILE10       0.0019
      7  CG2       19.3050  -18.4690  -22.8100 C.3    10  ILE10       0.0020
      8  CD1       16.8280  -20.3230  -23.1940 C.3    10  ILE10       0.0001
      9  N         21.7520  -18.9630  -25.4660 N.am   11  VAL11      -0.1980
     10  CA        23.1750  -18.6400  -25.3490 C.3    11  VAL11       0.1595
     11  C         23.5930  -17.5110  -26.3010 C.2    11  VAL11       0.2287
     12  O         24.1210  -16.4980  -25.8490 O.2    11  VAL11      -0.2864
     13  CB        24.0630  -19.9100  -25.4900 C.3    11  VAL11       0.0276
     14  CG1       25.5470  -19.5670  -25.5620 C.3    11  VAL11       0.0022
     15  CG2       23.8270  -20.8190  -24.3230 C.3    11  VAL11       0.0022
     16  N         21.8920  -14.1990  -25.1700 N.3    14  MET14      -0.1230
     17  CA        22.5000  -13.6820  -23.9640 C.3    14  MET14       0.1702
     18  C         23.9030  -13.1230  -24.2390 C.2    14  MET14       0.2592
     19  O         24.2710  -12.0990  -23.6690 O.2    14  MET14      -0.2718
     20  CB        22.5310  -14.7410  -22.8490 C.3    14  MET14       0.0401
     21  CG        21.1630  -15.0690  -22.2630 C.3    14  MET14       0.0596
     22  SD        20.3740  -13.6590  -21.4460 S.3    14  MET14      -0.1393
     23  CE        21.2620  -13.5850  -19.8980 C.3    14  MET14       0.0692
     24  N         24.6750  -13.7870  -25.1000 N.am   15  ASN15      -0.1974
     25  CA        26.0060  -13.2890  -25.4850 C.3    15  ASN15       0.1688
     26  C         25.9420  -11.9340  -26.1800 C.2    15  ASN15       0.2292
     27  O         26.7280  -11.0520  -25.8730 O.2    15  ASN15      -0.2864
     28  CB        26.7330  -14.2740  -26.4140 C.3    15  ASN15       0.1181
     29  CG        27.1980  -15.5290  -25.6970 C.2    15  ASN15       0.2629
     30  OD1       27.3000  -15.5530  -24.4640 O.2    15  ASN15      -0.2716
     31  ND2       27.4830  -16.5890  -26.4710 N.am   15  ASN15      -0.0877
     32  N         18.7100  -23.5950  -18.1000 N.3    82  ILE82      -0.1245
     33  CA        19.9350  -23.1230  -17.4730 C.3    82  ILE82       0.1561
     34  C         21.0110  -24.2010  -17.4640 C.2    82  ILE82       0.2260
     35  O         22.1840  -23.9150  -17.6930 O.2    82  ILE82      -0.2867
     36  CB        19.6570  -22.6320  -16.0520 C.3    82  ILE82       0.0252
     37  CG1       18.7890  -21.3740  -16.1490 C.3    82  ILE82       0.0019
     38  CG2       20.9730  -22.2990  -15.3040 C.3    82  ILE82       0.0019
     39  CD1       19.5760  -20.0830  -16.5710 C.3    82  ILE82       0.0001
     40  N         22.5410  -24.3530  -20.9090 N.3    85  CYS85      -0.1221
     41  CA        23.4160  -23.2080  -21.0840 C.3    85  CYS85       0.1808
     42  C         24.7600  -23.3490  -20.3670 C.2    85  CYS85       0.2601
     43  O         25.7960  -23.1520  -20.9630 O.2    85  CYS85      -0.2717
     44  CB        22.7030  -21.9330  -20.5940 C.3    85  CYS85       0.0970
     45  SG        21.2870  -21.4640  -21.6000 S.3    85  CYS85      -0.0800
     46  N         24.7480  -23.6960  -19.0930 N.am   86  ASN86      -0.1974
     47  CA        25.9750  -23.7560  -18.3060 C.3    86  ASN86       0.1688
     48  C         26.8010  -25.0120  -18.5810 C.2    86  ASN86       0.2292
     49  O         27.9780  -25.1070  -18.1790 O.2    86  ASN86      -0.2864
     50  CB        25.6980  -23.4370  -16.7950 C.3    86  ASN86       0.1181
     51  CG        25.4640  -24.6520  -15.9060 C.2    86  ASN86       0.2629
     52  OD1       25.7710  -24.5750  -14.7080 O.2    86  ASN86      -0.2716
     53  ND2       24.8950  -25.7520  -16.4370 N.am   86  ASN86      -0.0877
     54  N         27.4810  -25.8790  -21.6990 N.3    88  LYS88      -0.1231
     55  CA        28.2270  -25.5960  -22.9220 C.3    88  LYS88       0.1693
     56  C         29.7270  -25.5480  -22.6310 C.2    88  LYS88       0.2592
     57  O         30.1630  -25.0320  -21.5920 O.2    88  LYS88      -0.2718
     58  CB        27.7600  -24.2840  -23.5790 C.3    88  LYS88       0.0285
     59  CG        28.5000  -23.9050  -24.8720 C.3    88  LYS88       0.0035
     60  CD        27.9780  -22.6250  -25.4740 C.3    88  LYS88       0.0206
     61  CE        28.7410  -22.3210  -26.7620 C.3    88  LYS88       0.1093
     62  NZ        28.2230  -21.1520  -27.4920 N.3    88  LYS88      -0.1314
     63  N         30.5170  -26.0900  -23.5590 N.am   89  LEU89      -0.1966
     64  CA        31.9620  -26.0460  -23.4540 C.3    89  LEU89       0.1728
     65  C         32.4290  -24.5890  -23.2700 C.2    89  LEU89       0.2617
     66  O         32.0260  -23.6950  -24.0110 O.2    89  LEU89      -0.2715
     67  CB        32.6000  -26.6890  -24.6920 C.3    89  LEU89       0.0311
     68  CG        34.0740  -27.0690  -24.5510 C.3    89  LEU89       0.0022
     69  CD1       34.2470  -28.2520  -23.5910 C.3    89  LEU89       0.0001
     70  CD2       34.6050  -27.3900  -25.9320 C.3    89  LEU89       0.0001
     71  N         33.2100  -24.3530  -22.2260 N.am   90  GLY90      -0.1940
     72  CA        33.7650  -23.0230  -21.9440 C.3    90  GLY90       0.2014
     73  C         32.9100  -22.1330  -21.0410 C.2    90  GLY90       0.2640
     74  O         33.3380  -21.0470  -20.6720 O.2    90  GLY90      -0.2714
     75  N         31.7140  -22.5850  -20.6840 N.am   91  SER91      -0.1935
     76  CA        30.7950  -21.7730  -19.8890 C.3    91  SER91       0.2055
     77  C         31.1360  -21.8260  -18.4220 C.2    91  SER91       0.2643
     78  O         31.5470  -22.8690  -17.8980 O.2    91  SER91      -0.2714
     79  CB        29.3560  -22.2570  -20.0380 C.3    91  SER91       0.2130
     80  OG        28.4970  -21.5270  -19.1590 O.3    91  SER91      -0.2179
     81  N         30.9050  -20.7160  -17.7260 N.am   92  TYR92      -0.1973
     82  CA        30.9440  -20.7230  -16.2590 C.3    92  TYR92       0.1639
     83  C         29.8090  -21.5910  -15.7120 C.2    92  TYR92       0.2290
     84  O         28.8700  -21.9150  -16.4470 O.2    92  TYR92      -0.2864
     85  CB        30.8140  -19.2950  -15.7070 C.3    92  TYR92       0.0560
     86  CG        29.3950  -18.7620  -15.7010 C.ar   92  TYR92      -0.0198
     87  CD1       28.8580  -18.1330  -16.8160 C.ar   92  TYR92      -0.0009
     88  CD2       28.5990  -18.8860  -14.5640 C.ar   92  TYR92      -0.0009
     89  CE1       27.5380  -17.6570  -16.8050 C.ar   92  TYR92       0.0417
     90  CE2       27.2980  -18.4010  -14.5300 C.ar   92  TYR92       0.0417
     91  CZ        26.7690  -17.7900  -15.6540 C.ar   92  TYR92       0.1957
     92  OH        25.4650  -17.3140  -15.5990 O.3    92  TYR92      -0.2866
     93  N         26.6640  -22.4140  -12.9150 N.3    94  ILE94      -0.1245
     94  CA        25.6500  -21.9590  -11.9460 C.3    94  ILE94       0.1561
     95  C         25.6480  -22.9240  -10.7790 C.2    94  ILE94       0.2260
     96  O         25.5820  -24.1390  -10.9740 O.2    94  ILE94      -0.2867
     97  CB        24.2540  -21.9540  -12.5950 C.3    94  ILE94       0.0252
     98  CG1       24.1730  -20.8760  -13.6900 C.3    94  ILE94       0.0019
     99  CG2       23.1220  -21.7780  -11.5520 C.3    94  ILE94       0.0019
    100  CD1       24.3670  -19.4230  -13.1970 C.3    94  ILE94       0.0001
    101  N         21.6710  -14.5760  -13.3050 N.3   122  VAL122     -0.1245
    102  CA        20.6620  -14.4270  -14.3400 C.3   122  VAL122      0.1561
    103  C         19.2880  -14.3410  -13.6960 C.2   122  VAL122      0.2260
    104  O         18.9460  -15.1010  -12.7780 O.2   122  VAL122     -0.2867
    105  CB        20.6770  -15.6080  -15.3320 C.3   122  VAL122      0.0252
    106  CG1       19.5610  -15.4240  -16.4220 C.3   122  VAL122      0.0019
    107  CG2       22.0640  -15.7570  -15.9550 C.3   122  VAL122      0.0019
    108  N         14.8310  -13.8020  -19.9170 N.3   163  PHE163     -0.1241
    109  CA        16.1220  -13.9420  -19.2330 C.3   163  PHE163      0.1605
    110  C         16.8850  -12.6240  -19.3760 C.2   163  PHE163      0.2264
    111  O         16.9120  -12.0420  -20.4580 O.2   163  PHE163     -0.2867
    112  CB        17.0240  -15.0120  -19.8790 C.3   163  PHE163      0.0534
    113  CG        16.5150  -16.4410  -19.7640 C.ar  163  PHE163     -0.0203
    114  CD1       15.6370  -16.9580  -20.7050 C.ar  163  PHE163     -0.0042
    115  CD2       16.9780  -17.2790  -18.7840 C.ar  163  PHE163     -0.0042
    116  CE1       15.2020  -18.2850  -20.6220 C.ar  163  PHE163     -0.0003
    117  CE2       16.5200  -18.6180  -18.6930 C.ar  163  PHE163     -0.0003
    118  CZ        15.6430  -19.0950  -19.5970 C.ar  163  PHE163     -0.0000
    119  N         20.8230  -10.6790  -17.6510 N.3   165  TRP165     -0.1241
    120  CA        21.8850  -10.6590  -16.6380 C.3   165  TRP165      0.1605
    121  C         21.4240   -9.7540  -15.5000 C.2   165  TRP165      0.2264
    122  O         20.9280   -8.6460  -15.7480 O.2   165  TRP165     -0.2867
    123  CB        23.2240  -10.1310  -17.1880 C.3   165  TRP165      0.0550
    124  CG        23.7920  -10.8710  -18.3580 C.ar  165  TRP165      0.0003
    125  CD1       24.0250  -10.3750  -19.6120 C.ar  165  TRP165      0.0946
    126  CD2       24.2170  -12.2310  -18.3810 C.ar  165  TRP165      0.0152
    127  NE1       24.5610  -11.3480  -20.4150 N.ar  165  TRP165     -0.2442
    128  CE2       24.6960  -12.4970  -19.6870 C.ar  165  TRP165      0.0810
    129  CE3       24.2420  -13.2540  -17.4320 C.ar  165  TRP165      0.0012
    130  CZ2       25.1740  -13.7460  -20.0620 C.ar  165  TRP165      0.0191
    131  CZ3       24.7430  -14.4950  -17.8080 C.ar  165  TRP165      0.0001
    132  CH2       25.2040  -14.7200  -19.1130 C.ar  165  TRP165      0.0015
@<TRIPOS>BOND
     1    62    61    1
     2    61    60    1
     3     1     2    1
     4    31    29   am
     5    28    29    1
     6    28    25    1
     7    11    12    2
     8    11    10    1
     9    26    27    2
    10    26    25    1
    11    70    68    1
    12    29    30    2
    13    14    13    1
    14    13    10    1
    15    13    15    1
    16    25    24    1
    17    60    59    1
    18     9    10    1
    19     9     3   am
    20     2     3    1
    21     2     5    1
    22     3     4    2
    23    16    17    1
    24    24    18   am
    25    59    58    1
    26    67    68    1
    27    67    64    1
    28    68    69    1
    29    18    17    1
    30    18    19    2
    31     6     5    1
    32     6     8    1
    33     5     7    1
    34    66    65    2
    35    17    20    1
    36    58    55    1
    37    63    64    1
    38    63    56   am
    39    64    65    1
    40    65    71   am
    41    55    56    1
    42    55    54    1
    43    20    21    1
    44    56    57    2
    45    21    22    1
    46    71    72    1
    47    72    73    1
    48    45    44    1
    49    22    23    1
    50    41    40    1
    51    41    44    1
    52    41    42    1
    53    73    75   am
    54    73    74    2
    55    43    42    2
    56   114   116   ar
    57   114   113   ar
    58    75    76    1
    59   116   118   ar
    60   111   110    2
    61   127   128   ar
    62   127   125   ar
    63    42    46   am
    64   130   128   ar
    65   130   132   ar
    66    79    76    1
    67    79    80    1
    68   108   109    1
    69    76    77    1
    70   112   113    1
    71   112   109    1
    72   113   115   ar
    73   128   126   ar
    74   125   124   ar
    75   118   117   ar
    76   110   109    1
    77   132   131   ar
    78    46    47    1
    79   115   117   ar
    80    48    47    1
    81    48    49    2
    82    77    78    2
    83    77    81   am
    84   126   124   ar
    85   126   129   ar
    86   124   123    1
    87    47    50    1
    88    32    33    1
    89   131   129   ar
    90    81    82    1
    91    35    34    2
    92   119   120    1
    93    33    34    1
    94    33    36    1
    95   123   120    1
    96    87    89   ar
    97    87    86   ar
    98    89    91   ar
    99    50    51    1
   100   120   121    1
   101    39    37    1
   102    84    83    2
   103    53    51   am
   104   106   105    1
   105    82    83    1
   106    82    85    1
   107    37    36    1
   108    36    38    1
   109   107   105    1
   110    51    52    2
   111   122   121    2
   112    85    86    1
   113    86    88   ar
   114    91    92    1
   115    91    90   ar
   116   105   102    1
   117    88    90   ar
   118   102   103    1
   119   102   101    1
   120   103   104    2
   121    98   100    1
   122    98    97    1
   123    93    94    1
   124    97    94    1
   125    97    99    1
   126    94    95    1
   127    96    95    2
