@<TRIPOS>MOLECULE
tmp/3ouiA00.pdb
 178 168 0 0 0
SMALL
GASTEIGER

@<TRIPOS>ATOM
      1  N          8.7470   -0.0230   -4.1310 N.3    54  ARG54      -0.1245
      2  CA         8.0410   -1.0930   -4.8450 C.3    54  ARG54       0.1563
      3  C          6.6560   -1.3490   -4.2430 C.2    54  ARG54       0.2260
      4  O          6.4840   -1.2690   -3.0270 O.2    54  ARG54      -0.2867
      5  CB         8.8870   -2.3680   -4.8270 C.3    54  ARG54       0.0307
      6  CG         9.3870   -2.7780   -3.4310 C.3    54  ARG54       0.0489
      7  CD        10.4270   -3.9040   -3.4990 C.3    54  ARG54       0.2205
      8  NE         9.8170   -5.1860   -3.8800 N.pl3  54  ARG54      -0.0865
      9  CZ        10.3730   -6.3830   -3.6900 C.cat  54  ARG54       0.5346
     10  NH1       11.5750   -6.4920   -3.1310 N.pl3  54  ARG54       0.1354
     11  NH2        9.7250   -7.4890   -4.0620 N.pl3  54  ARG54       0.1354
     12  N          4.7160   -4.1730   -5.0980 N.3    56  ASP56      -0.1239
     13  CA         4.3700   -5.5780   -5.2660 C.3    56  ASP56       0.1674
     14  C          4.1580   -6.3370   -3.9510 C.2    56  ASP56       0.2266
     15  O          4.6200   -5.9220   -2.8750 O.2    56  ASP56      -0.2867
     16  CB         5.4080   -6.3030   -6.1610 C.3    56  ASP56       0.1410
     17  CG         6.8260   -6.2810   -5.6100 C.2    56  ASP56       0.3668
     18  OD1        7.5950   -7.2180   -5.9460 O.co2  56  ASP56      -0.2456
     19  OD2        7.2180   -5.3390   -4.8570 O.co2  56  ASP56      -0.2456
     20  N          4.5190  -10.4320   -2.6230 N.3    58  ILE58      -0.1245
     21  CA         5.2640  -11.6050   -3.0630 C.3    58  ILE58       0.1561
     22  C          5.1540  -12.8030   -2.1150 C.2    58  ILE58       0.2260
     23  O          4.8520  -12.6610   -0.9270 O.2    58  ILE58      -0.2867
     24  CB         6.7950  -11.2780   -3.2960 C.3    58  ILE58       0.0252
     25  CG1        7.5090  -11.0070   -1.9630 C.3    58  ILE58       0.0019
     26  CG2        6.9550  -10.1010   -4.2260 C.3    58  ILE58       0.0019
     27  CD1        9.0100  -10.6950   -2.0430 C.3    58  ILE58       0.0001
     28  N          7.3870  -16.8350   -1.7410 N.3    60  TRP60      -0.1241
     29  CA         8.4540  -17.6840   -2.2300 C.3    60  TRP60       0.1605
     30  C          7.9890  -19.1360   -2.2600 C.2    60  TRP60       0.2264
     31  O          7.5380  -19.6790   -1.2470 O.2    60  TRP60      -0.2867
     32  CB         9.6860  -17.4970   -1.3630 C.3    60  TRP60       0.0550
     33  CG        10.2430  -16.1020   -1.4480 C.ar   60  TRP60       0.0003
     34  CD1        9.9440  -15.0520   -0.6370 C.ar   60  TRP60       0.0946
     35  CD2       11.2150  -15.6230   -2.3860 C.ar   60  TRP60       0.0152
     36  NE1       10.6640  -13.9490   -1.0120 N.ar   60  TRP60      -0.2442
     37  CE2       11.4390  -14.2660   -2.0940 C.ar   60  TRP60       0.0810
     38  CE3       11.8980  -16.2060   -3.4570 C.ar   60  TRP60       0.0012
     39  CZ2       12.3570  -13.4830   -2.8090 C.ar   60  TRP60       0.0191
     40  CZ3       12.8140  -15.4310   -4.1690 C.ar   60  TRP60       0.0001
     41  CH2       13.0340  -14.0820   -3.8340 C.ar   60  TRP60       0.0015
     42  N          9.9130  -16.6590   -6.8840 N.3   101  MET101     -0.1245
     43  CA         9.2890  -15.4860   -6.3250 C.3   101  MET101      0.1570
     44  C          8.0340  -15.1790   -7.1340 C.2   101  MET101      0.2261
     45  O          8.1120  -14.7010   -8.2750 O.2   101  MET101     -0.2867
     46  CB        10.2140  -14.2690   -6.3250 C.3   101  MET101      0.0387
     47  CG         9.6400  -13.1480   -5.4680 C.3   101  MET101      0.0595
     48  SD        10.3910  -11.5780   -5.7470 S.3   101  MET101     -0.1393
     49  CE         9.8000  -11.3040   -7.4380 C.3   101  MET101      0.0692
     50  N          5.0360  -12.9200   -7.7500 N.3   103  ALA103     -0.1245
     51  CA         4.7750  -11.5050   -7.4520 C.3   103  ALA103      0.1562
     52  C          3.4740  -11.0370   -8.0490 C.2   103  ALA103      0.2260
     53  O          3.1270  -11.4530   -9.1430 O.2   103  ALA103     -0.2867
     54  CB         5.9220  -10.6360   -7.9330 C.3   103  ALA103      0.0290
     55  N          1.4710   -7.2710   -8.6470 N.3   105  TYR105     -0.1241
     56  CA         1.2410   -5.8120   -8.5380 C.3   105  TYR105      0.1605
     57  C         -0.2730   -5.6510   -8.5960 C.2   105  TYR105      0.2264
     58  O         -0.8950   -5.8970   -9.6290 O.2   105  TYR105     -0.2867
     59  CB         1.9050   -5.0140   -9.6700 C.3   105  TYR105      0.0534
     60  CG         3.4000   -5.0640   -9.6110 C.ar  105  TYR105     -0.0201
     61  CD1        4.1350   -4.0410   -9.0250 C.ar  105  TYR105     -0.0009
     62  CD2        4.0920   -6.1460  -10.1250 C.ar  105  TYR105     -0.0009
     63  CE1        5.5060   -4.1190   -8.9390 C.ar  105  TYR105      0.0417
     64  CE2        5.4420   -6.2330  -10.0360 C.ar  105  TYR105      0.0417
     65  CZ         6.1610   -5.2090   -9.4690 C.ar  105  TYR105      0.1957
     66  OH         7.5280   -5.3100   -9.3930 O.3   105  TYR105     -0.2866
     67  N          7.6700   -0.5360   -9.6490 N.3   112  TYR112     -0.1241
     68  CA         8.9730   -0.7590   -9.0540 C.3   112  TYR112      0.1605
     69  C          9.9290    0.2440   -9.6730 C.2   112  TYR112      0.2264
     70  O         10.0720    0.2640  -10.8790 O.2   112  TYR112     -0.2867
     71  CB         9.4590   -2.1900   -9.3390 C.3   112  TYR112      0.0534
     72  CG        10.4780   -2.7590   -8.3720 C.ar  112  TYR112     -0.0201
     73  CD1       10.3770   -4.0780   -7.9310 C.ar  112  TYR112     -0.0009
     74  CD2       11.5440   -2.0080   -7.8980 C.ar  112  TYR112     -0.0009
     75  CE1       11.3030   -4.6230   -7.0500 C.ar  112  TYR112      0.0417
     76  CE2       12.4800   -2.5530   -7.0150 C.ar  112  TYR112      0.0417
     77  CZ        12.3500   -3.8640   -6.6020 C.ar  112  TYR112      0.1957
     78  OH        13.2670   -4.4060   -5.7330 O.3   112  TYR112     -0.2866
     79  N         16.0550   -0.0130  -10.8780 N.3   115  HIS115     -0.1241
     80  CA        16.9720   -0.7120  -10.0130 C.3   115  HIS115      0.1621
     81  C         17.7940   -1.7440  -10.7750 C.2   115  HIS115      0.2264
     82  O         17.5550   -2.0380  -11.9650 O.2   115  HIS115     -0.2867
     83  CB        16.1920   -1.4040   -8.9230 C.3   115  HIS115      0.0745
     84  CG        15.3420   -2.5190   -9.4360 C.ar  115  HIS115      0.0817
     85  ND1       14.0810   -2.3210   -9.9570 N.ar  115  HIS115     -0.2268
     86  CD2       15.5970   -3.8400   -9.5540 C.ar  115  HIS115      0.1154
     87  CE1       13.5800   -3.4840  -10.3270 C.ar  115  HIS115      0.1986
     88  NE2       14.5000   -4.4160  -10.1290 N.ar  115  HIS115     -0.2212
     89  N         19.0890   -5.7420  -10.0870 N.3   117  ASP117     -0.1239
     90  CA        18.7370   -6.8690   -9.2090 C.3   117  ASP117      0.1674
     91  C         19.8810   -7.2880   -8.3130 C.2   117  ASP117      0.2266
     92  O         19.6490   -7.6290   -7.1700 O.2   117  ASP117     -0.2867
     93  CB        18.2960   -8.1000  -10.0140 C.3   117  ASP117      0.1410
     94  CG        16.8810   -7.9780  -10.5690 C.2   117  ASP117      0.3668
     95  OD1       16.4680   -8.9060  -11.3090 O.co2 117  ASP117     -0.2456
     96  OD2       16.1760   -6.9670  -10.3100 O.co2 117  ASP117     -0.2456
     97  N         12.2310  -14.5220  -15.6900 N.3   125  ILE125     -0.1245
     98  CA        10.8610  -14.1020  -15.3490 C.3   125  ILE125      0.1561
     99  C          9.8550  -14.7510  -16.2850 C.2   125  ILE125      0.2260
    100  O         10.0570  -14.7770  -17.5000 O.2   125  ILE125     -0.2867
    101  CB        10.6610  -12.5660  -15.3660 C.3   125  ILE125      0.0252
    102  CG1       11.7740  -11.8480  -14.5860 C.3   125  ILE125      0.0019
    103  CG2        9.2640  -12.2310  -14.7720 C.3   125  ILE125      0.0019
    104  CD1       11.6420  -10.3610  -14.5390 C.3   125  ILE125      0.0001
    105  N          5.8040  -14.5820  -17.2390 N.3   127  TYR127     -0.1241
    106  CA         4.6080  -13.7520  -17.0920 C.3   127  TYR127      0.1605
    107  C          3.3300  -14.5340  -17.3340 C.2   127  TYR127      0.2264
    108  O          3.2990  -15.4820  -18.1100 O.2   127  TYR127     -0.2867
    109  CB         4.6820  -12.5530  -18.0250 C.3   127  TYR127      0.0534
    110  CG         5.8060  -11.6140  -17.6940 C.ar  127  TYR127     -0.0201
    111  CD1        5.7190  -10.7430  -16.6080 C.ar  127  TYR127     -0.0009
    112  CD2        6.9440  -11.5900  -18.4660 C.ar  127  TYR127     -0.0009
    113  CE1        6.7570   -9.8660  -16.3040 C.ar  127  TYR127      0.0417
    114  CE2        7.9930  -10.7270  -18.1770 C.ar  127  TYR127      0.0417
    115  CZ         7.8880   -9.8530  -17.1000 C.ar  127  TYR127      0.1957
    116  OH         8.9210   -8.9770  -16.8040 O.3   127  TYR127     -0.2866
    117  N          7.6570   -3.6120  -18.2230 N.3   141  LEU141     -0.1245
    118  CA         9.0380   -3.6820  -17.7770 C.3   141  LEU141      0.1561
    119  C          9.9100   -2.8900  -18.7580 C.2   141  LEU141      0.2260
    120  O         10.0250   -3.2350  -19.9350 O.2   141  LEU141     -0.2867
    121  CB         9.5090   -5.1370  -17.7210 C.3   141  LEU141      0.0270
    122  CG        11.0090   -5.3430  -17.3910 C.3   141  LEU141      0.0019
    123  CD1       11.3430   -4.9610  -15.9300 C.3   141  LEU141      0.0001
    124  CD2       11.4260   -6.7820  -17.6910 C.3   141  LEU141      0.0001
    125  N         16.5240   -1.7690  -14.6350 N.3   172  HIS172     -0.1241
    126  CA        15.1530   -1.9230  -15.1550 C.3   172  HIS172      0.1621
    127  C         14.1440   -1.4220  -14.1210 C.2   172  HIS172      0.2264
    128  O         14.4700   -1.2390  -12.9600 O.2   172  HIS172     -0.2867
    129  CB        14.8850   -3.3970  -15.5410 C.3   172  HIS172      0.0745
    130  CG        15.1350   -4.3560  -14.4150 C.ar  172  HIS172      0.0817
    131  ND1       16.3990   -4.7820  -14.0750 N.ar  172  HIS172     -0.2268
    132  CD2       14.2890   -4.9290  -13.5330 C.ar  172  HIS172      0.1154
    133  CE1       16.3120   -5.5840  -13.0210 C.ar  172  HIS172      0.1986
    134  NE2       15.0400   -5.6980  -12.6830 N.ar  172  HIS172     -0.2212
    135  N          9.5970   -1.3450  -13.2710 N.3   174  VAL174     -0.1245
    136  CA         8.2420   -1.7350  -13.6340 C.3   174  VAL174      0.1561
    137  C          7.3710   -0.4920  -13.5890 C.2   174  VAL174      0.2260
    138  O          7.1870    0.1300  -12.5170 O.2   174  VAL174     -0.2867
    139  CB         7.6820   -2.8400  -12.7040 C.3   174  VAL174      0.0252
    140  CG1        6.2530   -3.1830  -13.1160 C.3   174  VAL174      0.0019
    141  CG2        8.5670   -4.0960  -12.7250 C.3   174  VAL174      0.0019
    142  N         -1.3410   -7.6690  -11.8820 N.3   181  ARG181     -0.1245
    143  CA        -0.2320   -8.0980  -12.7330 C.3   181  ARG181      0.1563
    144  C          0.5820   -9.1480  -12.0020 C.2   181  ARG181      0.2260
    145  O          1.0860   -8.8860  -10.9100 O.2   181  ARG181     -0.2867
    146  CB         0.6850   -6.9220  -13.0270 C.3   181  ARG181      0.0307
    147  CG         1.8540   -7.2140  -13.9730 C.3   181  ARG181      0.0489
    148  CD         2.7620   -6.0260  -13.9010 C.3   181  ARG181      0.2205
    149  NE         3.9340   -5.9710  -14.7840 N.pl3 181  ARG181     -0.0865
    150  CZ         5.1190   -6.5140  -14.5340 C.cat 181  ARG181      0.5346
    151  NH1        5.3030   -7.3070  -13.4890 N.pl3 181  ARG181      0.1354
    152  NH2        6.1150   -6.3130  -15.3860 N.pl3 181  ARG181      0.1354
    153  N          3.5740  -12.3470  -12.0820 N.3   183  ALA183     -0.1245
    154  CA         4.8170  -12.8410  -12.6560 C.3   183  ALA183      0.1562
    155  C          5.5150  -13.7710  -11.6510 C.2   183  ALA183      0.2260
    156  O          5.3350  -13.6470  -10.4460 O.2   183  ALA183     -0.2867
    157  CB         5.7370  -11.6760  -13.0550 C.3   183  ALA183      0.0290
    158  N          9.4870  -15.0900  -10.7340 N.3   185  THR185     -0.1218
    159  CA        10.9150  -14.9070  -11.0000 C.3   185  THR185      0.1862
    160  C         11.7510  -15.9290  -10.2740 C.2   185  THR185      0.2287
    161  O         11.4760  -16.2660   -9.1440 O.2   185  THR185     -0.2866
    162  CB        11.4110  -13.4850  -10.5840 C.3   185  THR185      0.1770
    163  OG1       10.6360  -12.5080  -11.2640 O.3   185  THR185     -0.2211
    164  CG2       12.9340  -13.2550  -10.9100 C.3   185  THR185      0.0375
    165  N         16.0280  -16.4560   -9.7110 N.3   187  TRP187     -0.1241
    166  CA        17.3790  -16.0160   -9.9920 C.3   187  TRP187      0.1605
    167  C         18.3400  -17.2100   -9.9010 C.2   187  TRP187      0.2264
    168  O         18.3320  -17.9540   -8.9170 O.2   187  TRP187     -0.2867
    169  CB        17.8290  -14.9370   -9.0010 C.3   187  TRP187      0.0550
    170  CG        17.1730  -13.6190   -9.1640 C.ar  187  TRP187      0.0003
    171  CD1       17.6010  -12.5750   -9.9250 C.ar  187  TRP187      0.0946
    172  CD2       15.9610  -13.1990   -8.5380 C.ar  187  TRP187      0.0152
    173  NE1       16.7300  -11.5120   -9.7950 N.ar  187  TRP187     -0.2442
    174  CE2       15.6990  -11.8820   -8.9680 C.ar  187  TRP187      0.0810
    175  CE3       15.0460  -13.8280   -7.6840 C.ar  187  TRP187      0.0012
    176  CZ2       14.5730  -11.1460   -8.5200 C.ar  187  TRP187      0.0191
    177  CZ3       13.9320  -13.1040   -7.2400 C.ar  187  TRP187      0.0001
    178  CH2       13.6970  -11.7800   -7.6780 C.ar  187  TRP187      0.0015
@<TRIPOS>BOND
     1   120   119    2
     2   119   118    1
     3   112   114   ar
     4   112   110   ar
     5   117   118    1
     6   114   115   ar
     7   108   107    2
     8   109   110    1
     9   109   106    1
    10   118   121    1
    11   121   122    1
    12   110   111   ar
    13   124   122    1
    14   100    99    2
    15   122   123    1
    16   107   106    1
    17   105   106    1
    18   115   116    1
    19   115   113   ar
    20   111   113   ar
    21    99    98    1
    22    97    98    1
    23   129   126    1
    24   129   130    1
    25   152   150    1
    26   101    98    1
    27   101   103    1
    28   101   102    1
    29   126   125    1
    30   126   127    1
    31   149   150    2
    32   149   148    1
    33   102   104    1
    34   150   151    1
    35   130   131   ar
    36   130   132   ar
    37   127   128    2
    38   131   133   ar
    39   147   148    1
    40   147   146    1
    41   136   137    1
    42   136   135    1
    43   136   139    1
    44   137   138    2
    45   132   134   ar
    46   140   139    1
    47   157   154    1
    48   146   143    1
    49   133   134   ar
    50   143   144    1
    51   143   142    1
    52   141   139    1
    53   154   153    1
    54   154   155    1
    55   144   145    2
    56    82    81    2
    57   155   156    2
    58    95    94   ar
    59   163   162    1
    60   159   158    1
    61   159   162    1
    62   159   160    1
    63   164   162    1
    64    70    69    2
    65    79    80    1
    66    81    80    1
    67    94    96   ar
    68    94    93    1
    69    87    88   ar
    70    87    85   ar
    71   160   161    2
    72    88    86   ar
    73    62    64   ar
    74    62    60   ar
    75    89    90    1
    76    64    65   ar
    77    93    90    1
    78    80    83    1
    79   166   167    1
    80   166   165    1
    81   166   169    1
    82    85    84   ar
    83   171   173   ar
    84   171   170   ar
    85   167   168    2
    86   173   174   ar
    87    69    68    1
    88    59    60    1
    89    59    56    1
    90    67    68    1
    91    58    57    2
    92    60    61   ar
    93    86    84   ar
    94    65    66    1
    95    65    63   ar
    96    84    83    1
    97    71    68    1
    98    71    72    1
    99    90    91    1
   100   170   169    1
   101   170   172   ar
   102    53    52    2
   103    61    63   ar
   104   174   172   ar
   105   174   176   ar
   106    55    56    1
   107    57    56    1
   108   172   175   ar
   109   176   178   ar
   110    72    73   ar
   111    72    74   ar
   112    91    92    2
   113    45    44    2
   114    52    51    1
   115    54    51    1
   116    73    75   ar
   117    74    76   ar
   118    50    51    1
   119   175   177   ar
   120   178   177   ar
   121    49    48    1
   122    44    43    1
   123    75    77   ar
   124    76    77   ar
   125    42    43    1
   126    77    78    1
   127    46    43    1
   128    46    47    1
   129    16    17    1
   130    16    13    1
   131    18    17   ar
   132    48    47    1
   133    17    19   ar
   134    13    12    1
   135    13    14    1
   136     2     5    1
   137     2     3    1
   138     2     1    1
   139     5     6    1
   140     3     4    2
   141    26    24    1
   142    40    41   ar
   143    40    38   ar
   144    11     9    1
   145    14    15    2
   146     8     9    2
   147     8     7    1
   148    41    39   ar
   149     9    10    1
   150     7     6    1
   151    38    35   ar
   152    24    21    1
   153    24    25    1
   154    21    20    1
   155    21    22    1
   156    39    37   ar
   157    35    37   ar
   158    35    33   ar
   159    30    29    1
   160    30    31    2
   161    29    28    1
   162    29    32    1
   163    22    23    2
   164    37    36   ar
   165    27    25    1
   166    33    32    1
   167    33    34   ar
   168    36    34   ar
