@<TRIPOS>MOLECULE
tmp/3oumA00.pdb
 130 126 0 0 0
SMALL
GASTEIGER

@<TRIPOS>ATOM
      1  N       -196.3050  122.2860   18.7560 N.3    57  HIS57      -0.1241
      2  CA      -197.6140  122.2450   19.3880 C.3    57  HIS57       0.1621
      3  C       -198.5450  121.5510   18.3910 C.2    57  HIS57       0.2264
      4  O       -198.8580  122.0980   17.3270 O.2    57  HIS57      -0.2867
      5  CB      -198.1010  123.6480   19.6870 C.3    57  HIS57       0.0745
      6  CG      -199.5330  123.6960   20.1080 C.ar   57  HIS57       0.0817
      7  ND1     -200.0340  122.9140   21.1260 N.ar   57  HIS57      -0.2268
      8  CD2     -200.5830  124.3960   19.6190 C.ar   57  HIS57       0.1154
      9  CE1     -201.3320  123.1270   21.2440 C.ar   57  HIS57       0.1986
     10  NE2     -201.6900  124.0220   20.3410 N.ar   57  HIS57      -0.2212
     11  N       -212.3270  126.9210   24.4760 N.3    91  PHE91      -0.1241
     12  CA      -212.0720  128.0870   23.6510 C.3    91  PHE91       0.1605
     13  C       -213.3460  128.4130   22.9010 C.2    91  PHE91       0.2264
     14  O       -213.7560  127.6760   22.0010 O.2    91  PHE91      -0.2867
     15  CB      -210.9150  127.8270   22.6800 C.3    91  PHE91       0.0534
     16  CG      -209.6580  127.3480   23.3530 C.ar   91  PHE91      -0.0203
     17  CD1     -209.3290  126.0010   23.3540 C.ar   91  PHE91      -0.0042
     18  CD2     -208.8080  128.2450   23.9910 C.ar   91  PHE91      -0.0042
     19  CE1     -208.1630  125.5450   23.9820 C.ar   91  PHE91      -0.0003
     20  CE2     -207.6450  127.8040   24.6210 C.ar   91  PHE91      -0.0003
     21  CZ      -207.3200  126.4520   24.6160 C.ar   91  PHE91      -0.0000
     22  N       -213.4360  128.5970   18.9420 N.3    94  PHE94      -0.1241
     23  CA      -213.4960  127.3130   18.2490 C.3    94  PHE94       0.1605
     24  C       -214.6290  126.4570   18.8240 C.2    94  PHE94       0.2264
     25  O       -214.9150  125.3700   18.3140 O.2    94  PHE94      -0.2867
     26  CB      -212.1760  126.5380   18.4190 C.3    94  PHE94       0.0534
     27  CG      -210.9780  127.2020   17.7820 C.ar   94  PHE94      -0.0203
     28  CD1     -210.9050  127.3630   16.4000 C.ar   94  PHE94      -0.0042
     29  CD2     -209.9120  127.6390   18.5630 C.ar   94  PHE94      -0.0042
     30  CE1     -209.7840  127.9530   15.8040 C.ar   94  PHE94      -0.0003
     31  CE2     -208.7890  128.2290   17.9810 C.ar   94  PHE94      -0.0003
     32  CZ      -208.7260  128.3850   16.5950 C.ar   94  PHE94      -0.0000
     33  N       -204.4090  118.6700   27.3610 N.3   100  TYR100     -0.1241
     34  CA      -202.9610  118.7060   27.0220 C.3   100  TYR100      0.1605
     35  C       -201.9870  117.7910   27.7860 C.2   100  TYR100      0.2264
     36  O       -202.1380  117.5700   28.9880 O.2   100  TYR100     -0.2867
     37  CB      -202.3890  120.1220   27.1960 C.3   100  TYR100      0.0534
     38  CG      -203.1220  121.2210   26.4760 C.ar  100  TYR100     -0.0201
     39  CD1     -204.3190  121.7190   26.9800 C.ar  100  TYR100     -0.0009
     40  CD2     -202.6230  121.7620   25.2880 C.ar  100  TYR100     -0.0009
     41  CE1     -205.0050  122.7230   26.3280 C.ar  100  TYR100      0.0417
     42  CE2     -203.3080  122.7780   24.6180 C.ar  100  TYR100      0.0417
     43  CZ      -204.5020  123.2470   25.1540 C.ar  100  TYR100      0.1957
     44  OH      -205.2190  124.2360   24.5130 O.3   100  TYR100     -0.2866
     45  N       -196.1750  119.7130   22.8280 N.3   108  ILE108     -0.1245
     46  CA      -197.4260  119.9950   23.5140 C.3   108  ILE108      0.1561
     47  C       -198.5050  119.2630   22.7230 C.2   108  ILE108      0.2260
     48  O       -198.9900  119.7580   21.7090 O.2   108  ILE108     -0.2867
     49  CB      -197.6910  121.5110   23.5160 C.3   108  ILE108      0.0252
     50  CG1     -196.4540  122.2210   24.0850 C.3   108  ILE108      0.0019
     51  CG2     -198.9490  121.8360   24.3400 C.3   108  ILE108      0.0019
     52  CD1     -196.3750  123.6850   23.7640 C.3   108  ILE108      0.0001
     53  N       -202.1080  117.9990   22.1540 N.3   110  GLU110     -0.1245
     54  CA      -203.4430  118.3900   22.5660 C.3   110  GLU110      0.1567
     55  C       -204.5790  117.6110   21.9090 C.2   110  GLU110      0.2260
     56  O       -204.5290  117.2670   20.7150 O.2   110  GLU110     -0.2867
     57  CB      -203.6190  119.8890   22.2860 C.3   110  GLU110      0.0388
     58  CG      -205.0290  120.4350   22.4280 C.3   110  GLU110      0.1160
     59  CD      -205.1170  121.8780   21.9550 C.2   110  GLU110      0.3649
     60  OE1     -204.0680  122.4680   21.6650 O.co2 110  GLU110     -0.2457
     61  OE2     -206.2270  122.4290   21.8840 O.co2 110  GLU110     -0.2457
     62  N       -204.5790  121.0790   14.6360 N.3   135  GLU135     -0.1245
     63  CA      -203.7330  122.2640   14.6920 C.3   135  GLU135      0.1567
     64  C       -202.2620  121.9000   14.6760 C.2   135  GLU135      0.2260
     65  O       -201.8640  120.8260   15.1280 O.2   135  GLU135     -0.2867
     66  CB      -203.9910  123.0710   15.9650 C.3   135  GLU135      0.0388
     67  CG      -205.4210  123.4960   16.2430 C.3   135  GLU135      0.1160
     68  CD      -205.5090  124.2650   17.5540 C.2   135  GLU135      0.3649
     69  OE1     -204.5310  124.1990   18.3220 O.co2 135  GLU135     -0.2457
     70  OE2     -206.5430  124.9210   17.8210 O.co2 135  GLU135     -0.2457
     71  N       -200.1470  135.6010   17.5140 N.3   167  LEU167     -0.1245
     72  CA      -200.5980  134.3440   16.9360 C.3   167  LEU167      0.1561
     73  C       -201.7970  134.6210   16.0310 C.2   167  LEU167      0.2260
     74  O       -202.6680  135.4320   16.3690 O.2   167  LEU167     -0.2867
     75  CB      -200.9920  133.3780   18.0580 C.3   167  LEU167      0.0270
     76  CG      -201.1700  131.9080   17.6630 C.3   167  LEU167      0.0019
     77  CD1     -199.8570  131.4050   17.0790 C.3   167  LEU167      0.0001
     78  CD2     -201.5660  131.0790   18.8730 C.3   167  LEU167      0.0001
     79  N       -204.7860  132.5940   13.6800 N.3   169  PHE169     -0.1241
     80  CA      -205.4290  131.3320   13.3230 C.3   169  PHE169      0.1605
     81  C       -205.7690  131.3720   11.8330 C.2   169  PHE169      0.2264
     82  O       -206.5080  132.2500   11.3890 O.2   169  PHE169     -0.2867
     83  CB      -206.7140  131.1300   14.1310 C.3   169  PHE169      0.0534
     84  CG      -206.4900  131.0320   15.6090 C.ar  169  PHE169     -0.0203
     85  CD1     -205.5640  130.1310   16.1220 C.ar  169  PHE169     -0.0042
     86  CD2     -207.2140  131.8250   16.4910 C.ar  169  PHE169     -0.0042
     87  CE1     -205.3590  130.0200   17.5000 C.ar  169  PHE169     -0.0003
     88  CE2     -207.0200  131.7260   17.8750 C.ar  169  PHE169     -0.0003
     89  CZ      -206.0910  130.8200   18.3810 C.ar  169  PHE169     -0.0000
     90  N       -201.5130  127.5650   13.3420 N.3   178  LEU178     -0.1245
     91  CA      -201.2140  128.6150   14.3070 C.3   178  LEU178      0.1561
     92  C       -199.9750  129.3910   13.8490 C.2   178  LEU178      0.2260
     93  O       -198.8460  129.0910   14.2580 O.2   178  LEU178     -0.2867
     94  CB      -201.0010  128.0110   15.6940 C.3   178  LEU178      0.0270
     95  CG      -202.3020  127.8630   16.5120 C.3   178  LEU178      0.0019
     96  CD1     -203.3290  127.0770   15.7250 C.3   178  LEU178      0.0001
     97  CD2     -202.0260  127.1680   17.8300 C.3   178  LEU178      0.0001
     98  N       -194.7450  132.4790   25.0310 N.3   185  ARG185     -0.1231
     99  CA      -194.9500  131.2270   25.7480 C.3   185  ARG185      0.1694
    100  C       -196.2170  130.5180   25.2710 C.2   185  ARG185      0.2592
    101  O       -197.2430  131.1610   25.0400 O.2   185  ARG185     -0.2718
    102  CB      -195.0680  131.5130   27.2520 C.3   185  ARG185      0.0321
    103  CG      -195.1880  130.2680   28.1040 C.3   185  ARG185      0.0489
    104  CD      -195.3040  130.6190   29.5780 C.3   185  ARG185      0.2205
    105  NE      -196.6000  131.2050   29.9090 N.pl3 185  ARG185     -0.0865
    106  CZ      -197.7190  130.5060   30.0430 C.cat 185  ARG185      0.5346
    107  NH1     -197.7040  129.1890   29.8810 N.pl3 185  ARG185      0.1354
    108  NH2     -198.8560  131.1190   30.3310 N.pl3 185  ARG185      0.1354
    109  N       -196.1610  129.2000   25.1110 N.am  186  TRP186     -0.1962
    110  CA      -197.3590  128.4620   24.6870 C.3   186  TRP186      0.1771
    111  C       -198.2550  128.2090   25.9060 C.2   186  TRP186      0.2619
    112  O       -197.7620  127.8080   26.9560 O.2   186  TRP186     -0.2715
    113  CB      -196.9950  127.0950   24.0790 C.3   186  TRP186      0.0590
    114  CG      -196.3680  127.1330   22.7240 C.ar  186  TRP186      0.0006
    115  CD1     -195.0740  126.8330   22.4110 C.ar  186  TRP186      0.0946
    116  CD2     -196.9990  127.5120   21.4970 C.ar  186  TRP186      0.0152
    117  NE1     -194.8590  127.0040   21.0640 N.ar  186  TRP186     -0.2442
    118  CE2     -196.0210  127.4280   20.4790 C.ar  186  TRP186      0.0810
    119  CE3     -198.2900  127.9270   21.1610 C.ar  186  TRP186      0.0012
    120  CZ2     -196.2990  127.7330   19.1370 C.ar  186  TRP186      0.0191
    121  CZ3     -198.5710  128.2310   19.8250 C.ar  186  TRP186      0.0001
    122  CH2     -197.5740  128.1360   18.8310 C.ar  186  TRP186      0.0015
    123  N       -199.5590  128.4470   25.7770 N.am  187  LEU187     -0.1977
    124  CA      -200.4650  128.1740   26.8910 C.3   187  LEU187      0.1596
    125  C       -200.2980  126.7010   27.2570 C.2   187  LEU187      0.2287
    126  O       -200.0340  125.8770   26.3880 O.2   187  LEU187     -0.2864
    127  CB      -201.9140  128.4240   26.5040 C.3   187  LEU187      0.0297
    128  CG      -202.2810  129.8870   26.2720 C.3   187  LEU187      0.0022
    129  CD1     -203.7840  129.9920   26.0140 C.3   187  LEU187      0.0001
    130  CD2     -201.8880  130.7100   27.4860 C.3   187  LEU187      0.0001
@<TRIPOS>BOND
     1    82    81    2
     2    81    80    1
     3    80    79    1
     4    80    83    1
     5    90    91    1
     6    92    93    2
     7    92    91    1
     8    83    84    1
     9    91    94    1
    10    62    63    1
    11    64    63    1
    12    64    65    2
    13    63    66    1
    14    84    85   ar
    15    84    86   ar
    16    94    95    1
    17    96    95    1
    18    30    28   ar
    19    30    32   ar
    20    66    67    1
    21    73    74    2
    22    73    72    1
    23    85    87   ar
    24    67    68    1
    25    28    27   ar
    26    86    88   ar
    27    95    97    1
    28    32    31   ar
    29    72    71    1
    30    72    75    1
    31    77    76    1
    32     4     3    2
    33    87    89   ar
    34    68    70   ar
    35    68    69   ar
    36    76    75    1
    37    76    78    1
    38    27    26    1
    39    27    29   ar
    40    88    89   ar
    41    31    29   ar
    42    23    26    1
    43    23    24    1
    44    23    22    1
    45    25    24    2
    46     3     2    1
    47     1     2    1
    48   122   120   ar
    49   122   121   ar
    50   120   118   ar
    51     2     5    1
    52     8     6   ar
    53     8    10   ar
    54     5     6    1
    55   121   119   ar
    56     6     7   ar
    57    10     9   ar
    58   118   117   ar
    59   118   116   ar
    60    56    55    2
    61   117   115   ar
    62     7     9   ar
    63   119   116   ar
    64   116   114   ar
    65    60    59   ar
    66    48    47    2
    67    61    59   ar
    68    55    54    1
    69    59    58    1
    70    14    13    2
    71    53    54    1
    72    57    58    1
    73    57    54    1
    74   115   114   ar
    75    15    16    1
    76    15    12    1
    77    47    46    1
    78   114   113    1
    79    45    46    1
    80    13    12    1
    81    16    17   ar
    82    16    18   ar
    83    17    19   ar
    84    46    49    1
    85    49    50    1
    86    49    51    1
    87    12    11    1
    88    52    50    1
    89    19    21   ar
    90    18    20   ar
    91   113   110    1
    92    44    43    1
    93    21    20   ar
    94    42    43   ar
    95    42    40   ar
    96   110   109    1
    97   110   111    1
    98    98    99    1
    99   101   100    2
   100   109   100   am
   101    43    41   ar
   102   100    99    1
   103    40    38   ar
   104    99   102    1
   105   123   111   am
   106   123   124    1
   107   111   112    2
   108   129   128    1
   109   128   127    1
   110   128   130    1
   111    41    39   ar
   112   126   125    2
   113    38    39   ar
   114    38    37    1
   115   127   124    1
   116   124   125    1
   117    34    37    1
   118    34    33    1
   119    34    35    1
   120   102   103    1
   121    35    36    2
   122   103   104    1
   123   104   105    1
   124   107   106    1
   125   105   106    2
   126   106   108    1
