@<TRIPOS>MOLECULE
tmp/3outC00.pdb
 127 122 0 0 0
SMALL
GASTEIGER

@<TRIPOS>ATOM
      1  N         40.0930   63.8740   71.3660 N.3    10  ASP10      -0.1225
      2  CA        39.9990   64.8720   70.3160 C.3    10  ASP10       0.1805
      3  C         40.8060   66.0810   70.6940 C.2    10  ASP10       0.2598
      4  O         41.0380   66.3410   71.8830 O.2    10  ASP10      -0.2718
      5  CB        38.5300   65.2600   70.1200 C.3    10  ASP10       0.1424
      6  CG        38.2300   65.9490   68.7680 C.2    10  ASP10       0.3668
      7  OD1       39.1020   65.9970   67.8690 O.co2  10  ASP10      -0.2456
      8  OD2       37.0850   66.4500   68.6250 O.co2  10  ASP10      -0.2456
      9  N         41.1770   66.8660   69.6770 N.am   11  SER11      -0.1938
     10  CA        41.5250   68.2590   69.8650 C.3    11  SER11       0.2055
     11  C         40.2360   69.0180   70.1980 C.2    11  SER11       0.2643
     12  O         40.1060   69.6340   71.2900 O.2    11  SER11      -0.2714
     13  CB        42.2550   68.7760   68.6170 C.3    11  SER11       0.2130
     14  OG        41.5360   68.4070   67.4400 O.3    11  SER11      -0.2179
     15  N         39.2630   68.9730   69.2920 N.am   12  GLY12      -0.1954
     16  CA        37.9390   69.4850   69.6100 C.3    12  GLY12       0.1869
     17  C         36.9920   69.4890   68.4400 C.2    12  GLY12       0.2309
     18  O         37.3920   69.7260   67.3040 O.2    12  GLY12      -0.2863
     19  N         41.6010   74.9680   71.0910 N.3    39  ILE39      -0.1231
     20  CA        41.5930   74.6920   69.6620 C.3    39  ILE39       0.1678
     21  C         41.6740   75.9970   68.8690 C.2    39  ILE39       0.2434
     22  O         41.2800   77.0630   69.3730 O.2    39  ILE39      -0.2733
     23  CB        40.3340   73.8770   69.2030 C.3    39  ILE39       0.0265
     24  CG1       39.0580   74.5220   69.7370 C.3    39  ILE39       0.0019
     25  CG2       40.4790   72.4360   69.6940 C.3    39  ILE39       0.0020
     26  CD1       37.7330   73.8770   69.1780 C.3    39  ILE39       0.0001
     27  N         42.1880   75.9200   67.6390 N.am   40  PRO40      -0.2718
     28  CA        42.5850   74.7340   66.9130 C.3    40  PRO40       0.1535
     29  C         43.9810   74.2450   67.2870 C.2    40  PRO40       0.2599
     30  O         44.8480   75.0620   67.7040 O.2    40  PRO40      -0.2715
     31  CB        42.6040   75.1930   65.4560 C.3    40  PRO40       0.0310
     32  CG        42.9760   76.6310   65.5680 C.3    40  PRO40       0.0237
     33  CD        42.3140   77.1330   66.7970 C.3    40  PRO40       0.0939
     34  N         44.1970   72.9460   67.1180 N.am   41  TYR41      -0.1960
     35  CA        45.5560   72.4050   67.1710 C.3    41  TYR41       0.1771
     36  C         46.2580   72.4750   65.8150 C.2    41  TYR41       0.2620
     37  O         47.4880   72.4590   65.7380 O.2    41  TYR41      -0.2715
     38  CB        45.5620   70.9560   67.6790 C.3    41  TYR41       0.0574
     39  CG        45.3170   70.7120   69.1660 C.ar   41  TYR41      -0.0198
     40  CD1       44.6640   71.6250   70.0010 C.ar   41  TYR41      -0.0009
     41  CD2       45.6650   69.4910   69.7120 C.ar   41  TYR41      -0.0009
     42  CE1       44.4310   71.3480   71.3370 C.ar   41  TYR41       0.0417
     43  CE2       45.4320   69.1850   71.0250 C.ar   41  TYR41       0.0417
     44  CZ        44.8150   70.1130   71.8610 C.ar   41  TYR41       0.1957
     45  OH        44.5930   69.7440   73.1570 O.3    41  TYR41      -0.2866
     46  N         45.4830   72.4890   64.7250 N.am   42  GLY42      -0.1954
     47  CA        46.0480   72.3920   63.3700 C.3    42  GLY42       0.1869
     48  C         47.0010   73.4750   62.9280 C.2    42  GLY42       0.2309
     49  O         47.7570   73.2640   62.0040 O.2    42  GLY42      -0.2863
     50  N         41.5020   62.7460   66.3010 N.3    72  CYS72      -0.1221
     51  CA        42.1150   63.8910   65.6360 C.3    72  CYS72       0.1808
     52  C         43.3300   63.4790   64.8550 C.2    72  CYS72       0.2601
     53  O         44.2460   62.8390   65.3690 O.2    72  CYS72      -0.2717
     54  CB        42.4390   64.9470   66.7010 C.3    72  CYS72       0.0970
     55  SG        43.3830   66.3680   66.1100 S.3    72  CYS72      -0.0800
     56  N         43.3560   63.8590   63.5800 N.am   73  ASN73      -0.1960
     57  CA        44.5230   63.5940   62.7260 C.3    73  ASN73       0.1819
     58  C         45.7650   64.3530   63.1620 C.2    73  ASN73       0.2621
     59  O         46.8840   63.8780   62.9760 O.2    73  ASN73      -0.2715
     60  CB        44.2160   63.9460   61.2800 C.3    73  ASN73       0.1195
     61  CG        43.2220   62.9530   60.6240 C.2    73  ASN73       0.2630
     62  OD1       43.6390   61.9440   60.0040 O.2    73  ASN73      -0.2716
     63  ND2       41.9250   63.1930   60.8140 N.am   73  ASN73      -0.0877
     64  N         45.5530   65.5700   63.6970 N.am   74  THR74      -0.1951
     65  CA        46.6460   66.4490   64.1120 C.3    74  THR74       0.1897
     66  C         47.3540   65.8540   65.3440 C.2    74  THR74       0.2313
     67  O         48.5740   65.6920   65.3090 O.2    74  THR74      -0.2863
     68  CB        46.2000   67.9020   64.3670 C.3    74  THR74       0.1794
     69  OG1       45.5910   68.4750   63.1790 O.3    74  THR74      -0.2208
     70  CG2       47.3950   68.7970   64.8300 C.3    74  THR74       0.0378
     71  N         45.2760   69.4520   58.1100 N.3   114  THR114     -0.1218
     72  CA        45.6890   70.7060   58.6990 C.3   114  THR114      0.1862
     73  C         47.1670   70.9880   58.3780 C.2   114  THR114      0.2287
     74  O         47.9490   70.0820   58.0630 O.2   114  THR114     -0.2866
     75  CB        45.5610   70.7010   60.2510 C.3   114  THR114      0.1770
     76  OG1       46.4570   69.7060   60.7820 O.3   114  THR114     -0.2211
     77  CG2       44.1320   70.4580   60.7770 C.3   114  THR114      0.0375
     78  N         49.4050   68.7350   60.4800 N.3   117  THR117     -0.1218
     79  CA        49.4530   67.3530   60.0140 C.3   117  THR117      0.1862
     80  C         50.3230   67.2010   58.7740 C.2   117  THR117      0.2287
     81  O         51.1620   66.3050   58.6840 O.2   117  THR117     -0.2866
     82  CB        48.0290   66.8160   59.7710 C.3   117  THR117      0.1770
     83  OG1       47.3480   66.8160   61.0330 O.3   117  THR117     -0.2211
     84  CG2       48.0680   65.3790   59.2040 C.3   117  THR117      0.0375
     85  N         38.9400   74.0810   58.5300 N.3   145  VAL145     -0.1245
     86  CA        38.4070   73.8230   59.8840 C.3   145  VAL145      0.1561
     87  C         37.5150   74.9720   60.3660 C.2   145  VAL145      0.2260
     88  O         36.3820   74.7390   60.7970 O.2   145  VAL145     -0.2867
     89  CB        39.5500   73.5590   60.8930 C.3   145  VAL145      0.0252
     90  CG1       39.0830   73.7560   62.3560 C.3   145  VAL145      0.0019
     91  CG2       40.0870   72.1480   60.6680 C.3   145  VAL145      0.0019
     92  N         33.4360   75.1320   60.9280 N.3   148  GLU148     -0.1245
     93  CA        32.9420   75.4770   62.2720 C.3   148  GLU148      0.1567
     94  C         32.0590   76.7260   62.2880 C.2   148  GLU148      0.2260
     95  O         31.1840   76.8620   63.1540 O.2   148  GLU148     -0.2867
     96  CB        34.1000   75.5920   63.2600 C.3   148  GLU148      0.0388
     97  CG        34.6770   74.2260   63.6180 C.3   148  GLU148      0.1160
     98  CD        35.8310   74.2210   64.6270 C.2   148  GLU148      0.3649
     99  OE1       36.1830   75.2940   65.1490 O.co2 148  GLU148     -0.2457
    100  OE2       36.3780   73.1050   64.8810 O.co2 148  GLU148     -0.2457
    101  N         42.1690   63.7950   55.4700 N.3   179  GLY179     -0.1210
    102  CA        42.9620   63.6300   56.7180 C.3   179  GLY179      0.1956
    103  C         42.7470   64.6690   57.8130 C.2   179  GLY179      0.2612
    104  O         43.6870   65.0860   58.5050 O.2   179  GLY179     -0.2717
    105  N         41.4880   65.0480   57.9930 N.am  180  CYS180     -0.1956
    106  CA        41.0570   65.9650   59.0690 C.3   180  CYS180      0.1843
    107  C         39.6190   65.5980   59.3840 C.2   180  CYS180      0.2626
    108  O         38.8450   65.3150   58.4630 O.2   180  CYS180     -0.2714
    109  CB        41.1760   67.4190   58.6090 C.3   180  CYS180      0.0997
    110  SG        40.5260   68.6450   59.7570 S.3   180  CYS180     -0.0797
    111  N         39.2470   65.5540   60.6530 N.am  181  THR181     -0.1936
    112  CA        37.9060   65.1620   61.0680 C.3   181  THR181      0.2028
    113  C         36.7840   65.9730   60.3950 C.2   181  THR181      0.2642
    114  O         35.6710   65.4510   60.1880 O.2   181  THR181     -0.2714
    115  CB        37.7260   65.3460   62.5970 C.3   181  THR181      0.1808
    116  OG1       38.1150   66.6790   62.9580 O.3   181  THR181     -0.2208
    117  CG2       38.5360   64.3500   63.3760 C.3   181  THR181      0.0379
    118  N         37.0690   67.2240   60.0660 N.am  182  HIS182     -0.1973
    119  CA        36.0690   68.1270   59.5570 C.3   182  HIS182      0.1656
    120  C         35.7420   67.9010   58.0950 C.2   182  HIS182      0.2291
    121  O         34.6360   68.2630   57.6360 O.2   182  HIS182     -0.2864
    122  CB        36.4980   69.5880   59.7570 C.3   182  HIS182      0.0771
    123  CG        36.5550   70.0250   61.1970 C.ar  182  HIS182      0.0820
    124  ND1       37.1120   69.2530   62.1990 N.ar  182  HIS182     -0.2267
    125  CD2       36.1190   71.1570   61.7930 C.ar  182  HIS182      0.1154
    126  CE1       37.0290   69.9130   63.3480 C.ar  182  HIS182      0.1986
    127  NE2       36.4030   71.0570   63.1330 N.ar  182  HIS182     -0.2212
@<TRIPOS>BOND
     1   101   102    1
     2   102   103    1
     3   121   120    2
     4   103   105   am
     5   103   104    2
     6   105   106    1
     7    74    73    2
     8   120   119    1
     9    71    72    1
    10    73    72    1
    11   108   107    2
    12    85    86    1
    13   109   106    1
    14   109   110    1
    15    81    80    2
    16    72    75    1
    17    80    79    1
    18   106   107    1
    19    84    82    1
    20   107   111   am
    21   119   122    1
    22   119   118    1
    23   122   123    1
    24    82    79    1
    25    82    83    1
    26    86    87    1
    27    86    89    1
    28    62    61    2
    29    79    78    1
    30   118   113   am
    31   114   113    2
    32    75    77    1
    33    75    76    1
    34    87    88    2
    35   113   112    1
    36    61    63   am
    37    61    60    1
    38   111   112    1
    39    91    89    1
    40    89    90    1
    41    92    93    1
    42   112   115    1
    43   123   125   ar
    44   123   124   ar
    45    60    57    1
    46   125   127   ar
    47    49    48    2
    48   124   126   ar
    49    93    94    1
    50    93    96    1
    51    94    95    2
    52   115   116    1
    53   115   117    1
    54    57    58    1
    55    57    56    1
    56    48    47    1
    57    59    58    2
    58   127   126   ar
    59    58    64   am
    60    69    68    1
    61    96    97    1
    62    47    46    1
    63    56    52   am
    64    97    98    1
    65    64    65    1
    66    65    68    1
    67    65    66    1
    68    68    70    1
    69    98   100   ar
    70    98    99   ar
    71    46    36   am
    72    52    53    2
    73    52    51    1
    74    67    66    2
    75    31    32    1
    76    31    28    1
    77    32    33    1
    78    51    50    1
    79    51    54    1
    80    37    36    2
    81    36    35    1
    82    55    54    1
    83    33    27    1
    84    28    29    1
    85    28    27    1
    86    34    35    1
    87    34    29   am
    88    35    38    1
    89    29    30    2
    90    18    17    2
    91    14    13    1
    92    27    21   am
    93    38    39    1
    94     7     6   ar
    95    17    16    1
    96    13    10    1
    97     8     6   ar
    98     6     5    1
    99    21    22    2
   100    21    20    1
   101    39    41   ar
   102    39    40   ar
   103    26    24    1
   104    23    20    1
   105    23    25    1
   106    23    24    1
   107    15    16    1
   108    15    11   am
   109    20    19    1
   110     9    10    1
   111     9     3   am
   112    41    43   ar
   113    10    11    1
   114    40    42   ar
   115     5     2    1
   116    11    12    2
   117     2     3    1
   118     2     1    1
   119     3     4    2
   120    43    44   ar
   121    42    44   ar
   122    44    45    1
