@<TRIPOS>MOLECULE
tmp/3ouuA00.pdb
 222 209 0 0 0
SMALL
GASTEIGER

@<TRIPOS>ATOM
      1  N        -16.2710   17.2570   25.8120 N.3   116  LYS116     -0.1245
      2  CA       -17.0660   18.3530   25.2280 C.3   116  LYS116      0.1561
      3  C        -17.2700   19.5550   26.1690 C.2   116  LYS116      0.2260
      4  O        -17.3970   20.6980   25.7080 O.2   116  LYS116     -0.2867
      5  CB       -18.4130   17.8310   24.6820 C.3   116  LYS116      0.0271
      6  CG       -18.2070   17.0030   23.4250 C.3   116  LYS116      0.0035
      7  CD       -19.4640   16.2980   22.9380 C.3   116  LYS116      0.0206
      8  CE       -20.5470   17.2350   22.4830 C.3   116  LYS116      0.1093
      9  NZ       -21.6920   16.4020   22.0610 N.3   116  LYS116     -0.1314
     10  N        -22.7360   28.2390   23.9090 N.3   130  ILE130     -0.1245
     11  CA       -24.0900   28.3550   24.4350 C.3   130  ILE130      0.1561
     12  C        -23.9730   28.4930   25.9240 C.2   130  ILE130      0.2260
     13  O        -23.2110   27.7600   26.5250 O.2   130  ILE130     -0.2867
     14  CB       -24.9660   27.1310   24.0830 C.3   130  ILE130      0.0252
     15  CG1      -24.9820   26.9200   22.5590 C.3   130  ILE130      0.0019
     16  CG2      -26.3550   27.2860   24.6880 C.3   130  ILE130      0.0019
     17  CD1      -25.8910   25.8230   22.0810 C.3   130  ILE130      0.0001
     18  N        -30.6640   21.3760   27.9170 N.3   155  ILE155     -0.1245
     19  CA       -30.3120   20.0520   27.4640 C.3   155  ILE155      0.1561
     20  C        -29.1160   19.5230   28.2690 C.2   155  ILE155      0.2260
     21  O        -28.1350   20.2230   28.4670 O.2   155  ILE155     -0.2867
     22  CB       -30.0740   20.0190   25.9370 C.3   155  ILE155      0.0252
     23  CG1      -29.7560   18.5900   25.4490 C.3   155  ILE155      0.0019
     24  CG2      -28.9650   21.0080   25.5180 C.3   155  ILE155      0.0019
     25  CD1      -29.8160   18.4660   23.9240 C.3   155  ILE155      0.0001
     26  N        -26.0020   16.9160   28.5530 N.3   157  LYS157     -0.1245
     27  CA       -25.1180   16.3780   27.5330 C.3   157  LYS157      0.1561
     28  C        -23.9480   15.6450   28.2000 C.2   157  LYS157      0.2260
     29  O        -23.4070   16.0960   29.2190 O.2   157  LYS157     -0.2867
     30  CB       -24.6160   17.5000   26.6120 C.3   157  LYS157      0.0271
     31  CG       -25.7010   18.1090   25.7470 C.3   157  LYS157      0.0035
     32  CD       -25.1690   19.2630   24.8370 C.3   157  LYS157      0.0206
     33  CE       -24.6020   18.7300   23.5040 C.3   157  LYS157      0.1093
     34  NZ       -24.2970   19.8150   22.5050 N.3   157  LYS157     -0.1314
     35  N        -19.8070   12.1100   25.2680 N.3   161  GLY161     -0.1210
     36  CA       -20.8600   11.6210   24.3910 C.3   161  GLY161      0.1956
     37  C        -20.5570   11.6530   22.9070 C.2   161  GLY161      0.2612
     38  O        -19.6270   12.3160   22.4640 O.2   161  GLY161     -0.2717
     39  N        -21.3600   10.9270   22.1360 N.am  162  GLY162     -0.1942
     40  CA       -21.2600   10.9110   20.6880 C.3   162  GLY162      0.2014
     41  C        -22.4060   10.0820   20.1280 C.2   162  GLY162      0.2639
     42  O        -23.1510    9.4580   20.8760 O.2   162  GLY162     -0.2714
     43  N        -22.5610   10.0860   18.8110 N.am  163  GLY163     -0.1939
     44  CA       -23.6240    9.3250   18.1700 C.3   163  GLY163      0.2014
     45  C        -25.0130    9.8060   18.5420 C.2   163  GLY163      0.2639
     46  O        -26.0040    9.3200   18.0110 O.2   163  GLY163     -0.2714
     47  N        -25.0900   10.7640   19.4600 N.am  164  GLY164     -0.1939
     48  CA       -26.3780   11.2620   19.9100 C.3   164  GLY164      0.2014
     49  C        -26.8420   10.5960   21.1890 C.2   164  GLY164      0.2638
     50  O        -27.9530   10.8150   21.6410 O.2   164  GLY164     -0.2714
     51  N        -25.9730    9.7980   21.7850 N.am  165  ARG165     -0.1977
     52  CA       -26.2670    9.0970   23.0280 C.3   165  ARG165      0.1597
     53  C        -25.8450    9.9300   24.2420 C.2   165  ARG165      0.2287
     54  O        -24.8750   10.6910   24.1770 O.2   165  ARG165     -0.2864
     55  CB       -25.5180    7.7580   23.0240 C.3   165  ARG165      0.0334
     56  CG       -25.4570    7.1200   21.6340 C.3   165  ARG165      0.0492
     57  CD       -24.9810    5.6590   21.6340 C.3   165  ARG165      0.2205
     58  NE       -23.5370    5.4990   21.8390 N.pl3 165  ARG165     -0.0865
     59  CZ       -22.5990    5.7360   20.9140 C.cat 165  ARG165      0.5346
     60  NH1      -22.9310    6.1700   19.7000 N.pl3 165  ARG165      0.1354
     61  NH2      -21.3170    5.5470   21.2050 N.pl3 165  ARG165      0.1354
     62  N        -26.4360   22.8080   28.8420 N.3   195  GLU195     -0.1231
     63  CA       -26.4980   24.0570   28.1170 C.3   195  GLU195      0.1699
     64  C        -27.9400   24.4150   27.8170 C.2   195  GLU195      0.2592
     65  O        -28.8310   23.5760   27.9150 O.2   195  GLU195     -0.2718
     66  CB       -25.5850   24.0720   26.8710 C.3   195  GLU195      0.0402
     67  CG       -25.5780   22.8140   26.0420 C.3   195  GLU195      0.1161
     68  CD       -24.5830   22.8560   24.8600 C.2   195  GLU195      0.3649
     69  OE1      -23.3980   23.3010   24.9960 O.co2 195  GLU195     -0.2457
     70  OE2      -25.0090   22.3990   23.7800 O.co2 195  GLU195     -0.2457
     71  N        -28.1680   25.6750   27.4940 N.am  196  LYS196     -0.1966
     72  CA       -29.4960   26.1050   27.1080 C.3   196  LYS196      0.1728
     73  C        -29.9250   25.3470   25.8300 C.2   196  LYS196      0.2616
     74  O        -29.1070   25.1020   24.9340 O.2   196  LYS196     -0.2715
     75  CB       -29.4900   27.6100   26.8860 C.3   196  LYS196      0.0311
     76  CG       -30.7560   28.1430   26.2800 C.3   196  LYS196      0.0038
     77  CD       -31.8590   28.2400   27.3310 C.3   196  LYS196      0.0206
     78  CE       -33.2310   28.0940   26.6880 C.3   196  LYS196      0.1093
     79  NZ       -34.2750   28.4480   27.6730 N.3   196  LYS196     -0.1314
     80  N        -31.1930   24.9560   25.7580 N.am  197  TYR197     -0.1960
     81  CA       -31.6670   24.2070   24.6110 C.3   197  TYR197      0.1771
     82  C        -32.1620   25.2230   23.5950 C.2   197  TYR197      0.2619
     83  O        -33.1360   25.9390   23.8410 O.2   197  TYR197     -0.2715
     84  CB       -32.7910   23.2600   25.0130 C.3   197  TYR197      0.0574
     85  CG       -33.3650   22.4110   23.8980 C.ar  197  TYR197     -0.0198
     86  CD1      -32.5620   21.5390   23.1840 C.ar  197  TYR197     -0.0009
     87  CD2      -34.7240   22.4450   23.5850 C.ar  197  TYR197     -0.0009
     88  CE1      -33.0700   20.7280   22.1830 C.ar  197  TYR197      0.0417
     89  CE2      -35.2470   21.6380   22.5730 C.ar  197  TYR197      0.0417
     90  CZ       -34.4020   20.7770   21.8810 C.ar  197  TYR197      0.1957
     91  OH       -34.8620   19.9650   20.8690 O.3   197  TYR197     -0.2866
     92  N        -31.4860   25.3040   22.4580 N.am  198  ILE198     -0.1977
     93  CA       -31.9190   26.2410   21.4280 C.3   198  ILE198      0.1596
     94  C        -33.1410   25.7030   20.6920 C.2   198  ILE198      0.2287
     95  O        -33.1830   24.5350   20.2880 O.2   198  ILE198     -0.2864
     96  CB       -30.7800   26.5720   20.4510 C.3   198  ILE198      0.0276
     97  CG1      -29.6160   27.1760   21.2340 C.3   198  ILE198      0.0022
     98  CG2      -31.2580   27.5720   19.3900 C.3   198  ILE198      0.0022
     99  CD1      -28.3430   27.2170   20.4520 C.3   198  ILE198      0.0001
    100  N        -33.1850   24.9010   16.1090 N.3   201  PRO201     -0.2116
    101  CA       -31.8800   25.3400   15.6180 C.3   201  PRO201      0.1372
    102  C        -31.5580   24.8140   14.2130 C.2   201  PRO201      0.2244
    103  O        -32.0380   23.7610   13.7920 O.2   201  PRO201     -0.2868
    104  CB       -30.9290   24.6780   16.6120 C.3   201  PRO201      0.0268
    105  CG       -31.5950   23.3930   16.8810 C.3   201  PRO201      0.0207
    106  CD       -33.0550   23.7320   17.0010 C.3   201  PRO201      0.0892
    107  N        -28.2620   23.5230   12.1340 N.3   203  HIS203     -0.1241
    108  CA       -26.9610   22.9500   12.4190 C.3   203  HIS203      0.1621
    109  C        -26.0520   23.2620   11.2560 C.2   203  HIS203      0.2264
    110  O        -26.2740   22.7840   10.1500 O.2   203  HIS203     -0.2867
    111  CB       -27.0940   21.4450   12.5630 C.3   203  HIS203      0.0745
    112  CG       -25.8490   20.7550   13.0120 C.ar  203  HIS203      0.0817
    113  ND1      -24.7860   20.5080   12.1710 N.ar  203  HIS203     -0.2268
    114  CD2      -25.5130   20.2240   14.2100 C.ar  203  HIS203      0.1154
    115  CE1      -23.8440   19.8590   12.8340 C.ar  203  HIS203      0.1986
    116  NE2      -24.2630   19.6730   14.0730 N.ar  203  HIS203     -0.2212
    117  N        -32.1930   16.3850   10.3310 N.3   226  GLN226     -0.1245
    118  CA       -31.7280   15.3010   11.1570 C.3   226  GLN226      0.1566
    119  C        -32.9130   14.4790   11.6460 C.2   226  GLN226      0.2260
    120  O        -34.0140   14.9870   11.8090 O.2   226  GLN226     -0.2867
    121  CB       -30.9630   15.8700   12.3490 C.3   226  GLN226      0.0367
    122  CG       -29.6240   16.4950   11.9900 C.3   226  GLN226      0.0905
    123  CD       -28.9610   17.1570   13.1890 C.2   226  GLN226      0.2608
    124  OE1      -29.3070   16.8530   14.3330 O.2   226  GLN226     -0.2717
    125  NE2      -28.0090   18.0810   12.9340 N.am  226  GLN226     -0.0878
    126  N        -31.3590   13.3190   15.8740 N.3   229  HIS229     -0.1226
    127  CA       -30.0300   13.9220   16.0290 C.3   229  HIS229      0.1752
    128  C        -28.9740   13.2500   15.1520 C.2   229  HIS229      0.2596
    129  O        -27.7800   13.3610   15.3930 O.2   229  HIS229     -0.2718
    130  CB       -29.6310   13.9400   17.5080 C.3   229  HIS229      0.0759
    131  CG       -30.5950   14.7050   18.3610 C.ar  229  HIS229      0.0818
    132  ND1      -31.0740   14.2290   19.5630 N.ar  229  HIS229     -0.2268
    133  CD2      -31.1980   15.9040   18.1610 C.ar  229  HIS229      0.1154
    134  CE1      -31.9180   15.1100   20.0740 C.ar  229  HIS229      0.1986
    135  NE2      -32.0080   16.1360   19.2460 N.ar  229  HIS229     -0.2212
    136  N        -29.4520   12.5740   14.1130 N.am  230  GLN230     -0.1965
    137  CA       -28.6340   11.8420   13.1570 C.3   230  GLN230      0.1733
    138  C        -28.7270   12.5530   11.7980 C.2   230  GLN230      0.2616
    139  O        -29.8100   12.9330   11.3660 O.2   230  GLN230     -0.2715
    140  CB       -29.2150   10.4420   13.0180 C.3   230  GLN230      0.0408
    141  CG       -28.2920    9.3090   13.4090 C.3   230  GLN230      0.0908
    142  CD       -27.6790    9.4800   14.7770 C.2   230  GLN230      0.2608
    143  OE1      -26.4920    9.7870   14.9000 O.2   230  GLN230     -0.2717
    144  NE2      -28.4750    9.2720   15.8120 N.am  230  GLN230     -0.0878
    145  N        -27.6030   12.7200   11.1130 N.am  231  LYS231     -0.1977
    146  CA       -27.6050   13.4090    9.8330 C.3   231  LYS231      0.1596
    147  C        -28.1050   12.5270    8.6810 C.2   231  LYS231      0.2287
    148  O        -27.7710   11.3490    8.5980 O.2   231  LYS231     -0.2864
    149  CB       -26.2070   13.9650    9.5410 C.3   231  LYS231      0.0298
    150  CG       -25.7570   15.0730   10.5050 C.3   231  LYS231      0.0038
    151  CD       -24.2570   15.2600   10.4390 C.3   231  LYS231      0.0206
    152  CE       -23.7900   16.3670   11.3760 C.3   231  LYS231      0.1093
    153  NZ       -22.3060   16.4080   11.5090 N.3   231  LYS231     -0.1314
    154  N        -18.5490   22.5820   14.7290 N.3   269  GLU269     -0.1245
    155  CA       -20.0100   22.5570   14.6800 C.3   269  GLU269      0.1567
    156  C        -20.6660   23.6960   15.4510 C.2   269  GLU269      0.2260
    157  O        -20.3250   23.9820   16.6060 O.2   269  GLU269     -0.2867
    158  CB       -20.5540   21.2250   15.1720 C.3   269  GLU269      0.0388
    159  CG       -20.1880   20.0220   14.3120 C.3   269  GLU269      0.1160
    160  CD       -20.9720   18.7990   14.7590 C.2   269  GLU269      0.3649
    161  OE1      -21.8800   18.9950   15.6030 O.co2 269  GLU269     -0.2457
    162  OE2      -20.6920   17.6590   14.3070 O.co2 269  GLU269     -0.2457
    163  N        -24.6090   25.7670   16.2560 N.3   271  LEU271     -0.1245
    164  CA       -26.0460   25.8680   16.0900 C.3   271  LEU271      0.1561
    165  C        -26.3540   27.3330   15.8000 C.2   271  LEU271      0.2260
    166  O        -25.6610   28.2130   16.2940 O.2   271  LEU271     -0.2867
    167  CB       -26.7820   25.3480   17.3280 C.3   271  LEU271      0.0270
    168  CG       -26.5820   23.8580   17.6350 C.3   271  LEU271      0.0019
    169  CD1      -27.3460   23.4310   18.8860 C.3   271  LEU271      0.0001
    170  CD2      -26.9930   22.9880   16.4310 C.3   271  LEU271      0.0001
    171  N        -20.9060   24.2250   19.3260 N.3   281  ILE281     -0.1231
    172  CA       -21.3140   23.1500   20.2230 C.3   281  ILE281      0.1692
    173  C        -20.2200   22.1130   20.3980 C.2   281  ILE281      0.2591
    174  O        -20.1050   21.5240   21.4620 O.2   281  ILE281     -0.2718
    175  CB       -22.6640   22.4570   19.8610 C.3   281  ILE281      0.0266
    176  CG1      -22.7420   22.0500   18.3830 C.3   281  ILE281      0.0019
    177  CG2      -23.8350   23.3450   20.2510 C.3   281  ILE281      0.0020
    178  CD1      -24.0100   21.1730   18.0920 C.3   281  ILE281      0.0001
    179  N        -19.4190   21.8970   19.3610 N.am  282  GLU282     -0.1979
    180  CA       -18.3220   20.9320   19.4550 C.3   282  GLU282      0.1602
    181  C        -17.4090   20.9360   18.2460 C.2   282  GLU282      0.2287
    182  O        -17.7490   21.4440   17.1710 O.2   282  GLU282     -0.2864
    183  CB       -18.8510   19.5200   19.6670 C.3   282  GLU282      0.0415
    184  CG       -19.2780   18.8380   18.4020 C.3   282  GLU282      0.1163
    185  CD       -19.5880   17.3510   18.6020 C.2   282  GLU282      0.3649
    186  OE1      -20.3160   16.7900   17.7730 O.co2 282  GLU282     -0.2457
    187  OE2      -19.0930   16.7300   19.5690 O.co2 282  GLU282     -0.2457
    188  N        -15.1320   18.2960   15.7690 N.3   283  ASN283     -0.1240
    189  CA       -14.7480   16.9460   15.3900 C.3   283  ASN283      0.1653
    190  C        -13.3160   16.9260   14.8980 C.2   283  ASN283      0.2266
    191  O        -12.9930   17.4750   13.8420 O.2   283  ASN283     -0.2867
    192  CB       -15.6790   16.3830   14.3290 C.3   283  ASN283      0.1155
    193  CG       -17.0970   16.2210   14.8310 C.2   283  ASN283      0.2627
    194  OD1      -17.3400   15.5730   15.8510 O.2   283  ASN283     -0.2716
    195  ND2      -18.0410   16.8400   14.1360 N.am  283  ASN283     -0.0877
    196  N        -11.4000   15.1130   13.2430 N.3   285  ARG285     -0.1245
    197  CA       -11.2450   14.0900   12.2220 C.3   285  ARG285      0.1563
    198  C        -12.0260   14.5080   10.9840 C.2   285  ARG285      0.2260
    199  O        -12.8470   15.4180   11.0450 O.2   285  ARG285     -0.2867
    200  CB       -11.7980   12.7510   12.7150 C.3   285  ARG285      0.0307
    201  CG       -13.2690   12.8290   13.1770 C.3   285  ARG285      0.0489
    202  CD       -13.9250   11.4410   13.3170 C.3   285  ARG285      0.2205
    203  NE       -15.2070   11.5300   14.0060 N.pl3 285  ARG285     -0.0865
    204  CZ       -16.2930   12.1210   13.5080 C.cat 285  ARG285      0.5346
    205  NH1      -17.4170   12.1840   14.2190 N.pl3 285  ARG285      0.1354
    206  NH2      -16.2590   12.6630   12.3010 N.pl3 285  ARG285      0.1354
    207  N        -15.0590   13.9730    8.4550 N.3   287  GLN287     -0.1245
    208  CA       -16.4220   13.4530    8.6140 C.3   287  GLN287      0.1566
    209  C        -17.0020   12.8770    7.3460 C.2   287  GLN287      0.2260
    210  O        -16.5440   13.1600    6.2410 O.2   287  GLN287     -0.2867
    211  CB       -17.3760   14.5260    9.1000 C.3   287  GLN287      0.0367
    212  CG       -16.9620   15.1710   10.3910 C.3   287  GLN287      0.0905
    213  CD       -18.0360   16.0590   10.8960 C.2   287  GLN287      0.2608
    214  OE1      -18.1840   17.2020   10.4470 O.2   287  GLN287     -0.2717
    215  NE2      -18.8460   15.5280   11.8030 N.am  287  GLN287     -0.0878
    216  N        -33.4930   21.0640   12.9890 N.3   422  THR422     -0.1218
    217  CA       -33.1480   19.7580   13.5370 C.3   422  THR422      0.1862
    218  C        -34.3440   18.9610   14.0660 C.2   422  THR422      0.2287
    219  O        -34.2500   17.7560   14.2440 O.2   422  THR422     -0.2866
    220  CB       -32.0960   19.9200   14.6370 C.3   422  THR422      0.1770
    221  OG1      -32.6410   20.7520   15.6670 O.3   422  THR422     -0.2211
    222  CG2      -30.8180   20.6050   14.0540 C.3   422  THR422      0.0375
@<TRIPOS>BOND
     1   210   209    2
     2   209   208    1
     3   207   208    1
     4   148   147    2
     5   208   211    1
     6   147   146    1
     7   211   212    1
     8   149   146    1
     9   149   150    1
    10   146   145    1
    11   110   109    2
    12   117   118    1
    13   212   213    1
    14   151   150    1
    15   151   152    1
    16   214   213    2
    17   213   215   am
    18   198   199    2
    19   198   197    1
    20   145   138   am
    21   118   119    1
    22   118   121    1
    23   109   108    1
    24   139   138    2
    25   152   153    1
    26   119   120    2
    27   138   137    1
    28   122   121    1
    29   122   123    1
    30   107   108    1
    31   113   115   ar
    32   113   112   ar
    33   197   200    1
    34   197   196    1
    35   206   204    1
    36   108   111    1
    37   111   112    1
    38   200   201    1
    39   115   116   ar
    40   125   123   am
    41   216   217    1
    42   112   114   ar
    43   140   137    1
    44   140   141    1
    45   137   136    1
    46   201   202    1
    47   123   124    2
    48   202   203    1
    49   141   142    1
    50   204   203    2
    51   204   205    1
    52   217   218    1
    53   217   220    1
    54   103   102    2
    55   191   190    2
    56   222   220    1
    57   218   219    2
    58   116   114   ar
    59   136   128   am
    60   195   193   am
    61   102   101    1
    62   162   160   ar
    63   159   160    1
    64   159   158    1
    65   192   193    1
    66   192   189    1
    67   220   221    1
    68   155   154    1
    69   155   158    1
    70   155   156    1
    71   160   161   ar
    72   142   143    2
    73   142   144   am
    74   193   194    2
    75   190   189    1
    76   128   129    2
    77   128   127    1
    78   189   188    1
    79   156   157    2
    80   101   100    1
    81   101   104    1
    82   165   164    1
    83   165   166    2
    84   126   127    1
    85   127   130    1
    86   164   163    1
    87   164   167    1
    88   100   106    1
    89   170   168    1
    90   104   105    1
    91   105   106    1
    92   182   181    2
    93   167   168    1
    94   130   131    1
    95   168   169    1
    96   186   185   ar
    97    46    45    2
    98   178   176    1
    99   133   131   ar
   100   133   135   ar
   101    44    45    1
   102    44    43    1
   103   181   180    1
   104   131   132   ar
   105   176   175    1
   106   184   185    1
   107   184   183    1
   108    45    47   am
   109   185   187   ar
   110    43    41   am
   111   135   134   ar
   112   171   172    1
   113   179   180    1
   114   179   173   am
   115    98    96    1
   116   180   183    1
   117    47    48    1
   118   132   134   ar
   119    60    59    1
   120   175   172    1
   121   175   177    1
   122    48    49    1
   123    41    40    1
   124    41    42    2
   125   172   173    1
   126    95    94    2
   127   173   174    2
   128    96    97    1
   129    96    93    1
   130    99    97    1
   131    40    39    1
   132    94    93    1
   133    91    90    1
   134    59    61    1
   135    59    58    2
   136    49    50    2
   137    49    51   am
   138    93    92    1
   139    56    57    1
   140    56    55    1
   141    57    58    1
   142    51    52    1
   143    90    88   ar
   144    90    89   ar
   145     9     8    1
   146    17    15    1
   147    39    37   am
   148    88    86   ar
   149    92    82   am
   150    38    37    2
   151     8     7    1
   152    34    33    1
   153    15    14    1
   154    89    87   ar
   155    37    36    1
   156     7     6    1
   157    55    52    1
   158    52    53    1
   159    86    85   ar
   160     6     5    1
   161    33    32    1
   162    87    85   ar
   163    82    83    2
   164    82    81    1
   165    70    68   ar
   166    85    84    1
   167    10    11    1
   168    25    23    1
   169    14    11    1
   170    14    16    1
   171    54    53    2
   172    36    35    1
   173    11    12    1
   174    81    84    1
   175    81    80    1
   176     5     2    1
   177    32    31    1
   178    68    69   ar
   179    68    67    1
   180    74    73    2
   181     2     1    1
   182     2     3    1
   183    23    22    1
   184    24    22    1
   185     4     3    2
   186    31    30    1
   187    80    73   am
   188    73    72    1
   189    12    13    2
   190    22    19    1
   191    67    66    1
   192    76    75    1
   193    76    77    1
   194    30    27    1
   195    78    77    1
   196    78    79    1
   197    66    63    1
   198    75    72    1
   199    72    71    1
   200    19    18    1
   201    19    20    1
   202    71    64   am
   203    27    28    1
   204    27    26    1
   205    64    65    2
   206    64    63    1
   207    63    62    1
   208    28    29    2
   209    20    21    2
