@<TRIPOS>MOLECULE
tmp/3ouyB00.pdb
 119 113 0 0 0
SMALL
GASTEIGER

@<TRIPOS>ATOM
      1  N         21.2090  -23.9270   38.1970 N.3    46  GLY46      -0.1210
      2  CA        21.5450  -22.6350   38.7780 C.3    46  GLY46       0.1956
      3  C         22.2800  -22.6820   40.1010 C.2    46  GLY46       0.2612
      4  O         22.6540  -23.7510   40.5870 O.2    46  GLY46      -0.2717
      5  N         22.4750  -21.5070   40.6870 N.am   47  SER47      -0.1952
      6  CA        23.2710  -21.3720   41.8920 C.3    47  SER47       0.1924
      7  C         22.7480  -22.2620   43.0000 C.2    47  SER47       0.2314
      8  O         23.5280  -22.7770   43.8060 O.2    47  SER47      -0.2863
      9  CB        23.2710  -19.9360   42.3740 C.3    47  SER47       0.2116
     10  OG        22.0380  -19.6520   43.0040 O.3    47  SER47      -0.2180
     11  N         24.0250  -26.0000   42.6840 N.3    50  ARG50      -0.1245
     12  CA        25.4720  -26.1750   42.7390 C.3    50  ARG50       0.1563
     13  C         26.0490  -25.3990   43.9180 C.2    50  ARG50       0.2260
     14  O         27.2120  -24.9900   43.8910 O.2    50  ARG50      -0.2867
     15  CB        26.1280  -25.6760   41.4480 C.3    50  ARG50       0.0307
     16  CG        25.6690  -26.3440   40.1620 C.3    50  ARG50       0.0489
     17  CD        26.3900  -25.7610   38.9460 C.3    50  ARG50       0.2205
     18  NE        26.1160  -24.3360   38.7290 N.pl3  50  ARG50      -0.0865
     19  CZ        25.1510  -23.8620   37.9400 C.cat  50  ARG50       0.5346
     20  NH1       24.3400  -24.6850   37.2890 N.pl3  50  ARG50       0.1354
     21  NH2       24.9890  -22.5580   37.8010 N.pl3  50  ARG50       0.1354
     22  N         25.8930  -22.2610   45.2120 N.3    52  THR52      -0.1203
     23  CA        26.5460  -20.9780   44.9410 C.3    52  THR52       0.1994
     24  C         25.6000  -19.7780   45.0680 C.2    52  THR52       0.2618
     25  O         25.9100  -18.6940   44.5760 O.2    52  THR52      -0.2717
     26  CB        27.2400  -20.9410   43.5410 C.3    52  THR52       0.1784
     27  OG1       26.3940  -21.5310   42.5500 O.3    52  THR52      -0.2211
     28  CG2       28.5630  -21.6770   43.5600 C.3    52  THR52       0.0376
     29  N         24.4530  -19.9600   45.7200 N.am   53  TRP53      -0.1961
     30  CA        23.5650  -18.8270   45.9970 C.3    53  TRP53       0.1771
     31  C         24.1040  -18.0360   47.1830 C.2    53  TRP53       0.2619
     32  O         25.0470  -18.4760   47.8460 O.2    53  TRP53      -0.2715
     33  CB        22.1220  -19.2730   46.2490 C.3    53  TRP53       0.0590
     34  CG        21.8780  -19.8390   47.6160 C.ar   53  TRP53       0.0006
     35  CD1       21.4610  -19.1600   48.7320 C.ar   53  TRP53       0.0946
     36  CD2       22.0250  -21.2030   48.0100 C.ar   53  TRP53       0.0152
     37  NE1       21.3480  -20.0220   49.8000 N.ar   53  TRP53      -0.2442
     38  CE2       21.6880  -21.2820   49.3830 C.ar   53  TRP53       0.0810
     39  CE3       22.4130  -22.3680   47.3390 C.ar   53  TRP53       0.0012
     40  CZ2       21.7280  -22.4820   50.0970 C.ar   53  TRP53       0.0191
     41  CZ3       22.4600  -23.5650   48.0530 C.ar   53  TRP53       0.0001
     42  CH2       22.1180  -23.6110   49.4180 C.ar   53  TRP53       0.0015
     43  N         23.4980  -16.8820   47.4560 N.am   54  LEU54      -0.1977
     44  CA        24.0000  -15.9650   48.4850 C.3    54  LEU54       0.1596
     45  C         23.1480  -15.9240   49.7520 C.2    54  LEU54       0.2287
     46  O         21.9460  -16.2030   49.7220 O.2    54  LEU54      -0.2864
     47  CB        24.1490  -14.5460   47.9130 C.3    54  LEU54       0.0297
     48  CG        25.4140  -14.1520   47.1360 C.3    54  LEU54       0.0022
     49  CD1       25.5300  -14.9140   45.8330 C.3    54  LEU54       0.0001
     50  CD2       25.4370  -12.6440   46.8640 C.3    54  LEU54       0.0001
     51  N         19.1070  -13.3870   49.2890 N.3    57  SER57      -0.1217
     52  CA        18.4110  -13.8300   48.0850 C.3    57  SER57       0.1889
     53  C         18.6530  -15.3120   47.8190 C.2    57  SER57       0.2288
     54  O         19.7560  -15.7140   47.4440 O.2    57  SER57      -0.2866
     55  CB        18.8590  -12.9970   46.8700 C.3    57  SER57       0.2089
     56  OG        20.2420  -13.1720   46.6000 O.3    57  SER57      -0.2183
     57  N         17.1670  -18.4030   45.5410 N.3    59  GLU59      -0.1245
     58  CA        16.2680  -18.9000   44.5110 C.3    59  GLU59       0.1567
     59  C         16.5960  -20.3160   44.0490 C.2    59  GLU59       0.2260
     60  O         17.7490  -20.7560   44.0910 O.2    59  GLU59      -0.2867
     61  CB        16.2170  -17.9470   43.3240 C.3    59  GLU59       0.0388
     62  CG        14.9350  -18.0740   42.5030 C.3    59  GLU59       0.1160
     63  CD        14.4430  -16.7410   41.9670 C.2    59  GLU59       0.3649
     64  OE1       13.4050  -16.7120   41.2660 O.co2  59  GLU59      -0.2457
     65  OE2       15.0920  -15.7140   42.2580 O.co2  59  GLU59      -0.2457
     66  N         15.9270  -23.0130   40.7480 N.3    61  ASP61      -0.1239
     67  CA        15.6120  -23.0540   39.3430 C.3    61  ASP61       0.1674
     68  C         15.2200  -24.4780   38.9600 C.2    61  ASP61       0.2266
     69  O         16.0340  -25.4090   39.0650 O.2    61  ASP61      -0.2867
     70  CB        16.8010  -22.5300   38.5260 C.3    61  ASP61       0.1410
     71  CG        17.0970  -21.0290   38.7890 C.2    61  ASP61       0.3668
     72  OD1       18.2120  -20.7160   39.2670 O.co2  61  ASP61      -0.2456
     73  OD2       16.2250  -20.1570   38.5250 O.co2  61  ASP61      -0.2456
     74  N         30.3190  -12.7870   43.5800 N.3   152  LYS152     -0.1245
     75  CA        28.9570  -12.2580   43.5200 C.3   152  LYS152      0.1561
     76  C         28.7250  -11.1490   44.5580 C.2   152  LYS152      0.2260
     77  O         28.3740  -10.0170   44.1960 O.2   152  LYS152     -0.2867
     78  CB        27.9430  -13.3950   43.6840 C.3   152  LYS152      0.0271
     79  CG        27.9700  -14.4030   42.5330 C.3   152  LYS152      0.0035
     80  CD        27.2650  -15.7070   42.8890 C.3   152  LYS152      0.0206
     81  CE        26.9410  -16.5280   41.6380 C.3   152  LYS152      0.1093
     82  NZ        26.3910  -17.9020   41.9260 N.3   152  LYS152     -0.1314
     83  N         26.3520   -6.6980   39.6820 N.3   161  TYR161     -0.1241
     84  CA        25.9460   -8.0860   39.5190 C.3   161  TYR161      0.1605
     85  C         24.6050   -8.1800   38.7910 C.2   161  TYR161      0.2264
     86  O         23.6610   -7.4330   39.0910 O.2   161  TYR161     -0.2867
     87  CB        25.8370   -8.7590   40.8740 C.3   161  TYR161      0.0534
     88  CG        25.4530  -10.2120   40.8010 C.ar  161  TYR161     -0.0201
     89  CD1       26.2410  -11.1240   40.0970 C.ar  161  TYR161     -0.0009
     90  CD2       24.3190  -10.6820   41.4590 C.ar  161  TYR161     -0.0009
     91  CE1       25.9080  -12.4690   40.0430 C.ar  161  TYR161      0.0417
     92  CE2       23.9660  -12.0290   41.4090 C.ar  161  TYR161      0.0417
     93  CZ        24.7670  -12.9230   40.7000 C.ar  161  TYR161      0.1957
     94  OH        24.4300  -14.2640   40.6430 O.3   161  TYR161     -0.2866
     95  N         25.5630  -14.5720   36.9160 N.3   172  GLY172     -0.1210
     96  CA        26.0790  -15.4420   37.9740 C.3   172  GLY172      0.1956
     97  C         26.5880  -16.7620   37.4310 C.2   172  GLY172      0.2611
     98  O         26.9910  -17.6490   38.1760 O.2   172  GLY172     -0.2717
     99  N         26.5400  -16.8880   36.1160 N.am  173  TYR173     -0.1976
    100  CA        27.1240  -18.0100   35.4350 C.3   173  TYR173      0.1639
    101  C         28.4930  -17.5820   34.9180 C.2   173  TYR173      0.2290
    102  O         29.4250  -18.3920   34.8740 O.2   173  TYR173     -0.2864
    103  CB        26.2030  -18.4460   34.3010 C.3   173  TYR173      0.0560
    104  CG        26.8000  -19.4380   33.3350 C.ar  173  TYR173     -0.0198
    105  CD1       27.1570  -20.7290   33.7420 C.ar  173  TYR173     -0.0009
    106  CD2       26.9870  -19.0900   32.0040 C.ar  173  TYR173     -0.0009
    107  CE1       27.7010  -21.6420   32.8380 C.ar  173  TYR173      0.0417
    108  CE2       27.5230  -19.9870   31.1030 C.ar  173  TYR173      0.0417
    109  CZ        27.8780  -21.2560   31.5220 C.ar  173  TYR173      0.1957
    110  OH        28.4060  -22.1120   30.5990 O.3   173  TYR173     -0.2866
    111  N         30.7670  -17.8190   37.8620 N.3   176  GLU176     -0.1245
    112  CA        31.2400  -19.1620   38.1010 C.3   176  GLU176      0.1567
    113  C         32.3930  -19.4940   37.1600 C.2   176  GLU176      0.2260
    114  O         33.4070  -20.0650   37.5820 O.2   176  GLU176     -0.2867
    115  CB        30.0930  -20.1500   37.9370 C.3   176  GLU176      0.0388
    116  CG        29.0410  -20.0550   39.0330 C.3   176  GLU176      0.1160
    117  CD        27.8560  -20.9680   38.7770 C.2   176  GLU176      0.3649
    118  OE1       27.7450  -22.0290   39.4460 O.co2 176  GLU176     -0.2457
    119  OE2       27.0450  -20.6310   37.8890 O.co2 176  GLU176     -0.2457
@<TRIPOS>BOND
     1   110   109    1
     2   108   109   ar
     3   108   106   ar
     4   109   107   ar
     5   106   104   ar
     6   107   105   ar
     7   104   105   ar
     8   104   103    1
     9   103   100    1
    10   102   101    2
    11   101   100    1
    12   100    99    1
    13    99    97   am
    14    95    96    1
    15   113   114    2
    16   113   112    1
    17    20    19    1
    18    97    96    1
    19    97    98    2
    20    21    19    1
    21   111   112    1
    22   119   117   ar
    23   115   112    1
    24   115   116    1
    25    19    18    2
    26     1     2    1
    27    73    71   ar
    28    70    71    1
    29    70    67    1
    30    18    17    1
    31   117   116    1
    32   117   118   ar
    33     2     3    1
    34    71    72   ar
    35    85    86    2
    36    85    84    1
    37    17    16    1
    38    68    69    2
    39    68    67    1
    40    67    66    1
    41    84    83    1
    42    84    87    1
    43    91    89   ar
    44    91    93   ar
    45    89    88   ar
    46     3     4    2
    47     3     5   am
    48    16    15    1
    49    94    93    1
    50     5     6    1
    51    93    92   ar
    52    88    87    1
    53    88    90   ar
    54    64    63   ar
    55    92    90   ar
    56    15    12    1
    57    81    82    1
    58    81    80    1
    59     6     9    1
    60     6     7    1
    61    63    65   ar
    62    63    62    1
    63     9    10    1
    64    62    61    1
    65    79    80    1
    66    79    78    1
    67    27    26    1
    68    11    12    1
    69    12    13    1
    70     7     8    2
    71    61    58    1
    72    75    74    1
    73    75    78    1
    74    75    76    1
    75    26    28    1
    76    26    23    1
    77    14    13    2
    78    59    60    2
    79    59    58    1
    80    77    76    2
    81    58    57    1
    82    25    24    2
    83    23    24    1
    84    23    22    1
    85    24    29   am
    86    29    30    1
    87    49    48    1
    88    30    33    1
    89    30    31    1
    90    33    34    1
    91    56    55    1
    92    50    48    1
    93    55    52    1
    94    48    47    1
    95    31    43   am
    96    31    32    2
    97    39    36   ar
    98    39    41   ar
    99    54    53    2
   100    43    44    1
   101    34    36   ar
   102    34    35   ar
   103    53    52    1
   104    47    44    1
   105    36    38   ar
   106    41    42   ar
   107    52    51    1
   108    44    45    1
   109    35    37   ar
   110    38    37   ar
   111    38    40   ar
   112    42    40   ar
   113    46    45    2
