@<TRIPOS>MOLECULE
tmp/3ouzA00.pdb
 185 175 0 0 0
SMALL
GASTEIGER

@<TRIPOS>ATOM
      1  N         16.1350   17.5190  -25.9350 N.3   115  LYS115     -0.1245
      2  CA        16.8670   18.5920  -25.2650 C.3   115  LYS115      0.1561
      3  C         17.1100   19.7680  -26.2020 C.2   115  LYS115      0.2260
      4  O         17.2470   20.9120  -25.7700 O.2   115  LYS115     -0.2867
      5  CB        18.1880   18.0610  -24.6980 C.3   115  LYS115      0.0271
      6  CG        17.9810   17.1310  -23.4760 C.3   115  LYS115      0.0035
      7  CD        19.2870   16.3950  -23.1150 C.3   115  LYS115      0.0206
      8  CE        20.3260   17.3410  -22.5450 C.3   115  LYS115      0.1093
      9  NZ        21.5500   16.6060  -22.0930 N.3   115  LYS115     -0.1314
     10  N         22.4880   28.3630  -23.8520 N.3   129  ILE129     -0.1245
     11  CA        23.8150   28.5010  -24.4690 C.3   129  ILE129      0.1561
     12  C         23.6900   28.6010  -25.9860 C.2   129  ILE129      0.2260
     13  O         22.9760   27.8130  -26.5970 O.2   129  ILE129     -0.2867
     14  CB        24.7290   27.3170  -24.0940 C.3   129  ILE129      0.0252
     15  CG1       24.7840   27.1740  -22.5660 C.3   129  ILE129      0.0019
     16  CG2       26.1350   27.5040  -24.6820 C.3   129  ILE129      0.0019
     17  CD1       25.6310   25.9720  -22.0660 C.3   129  ILE129      0.0001
     18  N         30.3850   21.6660  -27.9800 N.3   154  ILE154     -0.1245
     19  CA        30.0840   20.3460  -27.4480 C.3   154  ILE154      0.1561
     20  C         28.9090   19.7910  -28.2520 C.2   154  ILE154      0.2260
     21  O         27.9520   20.5070  -28.5100 O.2   154  ILE154     -0.2867
     22  CB        29.8180   20.3650  -25.9010 C.3   154  ILE154      0.0252
     23  CG1       29.5250   18.9560  -25.3770 C.3   154  ILE154      0.0019
     24  CG2       28.6510   21.3110  -25.5430 C.3   154  ILE154      0.0019
     25  CD1       29.3950   18.9020  -23.8380 C.3   154  ILE154      0.0001
     26  N         25.8540   17.2020  -28.3890 N.3   156  LYS156     -0.1245
     27  CA        25.0350   16.5980  -27.3460 C.3   156  LYS156      0.1561
     28  C         23.8600   15.8410  -27.9750 C.2   156  LYS156      0.2260
     29  O         23.2500   16.3140  -28.9340 O.2   156  LYS156     -0.2867
     30  CB        24.4980   17.6780  -26.3890 C.3   156  LYS156      0.0271
     31  CG        25.5870   18.5500  -25.6980 C.3   156  LYS156      0.0035
     32  CD        24.9390   19.6610  -24.8350 C.3   156  LYS156      0.0206
     33  CE        24.3490   19.0900  -23.5390 C.3   156  LYS156      0.1093
     34  NZ        24.0690   20.1490  -22.4880 N.3   156  LYS156     -0.1314
     35  N         19.4970   12.5250  -24.9830 N.3   160  GLY160     -0.1210
     36  CA        20.5460   12.1230  -24.0600 C.3   160  GLY160      0.1956
     37  C         20.1820   12.1730  -22.5910 C.2   160  GLY160      0.2612
     38  O         19.2680   12.8880  -22.1730 O.2   160  GLY160     -0.2717
     39  N         20.9180   11.4010  -21.8000 N.am  161  GLY161     -0.1942
     40  CA        20.7710   11.4080  -20.3590 C.3   161  GLY161      0.2014
     41  C         21.9350   10.6570  -19.7490 C.2   161  GLY161      0.2639
     42  O         22.7120   10.0010  -20.4530 O.2   161  GLY161     -0.2714
     43  N         22.0680   10.7650  -18.4350 N.am  162  GLY162     -0.1939
     44  CA        23.0800   10.0180  -17.7030 C.3   162  GLY162      0.2014
     45  C         24.5140   10.3070  -18.1140 C.2   162  GLY162      0.2639
     46  O         25.3930    9.4880  -17.8730 O.2   162  GLY162     -0.2714
     47  N         24.7530   11.4650  -18.7290 N.am  163  GLY163     -0.1939
     48  CA        26.0950   11.8540  -19.1470 C.3   163  GLY163      0.2014
     49  C         26.5820   11.2150  -20.4440 C.2   163  GLY163      0.2638
     50  O         27.7530   11.3540  -20.8080 O.2   163  GLY163     -0.2714
     51  N         25.6850   10.5350  -21.1540 N.am  164  ARG164     -0.1977
     52  CA        26.0680    9.7670  -22.3430 C.3   164  ARG164      0.1597
     53  C         25.6200   10.4270  -23.6550 C.2   164  ARG164      0.2287
     54  O         24.6000   11.1150  -23.7020 O.2   164  ARG164     -0.2864
     55  CB        25.5180    8.3370  -22.2430 C.3   164  ARG164      0.0334
     56  CG        25.9460    7.6020  -20.9610 C.3   164  ARG164      0.0492
     57  CD        24.9800    6.4780  -20.5890 C.3   164  ARG164      0.2205
     58  NE        25.0660    5.3320  -21.4920 N.pl3 164  ARG164     -0.0865
     59  CZ        24.0840    4.4530  -21.6870 C.cat 164  ARG164      0.5346
     60  NH1       22.9270    4.5940  -21.0530 N.pl3 164  ARG164      0.1354
     61  NH2       24.2530    3.4400  -22.5250 N.pl3 164  ARG164      0.1354
     62  N         26.1800   23.0680  -28.8090 N.3   194  GLU194     -0.1231
     63  CA        26.2140   24.3710  -28.1770 C.3   194  GLU194      0.1699
     64  C         27.6530   24.7040  -27.8330 C.2   194  GLU194      0.2592
     65  O         28.5480   23.8520  -27.9430 O.2   194  GLU194     -0.2718
     66  CB        25.2570   24.4480  -26.9560 C.3   194  GLU194      0.0402
     67  CG        25.5000   23.3690  -25.9300 C.3   194  GLU194      0.1161
     68  CD        24.4580   23.3040  -24.7910 C.2   194  GLU194      0.3649
     69  OE1       23.2690   23.7220  -24.9350 O.co2 194  GLU194     -0.2457
     70  OE2       24.8540   22.7770  -23.7410 O.co2 194  GLU194     -0.2457
     71  N         27.8780   25.9510  -27.4350 N.am  195  LYS195     -0.1966
     72  CA        29.1860   26.3860  -26.9820 C.3   195  LYS195      0.1728
     73  C         29.6050   25.5430  -25.7710 C.2   195  LYS195      0.2616
     74  O         28.7790   25.1940  -24.9180 O.2   195  LYS195     -0.2715
     75  CB        29.1300   27.8630  -26.5890 C.3   195  LYS195      0.0311
     76  CG        30.4770   28.4730  -26.2490 C.3   195  LYS195      0.0038
     77  CD        31.2060   28.8900  -27.5250 C.3   195  LYS195      0.0206
     78  CE        32.6160   29.3520  -27.2300 C.3   195  LYS195      0.1093
     79  NZ        33.6250   28.3970  -27.7260 N.3   195  LYS195     -0.1314
     80  N         30.8820   25.1960  -25.7090 N.am  196  TYR196     -0.1960
     81  CA        31.3870   24.4580  -24.5720 C.3   196  TYR196      0.1771
     82  C         31.8460   25.4890  -23.5660 C.2   196  TYR196      0.2619
     83  O         32.7740   26.2440  -23.8300 O.2   196  TYR196     -0.2715
     84  CB        32.5760   23.5860  -24.9750 C.3   196  TYR196      0.0574
     85  CG        33.1810   22.7910  -23.8230 C.ar  196  TYR196     -0.0198
     86  CD1       32.4220   21.8470  -23.1220 C.ar  196  TYR196     -0.0009
     87  CD2       34.5050   22.9750  -23.4470 C.ar  196  TYR196     -0.0009
     88  CE1       32.9750   21.1080  -22.0980 C.ar  196  TYR196      0.0417
     89  CE2       35.0660   22.2370  -22.4140 C.ar  196  TYR196      0.0417
     90  CZ        34.2960   21.3100  -21.7490 C.ar  196  TYR196      0.1957
     91  OH        34.8410   20.5740  -20.7260 O.3   196  TYR196     -0.2866
     92  N         31.1660   25.5700  -22.4310 N.am  197  ILE197     -0.1977
     93  CA        31.5080   26.5850  -21.4390 C.3   197  ILE197      0.1596
     94  C         32.7550   26.1600  -20.6740 C.2   197  ILE197      0.2287
     95  O         32.8560   25.0140  -20.2230 O.2   197  ILE197     -0.2864
     96  CB        30.3590   26.8030  -20.4360 C.3   197  ILE197      0.0276
     97  CG1       29.1250   27.3660  -21.1450 C.3   197  ILE197      0.0022
     98  CG2       30.8190   27.7170  -19.2800 C.3   197  ILE197      0.0022
     99  CD1       28.0460   27.7820  -20.2080 C.3   197  ILE197      0.0001
    100  N         32.9320   24.9700  -16.1090 N.3   200  PRO200     -0.2116
    101  CA        31.6410   25.4540  -15.6280 C.3   200  PRO200      0.1372
    102  C         31.3060   24.9670  -14.2120 C.2   200  PRO200      0.2244
    103  O         31.8360   23.9570  -13.7380 O.2   200  PRO200     -0.2868
    104  CB        30.6560   24.8510  -16.6380 C.3   200  PRO200      0.0268
    105  CG        31.2970   23.5530  -17.0380 C.3   200  PRO200      0.0207
    106  CD        32.8110   23.8210  -17.0220 C.3   200  PRO200      0.0892
    107  N         27.9260   23.5540  -12.2380 N.3   202  HIS202     -0.1241
    108  CA        26.6030   23.0130  -12.5240 C.3   202  HIS202      0.1621
    109  C         25.7250   23.3770  -11.3170 C.2   202  HIS202      0.2264
    110  O         25.9480   22.8740  -10.2090 O.2   202  HIS202     -0.2867
    111  CB        26.6850   21.4950  -12.6910 C.3   202  HIS202      0.0745
    112  CG        25.3770   20.8460  -13.0460 C.ar  202  HIS202      0.0817
    113  ND1       24.2940   20.8110  -12.1870 N.ar  202  HIS202     -0.2268
    114  CD2       24.9840   20.2000  -14.1660 C.ar  202  HIS202      0.1154
    115  CE1       23.2890   20.1800  -12.7690 C.ar  202  HIS202      0.1986
    116  NE2       23.6850   19.7950  -13.9720 N.ar  202  HIS202     -0.2212
    117  N         31.9390   16.3270  -10.3800 N.3   225  GLN225     -0.1245
    118  CA        31.4290   15.2840  -11.2510 C.3   225  GLN225      0.1566
    119  C         32.5580   14.4320  -11.8060 C.2   225  GLN225      0.2260
    120  O         33.6680   14.9140  -11.9570 O.2   225  GLN225     -0.2867
    121  CB        30.7090   15.9370  -12.4430 C.3   225  GLN225      0.0367
    122  CG        29.4010   16.6170  -12.0590 C.3   225  GLN225      0.0905
    123  CD        28.7720   17.3620  -13.2210 C.2   225  GLN225      0.2608
    124  OE1       29.1860   17.2180  -14.3780 O.2   225  GLN225     -0.2717
    125  NE2       27.7510   18.1500  -12.9210 N.am  225  GLN225     -0.0878
    126  N         30.7210   13.4160  -16.0900 N.3   228  HIS228     -0.1226
    127  CA        29.5530   14.2810  -16.1750 C.3   228  HIS228      0.1752
    128  C         28.4080   13.7750  -15.3150 C.2   228  HIS228      0.2595
    129  O         27.2500   14.1210  -15.5620 O.2   228  HIS228     -0.2718
    130  CB        29.0760   14.3790  -17.6240 C.3   228  HIS228      0.0759
    131  CG        30.1690   14.7420  -18.5720 C.ar  228  HIS228      0.0818
    132  ND1       30.4360   14.0180  -19.7140 N.ar  228  HIS228     -0.2268
    133  CD2       31.0970   15.7260  -18.5180 C.ar  228  HIS228      0.1154
    134  CE1       31.4750   14.5510  -20.3320 C.ar  228  HIS228      0.1986
    135  NE2       31.8950   15.5870  -19.6260 N.ar  228  HIS228     -0.2212
    136  N         28.7290   12.9360  -14.3400 N.am  229  GLN229     -0.1979
    137  CA        27.7310   12.4910  -13.3670 C.3   229  GLN229      0.1601
    138  C         28.1520   12.9060  -11.9430 C.2   229  GLN229      0.2287
    139  O         29.3390   12.9650  -11.6130 O.2   229  GLN229     -0.2864
    140  CB        27.4800   10.9830  -13.4840 C.3   229  GLN229      0.0394
    141  CG        26.8330   10.5510  -14.8280 C.3   229  GLN229      0.0908
    142  CD        25.3440   10.9610  -14.9520 C.2   229  GLN229      0.2608
    143  OE1       25.0150   12.0270  -15.4840 O.2   229  GLN229     -0.2717
    144  NE2       24.4490   10.1040  -14.4640 N.am  229  GLN229     -0.0878
    145  N         18.3090   22.6160  -14.7390 N.3   268  GLU268     -0.1245
    146  CA        19.7670   22.5590  -14.6360 C.3   268  GLU268      0.1567
    147  C         20.4150   23.6730  -15.4470 C.2   268  GLU268      0.2260
    148  O         20.0350   23.9000  -16.6000 O.2   268  GLU268     -0.2867
    149  CB        20.2620   21.1930  -15.1280 C.3   268  GLU268      0.0388
    150  CG        19.7390   20.0370  -14.2440 C.3   268  GLU268      0.1160
    151  CD        20.4730   18.7440  -14.5360 C.2   268  GLU268      0.3649
    152  OE1       20.7180   18.4910  -15.7170 O.co2 268  GLU268     -0.2457
    153  OE2       20.8380   18.0020  -13.6010 O.co2 268  GLU268     -0.2457
    154  N         24.3020   25.8970  -16.2360 N.3   270  LEU270     -0.1245
    155  CA        25.7360   26.0180  -16.0770 C.3   270  LEU270      0.1561
    156  C         26.0180   27.4880  -15.8240 C.2   270  LEU270      0.2260
    157  O         25.3240   28.3650  -16.3470 O.2   270  LEU270     -0.2867
    158  CB        26.4700   25.5110  -17.3240 C.3   270  LEU270      0.0270
    159  CG        26.3340   24.0170  -17.6350 C.3   270  LEU270      0.0019
    160  CD1       27.1480   23.6170  -18.9220 C.3   270  LEU270      0.0001
    161  CD2       26.7620   23.1550  -16.4410 C.3   270  LEU270      0.0001
    162  N         20.5840   24.4180  -19.3630 N.3   280  ILE280     -0.1231
    163  CA        20.9790   23.3170  -20.2380 C.3   280  ILE280      0.1692
    164  C         19.9360   22.2230  -20.4040 C.2   280  ILE280      0.2591
    165  O         19.8610   21.6210  -21.4740 O.2   280  ILE280     -0.2718
    166  CB        22.3280   22.6670  -19.8640 C.3   280  ILE280      0.0266
    167  CG1       22.3670   22.2820  -18.3840 C.3   280  ILE280      0.0019
    168  CG2       23.4870   23.6010  -20.2500 C.3   280  ILE280      0.0020
    169  CD1       23.5780   21.4000  -18.0170 C.3   280  ILE280      0.0001
    170  N         19.1770   21.9210  -19.3500 N.am  281  GLU281     -0.1979
    171  CA        18.0540   20.9960  -19.5020 C.3   281  GLU281      0.1602
    172  C         17.1340   21.0410  -18.3040 C.2   281  GLU281      0.2287
    173  O         17.4850   21.6110  -17.2820 O.2   281  GLU281     -0.2864
    174  CB        18.5510   19.5700  -19.7270 C.3   281  GLU281      0.0415
    175  CG        19.1060   18.8690  -18.5170 C.3   281  GLU281      0.1163
    176  CD        19.1770   17.3570  -18.7250 C.2   281  GLU281      0.3649
    177  OE1       19.8050   16.6730  -17.9040 O.co2 281  GLU281     -0.2457
    178  OE2       18.5890   16.8460  -19.7020 O.co2 281  GLU281     -0.2457
    179  N         33.2290   21.2700  -13.0550 N.3   421  THR421     -0.1218
    180  CA        32.8300   19.9450  -13.4900 C.3   421  THR421      0.1862
    181  C         33.9770   19.1150  -14.0340 C.2   421  THR421      0.2287
    182  O         33.8760   17.8820  -14.1240 O.2   421  THR421     -0.2866
    183  CB        31.7390   20.0500  -14.5790 C.3   421  THR421      0.1770
    184  OG1       32.2450   20.8900  -15.6250 O.3   421  THR421     -0.2211
    185  CG2       30.4750   20.6770  -13.9750 C.3   421  THR421      0.0375
@<TRIPOS>BOND
     1    29    28    2
     2    62    63    1
     3    21    20    2
     4    26    27    1
     5    20    19    1
     6    63    64    1
     7    63    66    1
     8    18    19    1
     9    28    27    1
    10    65    64    2
    11    64    71   am
    12    79    78    1
    13    77    78    1
    14    77    76    1
    15    19    22    1
    16    71    72    1
    17    27    30    1
    18    72    75    1
    19    72    73    1
    20    66    67    1
    21    13    12    2
    22    75    76    1
    23    30    31    1
    24     3     4    2
    25     3     2    1
    26    12    11    1
    27     1     2    1
    28    67    68    1
    29    22    24    1
    30    22    23    1
    31    73    80   am
    32    73    74    2
    33    80    81    1
    34    31    32    1
    35    23    25    1
    36     2     5    1
    37    35    36    1
    38    84    81    1
    39    84    85    1
    40    69    68   ar
    41    32    33    1
    42    68    70   ar
    43     5     6    1
    44    16    14    1
    45    81    82    1
    46    11    14    1
    47    11    10    1
    48    14    15    1
    49    36    37    1
    50    83    82    2
    51    85    87   ar
    52    85    86   ar
    53    54    53    2
    54    53    52    1
    55    82    92   am
    56    33    34    1
    57     6     7    1
    58    87    89   ar
    59    86    88   ar
    60     7     8    1
    61    37    38    2
    62    37    39   am
    63    15    17    1
    64     8     9    1
    65    61    59    1
    66    92    93    1
    67    89    90   ar
    68    52    55    1
    69    52    51    1
    70    55    56    1
    71    88    90   ar
    72    39    40    1
    73    90    91    1
    74    59    58    2
    75    59    60    1
    76    58    57    1
    77   165   164    2
    78    93    94    1
    79    93    96    1
    80    51    49   am
    81    97    96    1
    82    97    99    1
    83    56    57    1
    84    50    49    2
    85    94    95    2
    86    42    41    2
    87    49    48    1
    88    96    98    1
    89   164   163    1
    90   164   170   am
    91    40    41    1
    92   134   132   ar
    93   134   135   ar
    94   168   166    1
    95   163   166    1
    96   163   162    1
    97   166   167    1
    98    41    43   am
    99   174   171    1
   100   174   175    1
   101   132   131   ar
   102   178   176   ar
   103   135   133   ar
   104   171   170    1
   105   171   172    1
   106    48    47    1
   107   160   159    1
   108    47    45   am
   109   176   175    1
   110   176   177   ar
   111   131   133   ar
   112   131   130    1
   113    43    44    1
   114   167   169    1
   115   172   173    2
   116    45    46    2
   117    45    44    1
   118   159   158    1
   119   159   161    1
   120   130   127    1
   121   158   155    1
   122   105   106    1
   123   105   104    1
   124   106   100    1
   125   104   101    1
   126   148   147    2
   127   157   156    2
   128   154   155    1
   129   127   126    1
   130   127   128    1
   131   100   101    1
   132   155   156    1
   133   152   151   ar
   134   101   102    1
   135   184   183    1
   136   129   128    2
   137   143   142    2
   138   147   146    1
   139   128   136   am
   140   149   146    1
   141   149   150    1
   142   142   141    1
   143   142   144   am
   144   141   140    1
   145   145   146    1
   146   183   185    1
   147   183   180    1
   148   151   150    1
   149   151   153   ar
   150   124   123    2
   151   136   137    1
   152   102   103    2
   153   114   116   ar
   154   114   112   ar
   155   182   181    2
   156   181   180    1
   157   116   115   ar
   158   180   179    1
   159   140   137    1
   160   137   138    1
   161   123   125   am
   162   123   122    1
   163   112   111    1
   164   112   113   ar
   165   115   113   ar
   166   111   108    1
   167   108   107    1
   168   108   109    1
   169   121   122    1
   170   121   118    1
   171   120   119    2
   172   138   139    2
   173   119   118    1
   174   109   110    2
   175   118   117    1
