@<TRIPOS>MOLECULE
tmp/3ouzA01.pdb
 117 110 0 0 0
SMALL
GASTEIGER

@<TRIPOS>ATOM
      1  N         12.9820    8.1810   -9.8740 N.3    83  TYR83      -0.1241
      2  CA        13.7930    8.6110  -11.0130 C.3    83  TYR83       0.1605
      3  C         14.3850    7.3990  -11.7290 C.2    83  TYR83       0.2264
      4  O         14.4810    6.3120  -11.1560 O.2    83  TYR83      -0.2867
      5  CB        14.9140    9.5840  -10.5920 C.3    83  TYR83       0.0534
      6  CG        15.4390    9.3610   -9.2020 C.ar   83  TYR83      -0.0201
      7  CD1       16.3040    8.3140   -8.9230 C.ar   83  TYR83      -0.0009
      8  CD2       15.0590   10.2000   -8.1550 C.ar   83  TYR83      -0.0009
      9  CE1       16.7840    8.1050   -7.6200 C.ar   83  TYR83       0.0417
     10  CE2       15.5280   10.0030   -6.8710 C.ar   83  TYR83       0.0417
     11  CZ        16.3980    8.9540   -6.6160 C.ar   83  TYR83       0.1957
     12  OH        16.8690    8.7640   -5.3370 O.3    83  TYR83      -0.2866
     13  N         22.0680   10.7650  -18.4350 N.3   162  GLY162     -0.1225
     14  CA        23.0800   10.0180  -17.7030 C.3   162  GLY162      0.1811
     15  C         24.5140   10.3070  -18.1140 C.2   162  GLY162      0.2280
     16  O         25.3930    9.4880  -17.8730 O.2   162  GLY162     -0.2866
     17  N         30.7210   13.4160  -16.0900 N.3   228  HIS228     -0.1226
     18  CA        29.5530   14.2810  -16.1750 C.3   228  HIS228      0.1752
     19  C         28.4080   13.7750  -15.3150 C.2   228  HIS228      0.2596
     20  O         27.2500   14.1210  -15.5620 O.2   228  HIS228     -0.2718
     21  CB        29.0760   14.3790  -17.6240 C.3   228  HIS228      0.0759
     22  CG        30.1690   14.7420  -18.5720 C.ar  228  HIS228      0.0818
     23  ND1       30.4360   14.0180  -19.7140 N.ar  228  HIS228     -0.2268
     24  CD2       31.0970   15.7260  -18.5180 C.ar  228  HIS228      0.1154
     25  CE1       31.4750   14.5510  -20.3320 C.ar  228  HIS228      0.1986
     26  NE2       31.8950   15.5870  -19.6260 N.ar  228  HIS228     -0.2212
     27  N         28.7290   12.9360  -14.3400 N.am  229  GLN229     -0.1965
     28  CA        27.7310   12.4910  -13.3670 C.3   229  GLN229      0.1733
     29  C         28.1520   12.9060  -11.9430 C.2   229  GLN229      0.2616
     30  O         29.3390   12.9650  -11.6130 O.2   229  GLN229     -0.2715
     31  CB        27.4800   10.9830  -13.4840 C.3   229  GLN229      0.0408
     32  CG        26.8330   10.5510  -14.8280 C.3   229  GLN229      0.0908
     33  CD        25.3440   10.9610  -14.9520 C.2   229  GLN229      0.2608
     34  OE1       25.0150   12.0270  -15.4840 O.2   229  GLN229     -0.2717
     35  NE2       24.4490   10.1040  -14.4640 N.am  229  GLN229     -0.0878
     36  N         27.1650   13.2080  -11.1110 N.am  230  LYS230     -0.1977
     37  CA        27.4020   13.9010   -9.8550 C.3   230  LYS230      0.1596
     38  C         27.8100   12.9580   -8.7140 C.2   230  LYS230      0.2287
     39  O         27.2640   11.8620   -8.5690 O.2   230  LYS230     -0.2864
     40  CB        26.1160   14.6510   -9.4690 C.3   230  LYS230      0.0298
     41  CG        25.5950   15.5750  -10.5760 C.3   230  LYS230      0.0038
     42  CD        24.0880   15.7610  -10.4280 C.3   230  LYS230      0.0206
     43  CE        23.5170   16.6850  -11.4940 C.3   230  LYS230      0.1093
     44  NZ        22.0270   16.5290  -11.5340 N.3   230  LYS230     -0.1314
     45  N         18.3090   22.6160  -14.7390 N.3   268  GLU268     -0.1245
     46  CA        19.7670   22.5590  -14.6360 C.3   268  GLU268      0.1567
     47  C         20.4150   23.6730  -15.4470 C.2   268  GLU268      0.2260
     48  O         20.0350   23.9000  -16.6000 O.2   268  GLU268     -0.2867
     49  CB        20.2620   21.1930  -15.1280 C.3   268  GLU268      0.0388
     50  CG        19.7390   20.0370  -14.2440 C.3   268  GLU268      0.1160
     51  CD        20.4730   18.7440  -14.5360 C.2   268  GLU268      0.3649
     52  OE1       20.7180   18.4910  -15.7170 O.co2 268  GLU268     -0.2457
     53  OE2       20.8380   18.0020  -13.6010 O.co2 268  GLU268     -0.2457
     54  N         19.1770   21.9210  -19.3500 N.3   281  GLU281     -0.1245
     55  CA        18.0540   20.9960  -19.5020 C.3   281  GLU281      0.1567
     56  C         17.1340   21.0410  -18.3040 C.2   281  GLU281      0.2260
     57  O         17.4850   21.6110  -17.2820 O.2   281  GLU281     -0.2867
     58  CB        18.5510   19.5700  -19.7270 C.3   281  GLU281      0.0388
     59  CG        19.1060   18.8690  -18.5170 C.3   281  GLU281      0.1160
     60  CD        19.1770   17.3570  -18.7250 C.2   281  GLU281      0.3649
     61  OE1       19.8050   16.6730  -17.9040 O.co2 281  GLU281     -0.2457
     62  OE2       18.5890   16.8460  -19.7020 O.co2 281  GLU281     -0.2457
     63  N         14.9800   18.2790  -15.8500 N.3   282  ASN282     -0.1240
     64  CA        14.5420   16.9130  -15.5520 C.3   282  ASN282      0.1653
     65  C         13.1100   16.9350  -15.0220 C.2   282  ASN282      0.2266
     66  O         12.8390   17.5650  -13.9990 O.2   282  ASN282     -0.2867
     67  CB        15.4620   16.2720  -14.5360 C.3   282  ASN282      0.1155
     68  CG        16.8710   16.0570  -15.1060 C.2   282  ASN282      0.2627
     69  OD1       17.0370   15.5990  -16.2320 O.2   282  ASN282     -0.2716
     70  ND2       17.8570   16.4230  -14.3510 N.am  282  ASN282     -0.0877
     71  N         11.0160   15.3120  -13.2630 N.3   284  ARG284     -0.1245
     72  CA        10.9300   14.2390  -12.2830 C.3   284  ARG284      0.1563
     73  C         11.7590   14.6580  -11.0570 C.2   284  ARG284      0.2260
     74  O         12.4970   15.6480  -11.0960 O.2   284  ARG284     -0.2867
     75  CB        11.5460   12.9540  -12.8530 C.3   284  ARG284      0.0307
     76  CG        12.9830   13.1530  -13.3740 C.3   284  ARG284      0.0489
     77  CD        13.7450   11.8130  -13.4760 C.3   284  ARG284      0.2205
     78  NE        15.0050   11.9830  -14.1930 N.pl3 284  ARG284     -0.0865
     79  CZ        16.1550   12.3030  -13.6130 C.cat 284  ARG284      0.5346
     80  NH1       16.2090   12.4720  -12.2940 N.pl3 284  ARG284      0.1354
     81  NH2       17.2500   12.4460  -14.3500 N.pl3 284  ARG284      0.1354
     82  N         14.9510   14.2560   -8.5920 N.3   286  GLN286     -0.1231
     83  CA        16.3450   13.8140   -8.8120 C.3   286  GLN286      0.1698
     84  C         16.9540   13.1170   -7.5930 C.2   286  GLN286      0.2592
     85  O         16.4640   13.2580   -6.4740 O.2   286  GLN286     -0.2718
     86  CB        17.2470   15.0020   -9.1520 C.3   286  GLN286      0.0381
     87  CG        17.0170   15.6260  -10.5360 C.3   286  GLN286      0.0905
     88  CD        17.8420   16.8820  -10.6840 C.2   286  GLN286      0.2608
     89  OE1       17.8170   17.7500   -9.8110 O.2   286  GLN286     -0.2717
     90  NE2       18.6120   16.9690  -11.7560 N.am  286  GLN286     -0.0878
     91  N         18.0670   12.4220   -7.8160 N.am  287  VAL287     -0.1966
     92  CA        18.7310   11.6770   -6.7610 C.3   287  VAL287      0.1727
     93  C         19.0230   12.5790   -5.5610 C.2   287  VAL287      0.2616
     94  O         18.8200   12.1760   -4.4180 O.2   287  VAL287     -0.2715
     95  CB        20.0550   11.0210   -7.2860 C.3   287  VAL287      0.0290
     96  CG1       20.8140   10.3750   -6.1500 C.3   287  VAL287      0.0023
     97  CG2       19.7280    9.9940   -8.3640 C.3   287  VAL287      0.0023
     98  N         19.4570   13.8070   -5.8300 N.am  288  GLU288     -0.1977
     99  CA        20.0310   14.6690   -4.7920 C.3   288  GLU288      0.1602
    100  C         18.9810   15.5520   -4.1080 C.2   288  GLU288      0.2287
    101  O         19.3130   16.5310   -3.4560 O.2   288  GLU288     -0.2864
    102  CB        21.1690   15.5360   -5.4050 C.3   288  GLU288      0.0415
    103  CG        20.6830   16.4600   -6.5940 C.3   288  GLU288      0.1163
    104  CD        20.7670   15.8160   -8.0020 C.2   288  GLU288      0.3649
    105  OE1       20.6980   14.5690   -8.1320 O.co2 288  GLU288     -0.2457
    106  OE2       20.9010   16.5710   -8.9990 O.co2 288  GLU288     -0.2457
    107  N         27.5390   10.7480   -2.3660 N.3   327  ARG327     -0.1245
    108  CA        26.9780    9.4770   -2.8290 C.3   327  ARG327      0.1563
    109  C         27.9430    8.3310   -2.5560 C.2   327  ARG327      0.2260
    110  O         29.0000    8.2390   -3.1700 O.2   327  ARG327     -0.2867
    111  CB        26.6630    9.5340   -4.3240 C.3   327  ARG327      0.0307
    112  CG        25.6910   10.6350   -4.6720 C.3   327  ARG327      0.0489
    113  CD        25.1440   10.4410   -6.0670 C.3   327  ARG327      0.2205
    114  NE        24.4550   11.6350   -6.5180 N.pl3 327  ARG327     -0.0865
    115  CZ        23.7930   11.7230   -7.6670 C.cat 327  ARG327      0.5346
    116  NH1       23.7270   10.6750   -8.4710 N.pl3 327  ARG327      0.1354
    117  NH2       23.2020   12.8600   -8.0030 N.pl3 327  ARG327      0.1354
@<TRIPOS>BOND
     1    25    23   ar
     2    25    26   ar
     3    58    55    1
     4    58    59    1
     5    23    22   ar
     6    62    60   ar
     7    26    24   ar
     8    55    54    1
     9    55    56    1
    10    60    59    1
    11    60    61   ar
    12    22    24   ar
    13    22    21    1
    14    13    14    1
    15    56    57    2
    16    15    16    2
    17    15    14    1
    18    21    18    1
    19    48    47    2
    20    69    68    2
    21    18    17    1
    22    18    19    1
    23    63    64    1
    24    52    51   ar
    25    20    19    2
    26    64    65    1
    27    64    67    1
    28    34    33    2
    29    47    46    1
    30    19    27   am
    31    49    46    1
    32    49    50    1
    33    68    67    1
    34    68    70   am
    35    65    66    2
    36    33    32    1
    37    33    35   am
    38    32    31    1
    39    45    46    1
    40    51    50    1
    41    51    53   ar
    42    81    79    1
    43    27    28    1
    44    78    79    2
    45    78    77    1
    46    79    80    1
    47    31    28    1
    48    77    76    1
    49    76    75    1
    50    28    29    1
    51    71    72    1
    52    75    72    1
    53    72    73    1
    54    29    30    2
    55    29    36   am
    56    90    88   am
    57     3     4    2
    58     3     2    1
    59    44    43    1
    60    43    42    1
    61    36    37    1
    62    74    73    2
    63     2     5    1
    64     2     1    1
    65    88    87    1
    66    88    89    2
    67     5     6    1
    68    41    42    1
    69    41    40    1
    70    87    86    1
    71    37    40    1
    72    37    38    1
    73     6     7   ar
    74     6     8   ar
    75    86    83    1
    76   106   104   ar
    77     7     9   ar
    78    83    82    1
    79    83    84    1
    80    38    39    2
    81   116   115    1
    82    97    95    1
    83     8    10   ar
    84   105   104   ar
    85   117   115    1
    86   104   103    1
    87    91    84   am
    88    91    92    1
    89   115   114    2
    90     9    11   ar
    91    84    85    2
    92    95    92    1
    93    95    96    1
    94    10    11   ar
    95    92    93    1
    96    11    12    1
    97   103   102    1
    98   114   113    1
    99   113   112    1
   100    98    93   am
   101    98    99    1
   102    93    94    2
   103   102    99    1
   104    99   100    1
   105   112   111    1
   106   111   108    1
   107   100   101    2
   108   110   109    2
   109   108   109    1
   110   108   107    1
