@<TRIPOS>MOLECULE
tmp/3ov0A07.pdb
 215 207 0 0 0
SMALL
GASTEIGER

@<TRIPOS>ATOM
      1  N         22.5460  -17.9390    1.3230 N.3    89  TYR89      -0.1241
      2  CA        23.5430  -16.8990    1.1710 C.3    89  TYR89       0.1605
      3  C         23.9380  -16.2820    2.5110 C.2    89  TYR89       0.2264
      4  O         23.1830  -15.5350    3.1410 O.2    89  TYR89      -0.2867
      5  CB        23.0610  -15.8380    0.2020 C.3    89  TYR89       0.0534
      6  CG        23.1300  -16.3110   -1.2320 C.ar   89  TYR89      -0.0201
      7  CD1       22.1480  -17.1510   -1.7650 C.ar   89  TYR89      -0.0009
      8  CD2       24.2020  -15.9520   -2.0540 C.ar   89  TYR89      -0.0009
      9  CE1       22.2370  -17.6110   -3.0940 C.ar   89  TYR89       0.0417
     10  CE2       24.2910  -16.4070   -3.3630 C.ar   89  TYR89       0.0417
     11  CZ        23.3110  -17.2320   -3.8750 C.ar   89  TYR89       0.1957
     12  OH        23.4100  -17.6440   -5.1830 O.3    89  TYR89      -0.2866
     13  N         26.4710  -13.8850    4.2000 N.3    91  MET91      -0.1245
     14  CA        27.4350  -12.8120    4.0130 C.3    91  MET91       0.1570
     15  C         27.7890  -12.1430    5.3280 C.2    91  MET91       0.2261
     16  O         26.9170  -11.8630    6.1600 O.2    91  MET91      -0.2867
     17  CB        26.8920  -11.7530    3.0520 C.3    91  MET91       0.0387
     18  CG        26.4410  -12.2720    1.7190 C.3    91  MET91       0.0595
     19  SD        24.7870  -11.6870    1.4380 S.3    91  MET91      -0.1393
     20  CE        23.8700  -13.0940    1.9760 C.3    91  MET91       0.0692
     21  N         27.9240   -9.4320    6.8500 N.3    93  GLY93      -0.1210
     22  CA        27.5060   -8.0440    6.8540 C.3    93  GLY93       0.1956
     23  C         26.2550   -7.7830    6.0470 C.2    93  GLY93       0.2611
     24  O         26.1550   -6.7520    5.3810 O.2    93  GLY93      -0.2717
     25  N         25.3010   -8.7110    6.1020 N.am   94  ALA94      -0.1979
     26  CA        24.0440   -8.5650    5.3690 C.3    94  ALA94       0.1597
     27  C         23.0890   -9.7270    5.6230 C.2    94  ALA94       0.2287
     28  O         23.5110  -10.8520    5.9200 O.2    94  ALA94      -0.2864
     29  CB        24.3170   -8.4320    3.8810 C.3    94  ALA94       0.0319
     30  N         20.9060  -14.1390    2.3470 N.3    97  ALA97      -0.1231
     31  CA        20.1220  -14.1230    1.1280 C.3    97  ALA97       0.1694
     32  C         19.6970  -15.5100    0.6820 C.2    97  ALA97       0.2592
     33  O         20.4190  -16.5000    0.8490 O.2    97  ALA97      -0.2718
     34  CB        20.8980  -13.4360    0.0430 C.3    97  ALA97       0.0304
     35  N         18.5120  -15.5690    0.0940 N.am   98  VAL98      -0.1966
     36  CA        17.9690  -16.8340   -0.3420 C.3    98  VAL98       0.1727
     37  C         17.3420  -16.8310   -1.7250 C.2    98  VAL98       0.2616
     38  O         16.5620  -15.9420   -2.0750 O.2    98  VAL98      -0.2715
     39  CB        16.9320  -17.3330    0.6850 C.3    98  VAL98       0.0290
     40  CG1       15.9430  -18.2910    0.0490 C.3    98  VAL98       0.0023
     41  CG2       17.6530  -18.0210    1.8230 C.3    98  VAL98       0.0023
     42  N         17.7120  -17.8410   -2.5050 N.am   99  PHE99      -0.1974
     43  CA        17.1760  -18.0380   -3.8390 C.3    99  PHE99       0.1639
     44  C         16.7490  -19.4960   -3.9550 C.2    99  PHE99       0.2290
     45  O         17.4850  -20.3950   -3.5510 O.2    99  PHE99      -0.2864
     46  CB        18.2140  -17.7550   -4.9150 C.3    99  PHE99       0.0560
     47  CG        17.8520  -18.3550   -6.2260 C.ar   99  PHE99      -0.0200
     48  CD1       16.9090  -17.7490   -7.0520 C.ar   99  PHE99      -0.0042
     49  CD2       18.3620  -19.6000   -6.5800 C.ar   99  PHE99      -0.0042
     50  CE1       16.4710  -18.3810   -8.2050 C.ar   99  PHE99      -0.0003
     51  CE2       17.9350  -20.2450   -7.7240 C.ar   99  PHE99      -0.0003
     52  CZ        16.9870  -19.6380   -8.5430 C.ar   99  PHE99      -0.0000
     53  N         30.8630  -15.3460   -5.1690 N.3   126  ASN126     -0.1225
     54  CA        30.8380  -14.2110   -4.2550 C.3   126  ASN126      0.1785
     55  C         30.6050  -12.9320   -5.0610 C.2   126  ASN126      0.2597
     56  O         31.4200  -12.0070   -5.0580 O.2   126  ASN126     -0.2718
     57  CB        32.1500  -14.1080   -3.4510 C.3   126  ASN126      0.1169
     58  CG        32.2450  -15.1450   -2.3170 C.2   126  ASN126      0.2627
     59  OD1       31.3390  -15.2680   -1.4810 O.2   126  ASN126     -0.2716
     60  ND2       33.3540  -15.8840   -2.2850 N.am  126  ASN126     -0.0877
     61  N         29.4770  -12.9100   -5.7640 N.am  127  VAL127     -0.1966
     62  CA        29.0650  -11.7780   -6.5820 C.3   127  VAL127      0.1727
     63  C         28.7650  -10.6110   -5.6590 C.2   127  VAL127      0.2617
     64  O         28.5690  -10.8010   -4.4630 O.2   127  VAL127     -0.2715
     65  CB        27.7670  -12.0980   -7.3590 C.3   127  VAL127      0.0290
     66  CG1       27.4890  -11.0090   -8.3720 C.3   127  VAL127      0.0023
     67  CG2       27.8670  -13.4620   -8.0290 C.3   127  VAL127      0.0023
     68  N         28.7190   -9.4070   -6.2110 N.am  128  THR128     -0.1937
     69  CA        28.4210   -8.2360   -5.4080 C.3   128  THR128      0.2028
     70  C         27.1570   -7.5940   -5.9440 C.2   128  THR128      0.2642
     71  O         26.5170   -8.1300   -6.8410 O.2   128  THR128     -0.2714
     72  CB        29.5410   -7.2040   -5.4740 C.3   128  THR128      0.1808
     73  OG1       29.3370   -6.3480   -6.6030 O.3   128  THR128     -0.2208
     74  CG2       30.8830   -7.8990   -5.6110 C.3   128  THR128      0.0379
     75  N         26.7960   -6.4470   -5.3830 N.am  129  MET129     -0.1976
     76  CA        25.6100   -5.7310   -5.8220 C.3   129  MET129      0.1605
     77  C         26.0490   -4.7610   -6.8960 C.2   129  MET129      0.2287
     78  O         25.2310   -4.1630   -7.5890 O.2   129  MET129     -0.2864
     79  CB        24.9770   -4.9920   -4.6540 C.3   129  MET129      0.0413
     80  CG        24.4590   -5.9260   -3.5840 C.3   129  MET129      0.0598
     81  SD        23.1000   -6.9570   -4.1560 S.3   129  MET129     -0.1393
     82  CE        22.1840   -5.6580   -5.0200 C.3   129  MET129      0.0692
     83  N         26.2350   -7.1250   -9.7210 N.3   132  MET132     -0.1245
     84  CA        24.8590   -7.5190   -9.9500 C.3   132  MET132      0.1570
     85  C         24.0160   -6.4130  -10.5610 C.2   132  MET132      0.2261
     86  O         23.0690   -6.6700  -11.3120 O.2   132  MET132     -0.2867
     87  CB        24.2490   -7.9850   -8.6210 C.3   132  MET132      0.0387
     88  CG        23.0130   -8.8470   -8.7640 C.3   132  MET132      0.0595
     89  SD        22.8120   -9.9360   -7.3640 S.3   132  MET132     -0.1393
     90  CE        23.8320  -11.2690   -7.8540 C.3   132  MET132      0.0692
     91  N         21.5890  -12.8290  -10.9570 N.3   138  CYS138     -0.1235
     92  CA        20.4120  -12.2210  -10.3310 C.3   138  CYS138      0.1677
     93  C         19.9180  -10.9960  -11.1020 C.2   138  CYS138      0.2270
     94  O         18.8070  -10.9990  -11.6270 O.2   138  CYS138     -0.2867
     95  CB        20.7160  -11.8060   -8.8790 C.3   138  CYS138      0.0956
     96  SG        20.5750  -13.0890   -7.5930 S.3   138  CYS138     -0.0801
     97  N         16.5890   -9.5150  -13.0900 N.3   142  HIS142     -0.1241
     98  CA        16.1080   -8.4190  -12.2360 C.3   142  HIS142      0.1621
     99  C         16.9090   -7.1680  -12.5990 C.2   142  HIS142      0.2264
    100  O         17.8200   -6.8000  -11.8590 O.2   142  HIS142     -0.2867
    101  CB        16.3710   -8.7290  -10.7480 C.3   142  HIS142      0.0745
    102  CG        15.7940  -10.0280  -10.2660 C.ar  142  HIS142      0.0817
    103  ND1       14.4540  -10.2530  -10.0660 N.ar  142  HIS142     -0.2268
    104  CD2       16.4150  -11.1760   -9.8990 C.ar  142  HIS142      0.1154
    105  CE1       14.3060  -11.5010   -9.5850 C.ar  142  HIS142      0.1986
    106  NE2       15.4630  -12.1160   -9.4640 N.ar  142  HIS142     -0.2212
    107  N         11.9070   -6.4350  -11.7690 N.3   148  PHE148     -0.1241
    108  CA        12.2490   -5.3090  -10.9020 C.3   148  PHE148      0.1605
    109  C         13.7470   -5.1160  -10.7170 C.2   148  PHE148      0.2264
    110  O         14.5080   -6.0840  -10.6040 O.2   148  PHE148     -0.2867
    111  CB        11.5680   -5.4780   -9.5390 C.3   148  PHE148      0.0534
    112  CG        12.0290   -6.6840   -8.7650 C.ar  148  PHE148     -0.0203
    113  CD1       13.2540   -6.6790   -8.1050 C.ar  148  PHE148     -0.0042
    114  CD2       11.2060   -7.8020   -8.6450 C.ar  148  PHE148     -0.0042
    115  CE1       13.6490   -7.7630   -7.3330 C.ar  148  PHE148     -0.0003
    116  CE2       11.5920   -8.8950   -7.8740 C.ar  148  PHE148     -0.0003
    117  CZ        12.8150   -8.8740   -7.2120 C.ar  148  PHE148     -0.0000
    118  N         17.4420   -4.1950   -9.1530 N.3   150  VAL150     -0.1231
    119  CA        18.1170   -4.7450   -7.9900 C.3   150  VAL150      0.1692
    120  C         18.4440   -3.6350   -6.9880 C.2   150  VAL150      0.2592
    121  O         18.8980   -3.9000   -5.8770 O.2   150  VAL150     -0.2718
    122  CB        19.4020   -5.4820   -8.4140 C.3   150  VAL150      0.0266
    123  CG1       20.5460   -4.4980   -8.5150 C.3   150  VAL150      0.0020
    124  CG2       19.6990   -6.6060   -7.4580 C.3   150  VAL150      0.0020
    125  N         18.2220   -2.3900   -7.3960 N.am  151  ALA151     -0.1966
    126  CA        18.4530   -1.2560   -6.5150 C.3   151  ALA151      0.1728
    127  C         17.1490   -1.0720   -5.7470 C.2   151  ALA151      0.2617
    128  O         16.5670    0.0150   -5.7500 O.2   151  ALA151     -0.2715
    129  CB        18.7720    0.0060   -7.3200 C.3   151  ALA151      0.0334
    130  N         16.6910   -2.1540   -5.1110 N.am  152  GLY152     -0.1940
    131  CA        15.4560   -2.1350   -4.3370 C.3   152  GLY152      0.2014
    132  C         15.0830   -3.4950   -3.7630 C.2   152  GLY152      0.2639
    133  O         15.8620   -4.4420   -3.8360 O.2   152  GLY152     -0.2714
    134  N         13.8880   -3.5760   -3.1820 N.am  153  ASN153     -0.1958
    135  CA        13.3350   -4.8030   -2.5800 C.3   153  ASN153      0.1819
    136  C         14.3000   -5.7170   -1.8200 C.2   153  ASN153      0.2621
    137  O         14.0530   -6.9180   -1.6870 O.2   153  ASN153     -0.2715
    138  CB        12.6150   -5.6280   -3.6560 C.3   153  ASN153      0.1195
    139  CG        11.3970   -4.9140   -4.2220 C.2   153  ASN153      0.2630
    140  OD1       10.3650   -4.7920   -3.5520 O.2   153  ASN153     -0.2716
    141  ND2       11.5160   -4.4260   -5.4570 N.am  153  ASN153     -0.0877
    142  N         15.3760   -5.1410   -1.3040 N.am  154  CYS154     -0.1968
    143  CA        16.3920   -5.8900   -0.5800 C.3   154  CYS154      0.1712
    144  C         15.8640   -6.9230    0.4060 C.2   154  CYS154      0.2296
    145  O         16.5090   -7.9430    0.6610 O.2   154  CYS154     -0.2864
    146  CB        17.2920   -4.9060    0.1360 C.3   154  CYS154      0.0983
    147  SG        17.6700   -3.4970   -0.9390 S.3   154  CYS154     -0.0798
    148  N         13.1870   -8.5720   -0.0670 N.3   156  LYS156     -0.1231
    149  CA        12.5810   -9.6090   -0.8900 C.3   156  LYS156      0.1693
    150  C         13.5550  -10.7890   -1.0480 C.2   156  LYS156      0.2592
    151  O         13.1490  -11.9580   -0.9670 O.2   156  LYS156     -0.2718
    152  CB        12.1990   -9.0320   -2.2540 C.3   156  LYS156      0.0285
    153  CG        11.5000   -9.9560   -3.2100 C.3   156  LYS156      0.0035
    154  CD        10.0990  -10.1850   -2.7410 C.3   156  LYS156      0.0206
    155  CE         9.2670  -10.8770   -3.8260 C.3   156  LYS156      0.1093
    156  NZ         9.6260  -12.2760   -3.9770 N.3   156  LYS156     -0.1314
    157  N         14.8380  -10.4730   -1.2360 N.am  157  CYS157     -0.1956
    158  CA        15.8760  -11.4910   -1.4170 C.3   157  CYS157      0.1843
    159  C         16.6800  -11.7660   -0.1440 C.2   157  CYS157      0.2625
    160  O         16.9570  -12.9220    0.2010 O.2   157  CYS157     -0.2714
    161  CB        16.8570  -11.0580   -2.5080 C.3   157  CYS157      0.0997
    162  SG        16.1290  -10.2310   -3.9620 S.3   157  CYS157     -0.0797
    163  N         17.0720  -10.6910    0.5330 N.am  158  HIS158     -0.1973
    164  CA        17.8590  -10.7900    1.7560 C.3   158  HIS158      0.1656
    165  C         17.0000  -10.9860    2.9970 C.2   158  HIS158      0.2291
    166  O         15.8410  -10.5650    3.0320 O.2   158  HIS158     -0.2864
    167  CB        18.7010   -9.5340    1.9080 C.3   158  HIS158      0.0771
    168  CG        19.8300   -9.4520    0.9350 C.ar  158  HIS158      0.0820
    169  ND1       20.9640  -10.2290    1.0100 N.ar  158  HIS158     -0.2267
    170  CD2       19.9940   -8.6670   -0.1590 C.ar  158  HIS158      0.1154
    171  CE1       21.7620   -9.8960   -0.0140 C.ar  158  HIS158      0.1986
    172  NE2       21.2220   -8.9520   -0.7610 N.ar  158  HIS158     -0.2212
    173  N         16.3670   -7.2820    6.0850 N.3   161  MET161     -0.1245
    174  CA        16.7070   -5.9950    5.4800 C.3   161  MET161      0.1570
    175  C         15.5780   -4.9540    5.3910 C.2   161  MET161      0.2261
    176  O         15.4550   -4.1120    6.2730 O.2   161  MET161     -0.2867
    177  CB        17.2970   -6.2100    4.0860 C.3   161  MET161      0.0387
    178  CG        18.7170   -5.6680    3.9030 C.3   161  MET161      0.0595
    179  SD        20.0090   -6.9100    4.2070 S.3   161  MET161     -0.1393
    180  CE        21.4610   -6.0400    3.6260 C.3   161  MET161      0.0692
    181  N         22.7500    6.2610   -0.5620 N.3   189  LYS189     -0.1231
    182  CA        22.6240    4.8690   -0.9520 C.3   189  LYS189      0.1693
    183  C         22.9950    4.0090    0.2450 C.2   189  LYS189      0.2592
    184  O         23.9000    4.3550    1.0020 O.2   189  LYS189     -0.2718
    185  CB        23.5440    4.5630   -2.1370 C.3   189  LYS189      0.0285
    186  CG        23.4820    3.1720   -2.7030 C.3   189  LYS189      0.0035
    187  CD        22.2000    3.0000   -3.4530 C.3   189  LYS189      0.0206
    188  CE        22.2240    1.7130   -4.2830 C.3   189  LYS189      0.1093
    189  NZ        22.0960    0.5290   -3.4540 N.3   189  LYS189     -0.1314
    190  N         22.2930    2.8930    0.4180 N.am  190  CYS190     -0.1956
    191  CA        22.5560    1.9940    1.5360 C.3   190  CYS190      0.1843
    192  C         23.9970    2.0000    2.0210 C.2   190  CYS190      0.2625
    193  O         24.2860    2.5290    3.0890 O.2   190  CYS190     -0.2714
    194  CB        22.1550    0.5600    1.1880 C.3   190  CYS190      0.0997
    195  SG        20.3570    0.3030    1.1020 S.3   190  CYS190     -0.0797
    196  N         24.9040    1.4310    1.2370 N.am  191  ASN191     -0.1972
    197  CA        26.3040    1.3520    1.6490 C.3   191  ASN191      0.1688
    198  C         27.0080    2.6680    2.0180 C.2   191  ASN191      0.2292
    199  O         28.1410    2.6470    2.5130 O.2   191  ASN191     -0.2864
    200  CB        27.1280    0.5780    0.5990 C.3   191  ASN191      0.1181
    201  CG        27.0480    1.1890   -0.7920 C.2   191  ASN191      0.2629
    202  OD1       25.9640    1.3030   -1.3720 O.2   191  ASN191     -0.2716
    203  ND2       28.2030    1.5780   -1.3380 N.am  191  ASN191     -0.0877
    204  N         22.7770   -3.6650   10.2670 N.3   200  TYR200     -0.1241
    205  CA        21.4470   -4.0980    9.8540 C.3   200  TYR200      0.1605
    206  C         20.6860   -4.8570   10.9380 C.2   200  TYR200      0.2264
    207  O         19.5150   -4.5680   11.1920 O.2   200  TYR200     -0.2867
    208  CB        21.5330   -4.9800    8.6010 C.3   200  TYR200      0.0534
    209  CG        21.7940   -4.2310    7.3070 C.ar  200  TYR200     -0.0201
    210  CD1       23.0050   -4.3720    6.6260 C.ar  200  TYR200     -0.0009
    211  CD2       20.8210   -3.3920    6.7520 C.ar  200  TYR200     -0.0009
    212  CE1       23.2410   -3.6970    5.4250 C.ar  200  TYR200      0.0417
    213  CE2       21.0480   -2.7140    5.5520 C.ar  200  TYR200      0.0417
    214  CZ        22.2580   -2.8740    4.8940 C.ar  200  TYR200      0.1957
    215  OH        22.4880   -2.2180    3.7050 O.3   200  TYR200     -0.2866
@<TRIPOS>BOND
     1    97    98    1
     2    99    98    1
     3    99   100    2
     4    98   101    1
     5   107   108    1
     6    94    93    2
     7    86    85    2
     8    93    92    1
     9    91    92    1
    10   108   109    1
    11   108   111    1
    12   101   102    1
    13   109   110    2
    14    85    84    1
    15    92    95    1
    16   102   103   ar
    17   102   104   ar
    18   103   105   ar
    19    84    83    1
    20    84    87    1
    21   104   106   ar
    22   105   106   ar
    23   111   112    1
    24   118   119    1
    25    95    96    1
    26   112   114   ar
    27   112   113   ar
    28    88    87    1
    29    88    89    1
    30   114   116   ar
    31    52    50   ar
    32    52    51   ar
    33   123   122    1
    34   122   119    1
    35   122   124    1
    36    66    65    1
    37    50    48   ar
    38   113   115   ar
    39    67    65    1
    40   119   120    1
    41   116   117   ar
    42    90    89    1
    43    51    49   ar
    44    78    77    2
    45   125   120   am
    46   125   126    1
    47    65    62    1
    48   115   117   ar
    49   129   126    1
    50    48    47   ar
    51   120   121    2
    52    77    76    1
    53    71    70    2
    54    73    72    1
    55    62    61    1
    56    62    63    1
    57    49    47   ar
    58   126   127    1
    59    47    46    1
    60    68    63   am
    61    68    69    1
    62    70    69    1
    63    70    75   am
    64    76    75    1
    65    76    79    1
    66    61    55   am
    67   128   127    2
    68   127   130   am
    69    63    64    2
    70    74    72    1
    71    72    69    1
    72   141   139   am
    73    12    11    1
    74    53    54    1
    75   130   131    1
    76    55    56    2
    77    55    54    1
    78    82    81    1
    79    46    43    1
    80    79    80    1
    81   131   132    1
    82   188   189    1
    83   188   187    1
    84    54    57    1
    85   139   138    1
    86   139   140    2
    87    81    80    1
    88   156   155    1
    89   162   161    1
    90    44    43    1
    91    44    45    2
    92    11    10   ar
    93    11     9   ar
    94    43    42    1
    95   133   132    2
    96   155   154    1
    97   132   134   am
    98   138   135    1
    99   187   186    1
   100    57    58    1
   101    10     8   ar
   102   153   154    1
   103   153   152    1
   104   134   135    1
   105     9     7   ar
   106   186   185    1
   107   135   136    1
   108   161   158    1
   109    42    37   am
   110    58    60   am
   111    58    59    2
   112   152   149    1
   113   185   182    1
   114    38    37    2
   115     8     6   ar
   116   136   137    2
   117   136   142   am
   118     7     6   ar
   119    37    36    1
   120   158   157    1
   121   158   159    1
   122   202   201    2
   123   203   201   am
   124   142   143    1
   125   157   150   am
   126     6     5    1
   127   150   151    2
   128   150   149    1
   129   182   181    1
   130   182   183    1
   131   147   146    1
   132   149   148    1
   133   201   200    1
   134   172   170   ar
   135   172   171   ar
   136   143   146    1
   137   143   144    1
   138    36    35    1
   139    36    39    1
   140   170   168   ar
   141   159   160    2
   142   159   163   am
   143   171   169   ar
   144    34    31    1
   145    40    39    1
   146    35    32   am
   147     5     2    1
   148   183   190   am
   149   183   184    2
   150   144   145    2
   151   190   191    1
   152   163   164    1
   153   200   197    1
   154    32    33    2
   155    32    31    1
   156    39    41    1
   157   168   169   ar
   158   168   167    1
   159   195   194    1
   160    31    30    1
   161     2     1    1
   162     2     3    1
   163   194   191    1
   164   196   197    1
   165   196   192   am
   166    19    18    1
   167    19    20    1
   168   191   192    1
   169   197   198    1
   170    18    17    1
   171   164   167    1
   172   164   165    1
   173   198   199    2
   174   192   193    2
   175     3     4    2
   176   165   166    2
   177    17    14    1
   178   180   179    1
   179   215   214    1
   180    29    26    1
   181   178   177    1
   182   178   179    1
   183    14    13    1
   184    14    15    1
   185   177   174    1
   186   214   212   ar
   187   214   213   ar
   188    15    16    2
   189    26    27    1
   190    26    25    1
   191    24    23    2
   192   175   174    1
   193   175   176    2
   194   212   210   ar
   195   174   173    1
   196   213   211   ar
   197    27    28    2
   198    23    25   am
   199    23    22    1
   200   210   209   ar
   201   211   209   ar
   202    21    22    1
   203   209   208    1
   204   208   205    1
   205   205   204    1
   206   205   206    1
   207   206   207    2
