@<TRIPOS>MOLECULE
tmp/3ov0A01.pdb
 192 188 0 0 0
SMALL
GASTEIGER

@<TRIPOS>ATOM
      1  N         15.8190   21.5770   41.4480 N.3   248  TYR248     -0.1227
      2  CA        16.6030   20.6390   42.2410 C.3   248  TYR248      0.1736
      3  C         15.9380   20.2530   43.5550 C.2   248  TYR248      0.2595
      4  O         15.1990   21.0380   44.1460 O.2   248  TYR248     -0.2718
      5  CB        17.9810   21.2260   42.5570 C.3   248  TYR248      0.0548
      6  CG        18.8760   21.4600   41.3600 C.ar  248  TYR248     -0.0200
      7  CD1       18.8200   22.6530   40.6380 C.ar  248  TYR248     -0.0009
      8  CD2       19.8040   20.4940   40.9650 C.ar  248  TYR248     -0.0009
      9  CE1       19.6770   22.8790   39.5530 C.ar  248  TYR248      0.0417
     10  CE2       20.6620   20.7060   39.8820 C.ar  248  TYR248      0.0417
     11  CZ        20.5970   21.8990   39.1840 C.ar  248  TYR248      0.1957
     12  OH        21.4680   22.1100   38.1360 O.3   248  TYR248     -0.2866
     13  N         16.2070   19.0280   43.9990 N.am  249  LYS249     -0.1966
     14  CA        15.6860   18.5160   45.2640 C.3   249  LYS249      0.1728
     15  C         16.8860   18.4950   46.2100 C.2   249  LYS249      0.2617
     16  O         17.6810   17.5500   46.2150 O.2   249  LYS249     -0.2715
     17  CB        15.1220   17.1090   45.0830 C.3   249  LYS249      0.0311
     18  CG        13.9790   16.9030   44.0950 C.3   249  LYS249      0.0038
     19  CD        12.8340   17.6720   44.6460 C.3   249  LYS249      0.0206
     20  CE        11.8410   17.5560   43.4630 C.3   249  LYS249      0.1093
     21  NZ        11.0690   18.8070   43.4180 N.3   249  LYS249     -0.1314
     22  N         17.0170   19.5570   47.0000 N.am  250  THR250     -0.1937
     23  CA        18.1280   19.6960   47.9300 C.3   250  THR250      0.2028
     24  C         17.7340   19.5100   49.3890 C.2   250  THR250      0.2643
     25  O         16.5800   19.7210   49.7720 O.2   250  THR250     -0.2714
     26  CB        18.7680   21.0720   47.7880 C.3   250  THR250      0.1808
     27  OG1       17.8000   22.0780   48.1120 O.3   250  THR250     -0.2208
     28  CG2       19.2370   21.2840   46.3640 C.3   250  THR250      0.0379
     29  N         18.7220   19.1300   50.1950 N.am  251  SER251     -0.1935
     30  CA        18.5450   18.8970   51.6240 C.3   251  SER251      0.2055
     31  C         17.8460   20.0410   52.3580 C.2   251  SER251      0.2642
     32  O         17.0190   19.8060   53.2350 O.2   251  SER251     -0.2714
     33  CB        19.9060   18.6450   52.2750 C.3   251  SER251      0.2130
     34  OG        20.6210   17.6380   51.5820 O.3   251  SER251     -0.2179
     35  N         18.1710   21.2760   51.9950 N.am  252  VAL252     -0.1977
     36  CA        17.5830   22.4340   52.6540 C.3   252  VAL252      0.1596
     37  C         16.4160   23.0560   51.8960 C.2   252  VAL252      0.2287
     38  O         15.9900   24.1770   52.1970 O.2   252  VAL252     -0.2864
     39  CB        18.6570   23.5050   52.9000 C.3   252  VAL252      0.0276
     40  CG1       19.9500   22.8290   53.3000 C.3   252  VAL252      0.0022
     41  CG2       18.8570   24.3590   51.6670 C.3   252  VAL252      0.0022
     42  N         16.1970   24.1210   44.7250 N.3   255  ALA255     -0.1245
     43  CA        17.1810   24.9160   43.9990 C.3   255  ALA255      0.1562
     44  C         16.6380   25.1910   42.5990 C.2   255  ALA255      0.2260
     45  O         16.0380   24.3180   41.9780 O.2   255  ALA255     -0.2867
     46  CB        18.5000   24.1630   43.9180 C.3   255  ALA255      0.0290
     47  N         25.0530   14.4690   41.9440 N.3   284  PRO284     -0.2102
     48  CA        24.8040   15.6700   42.7560 C.3   284  PRO284      0.1504
     49  C         26.0430   16.3310   43.3660 C.2   284  PRO284      0.2576
     50  O         26.7020   15.7700   44.2420 O.2   284  PRO284     -0.2718
     51  CB        23.8140   15.1760   43.8180 C.3   284  PRO284      0.0282
     52  CG        24.1270   13.7040   43.9310 C.3   284  PRO284      0.0208
     53  CD        24.2890   13.3240   42.4760 C.3   284  PRO284      0.0893
     54  N         26.3570   17.5270   42.8830 N.am  285  ALA285     -0.1966
     55  CA        27.4970   18.2710   43.3820 C.3   285  ALA285      0.1728
     56  C         27.0620   18.9110   44.6890 C.2   285  ALA285      0.2617
     57  O         25.9360   19.4040   44.8040 O.2   285  ALA285     -0.2715
     58  CB        27.9020   19.3380   42.3810 C.3   285  ALA285      0.0334
     59  N         27.9500   18.8970   45.6760 N.am  286  THR286     -0.1937
     60  CA        27.6470   19.4770   46.9750 C.3   286  THR286      0.2028
     61  C         28.0940   20.9250   47.0060 C.2   286  THR286      0.2642
     62  O         29.0090   21.3150   46.2780 O.2   286  THR286     -0.2714
     63  CB        28.3710   18.7320   48.0890 C.3   286  THR286      0.1808
     64  OG1       29.7750   19.0020   48.0050 O.3   286  THR286     -0.2208
     65  CG2       28.1390   17.2340   47.9590 C.3   286  THR286      0.0379
     66  N         27.4410   21.7180   47.8480 N.am  287  MET287     -0.1962
     67  CA        27.7730   23.1290   47.9850 C.3   287  MET287      0.1736
     68  C         29.2050   23.2490   48.4540 C.2   287  MET287      0.2616
     69  O         29.8050   24.3250   48.4180 O.2   287  MET287     -0.2715
     70  CB        26.8560   23.7750   48.9940 C.3   287  MET287      0.0427
     71  CG        25.4380   23.7920   48.5770 C.3   287  MET287      0.0599
     72  SD        25.0690   25.1720   47.5550 S.3   287  MET287     -0.1393
     73  CE        26.4750   26.1870   47.7910 C.3   287  MET287      0.0692
     74  N         29.7360   22.1280   48.9240 N.am  288  ALA288     -0.1977
     75  CA        31.1120   22.0680   49.3800 C.3   288  ALA288      0.1597
     76  C         31.9250   22.2500   48.1160 C.2   288  ALA288      0.2287
     77  O         32.8350   23.0840   48.0490 O.2   288  ALA288     -0.2864
     78  CB        31.4030   20.7050   49.9950 C.3   288  ALA288      0.0319
     79  N         30.7730   23.2060   44.9670 N.3   290  MET290     -0.1230
     80  CA        30.4580   24.4690   44.3320 C.3   290  MET290      0.1702
     81  C         31.3250   25.6000   44.8690 C.2   290  MET290      0.2592
     82  O         31.3650   26.6890   44.3040 O.2   290  MET290     -0.2718
     83  CB        29.0040   24.7890   44.5740 C.3   290  MET290      0.0401
     84  CG        28.2880   25.2440   43.3650 C.3   290  MET290      0.0596
     85  SD        26.5640   25.0690   43.6810 S.3   290  MET290     -0.1393
     86  CE        26.4760   23.2840   43.9410 C.3   290  MET290      0.0692
     87  N         32.0070   25.3480   45.9800 N.am  291  GLU291     -0.1979
     88  CA        32.8770   26.3540   46.5620 C.3   291  GLU291      0.1602
     89  C         34.2720   26.0570   46.0470 C.2   291  GLU291      0.2287
     90  O         35.0070   26.9720   45.6910 O.2   291  GLU291     -0.2864
     91  CB        32.8170   26.2990   48.1000 C.3   291  GLU291      0.0415
     92  CG        32.4500   27.6560   48.7550 C.3   291  GLU291      0.1163
     93  CD        31.8380   27.5230   50.1520 C.2   291  GLU291      0.3649
     94  OE1       32.5370   27.0280   51.0650 O.co2 291  GLU291     -0.2457
     95  OE2       30.6600   27.9180   50.3290 O.co2 291  GLU291     -0.2457
     96  N         30.7310   22.3620   39.7350 N.3   295  SER295     -0.1202
     97  CA        29.3600   22.7730   39.3990 C.3   295  SER295      0.2020
     98  C         29.1300   24.2780   39.2910 C.2   295  SER295      0.2619
     99  O         30.0360   25.0180   38.9330 O.2   295  SER295     -0.2717
    100  CB        28.3600   22.1720   40.3840 C.3   295  SER295      0.2103
    101  OG        27.0420   22.5700   40.0560 O.3   295  SER295     -0.2182
    102  N         27.9170   24.7300   39.5930 N.am  296  CYS296     -0.1969
    103  CA        27.5780   26.1470   39.4900 C.3   296  CYS296      0.1712
    104  C         28.7140   27.0670   39.9150 C.2   296  CYS296      0.2296
    105  O         28.7520   28.2450   39.5510 O.2   296  CYS296     -0.2864
    106  CB        26.3590   26.4550   40.3480 C.3   296  CYS296      0.0983
    107  SG        25.0580   25.1950   40.2500 S.3   296  CYS296     -0.0798
    108  N         30.2480   30.5720   39.3890 N.3   300  HIS300     -0.1241
    109  CA        29.6790   31.1850   40.5820 C.3   300  HIS300      0.1621
    110  C         30.6960   31.1720   41.7110 C.2   300  HIS300      0.2264
    111  O         30.7430   30.2440   42.5190 O.2   300  HIS300     -0.2867
    112  CB        28.4020   30.4670   40.9980 C.3   300  HIS300      0.0745
    113  CG        27.1950   30.9480   40.2650 C.ar  300  HIS300      0.0817
    114  ND1       26.7640   32.2560   40.2710 N.ar  300  HIS300     -0.2268
    115  CD2       26.3470   30.2870   39.4390 C.ar  300  HIS300      0.1154
    116  CE1       25.6970   32.3570   39.4630 C.ar  300  HIS300      0.1986
    117  NE2       25.3940   31.1910   38.9240 N.ar  300  HIS300     -0.2212
    118  N         28.9170   35.2810   40.8180 N.3   306  PHE306     -0.1227
    119  CA        28.8320   35.6500   42.2210 C.3   306  PHE306      0.1736
    120  C         29.0260   34.3600   43.0020 C.2   306  PHE306      0.2596
    121  O         28.7970   33.2730   42.4710 O.2   306  PHE306     -0.2718
    122  CB        27.5140   36.3710   42.5730 C.3   306  PHE306      0.0547
    123  CG        26.2680   35.5850   42.3090 C.ar  306  PHE306     -0.0202
    124  CD1       26.1820   34.2360   42.6160 C.ar  306  PHE306     -0.0042
    125  CD2       25.1420   36.2270   41.8190 C.ar  306  PHE306     -0.0042
    126  CE1       24.9930   33.5380   42.4400 C.ar  306  PHE306     -0.0003
    127  CE2       23.9490   35.5380   41.6410 C.ar  306  PHE306     -0.0003
    128  CZ        23.8750   34.1900   41.9540 C.ar  306  PHE306     -0.0000
    129  N         29.4620   34.4760   44.2530 N.am  307  SER307     -0.1938
    130  CA        29.7460   33.2950   45.0680 C.3   307  SER307      0.2055
    131  C         28.5790   32.5220   45.6570 C.2   307  SER307      0.2643
    132  O         27.5720   33.0820   46.0860 O.2   307  SER307     -0.2714
    133  CB        30.7150   33.6540   46.2030 C.3   307  SER307      0.2130
    134  OG        31.2500   32.4780   46.7960 O.3   307  SER307     -0.2179
    135  N         28.7450   31.2080   45.6660 N.am  308  VAL308     -0.1963
    136  CA        27.7530   30.3210   46.2200 C.3   308  VAL308      0.1727
    137  C         27.5650   30.7390   47.6710 C.2   308  VAL308      0.2616
    138  O         26.4410   30.8320   48.1560 O.2   308  VAL308     -0.2715
    139  CB        28.2390   28.8670   46.1620 C.3   308  VAL308      0.0290
    140  CG1       28.0740   28.3150   44.7600 C.3   308  VAL308      0.0023
    141  CG2       29.7030   28.8050   46.5650 C.3   308  VAL308      0.0023
    142  N         28.6780   31.0050   48.3530 N.am  309  ALA309     -0.1963
    143  CA        28.6670   31.4240   49.7540 C.3   309  ALA309      0.1728
    144  C         27.4750   32.3220   50.0890 C.2   309  ALA309      0.2616
    145  O         26.4710   31.8560   50.6180 O.2   309  ALA309     -0.2715
    146  CB        29.9590   32.1460   50.0800 C.3   309  ALA309      0.0334
    147  N         27.5940   33.6080   49.7800 N.am  310  ASP310     -0.1957
    148  CA        26.5250   34.5670   50.0450 C.3   310  ASP310      0.1840
    149  C         25.3090   34.2800   49.1490 C.2   310  ASP310      0.2622
    150  O         25.2300   33.2400   48.5010 O.2   310  ASP310     -0.2715
    151  CB        27.0390   35.9930   49.7810 C.3   310  ASP310      0.1450
    152  CG        26.2280   37.0710   50.5150 C.2   310  ASP310      0.3671
    153  OD1       25.0260   36.8550   50.8020 O.co2 310  ASP310     -0.2456
    154  OD2       26.7980   38.1520   50.7950 O.co2 310  ASP310     -0.2456
    155  N         24.3690   35.2210   49.1380 N.am  311  ASP311     -0.1957
    156  CA        23.1380   35.1820   48.3410 C.3   311  ASP311      0.1840
    157  C         22.4250   33.8320   48.1510 C.2   311  ASP311      0.2622
    158  O         21.8370   33.5850   47.0980 O.2   311  ASP311     -0.2715
    159  CB        23.4060   35.8070   46.9610 C.3   311  ASP311      0.1450
    160  CG        24.1860   37.1270   47.0420 C.2   311  ASP311      0.3671
    161  OD1       25.4310   37.1020   46.8870 O.co2 311  ASP311     -0.2456
    162  OD2       23.5520   38.1870   47.2630 O.co2 311  ASP311     -0.2456
    163  N         22.4500   32.9770   49.1700 N.am  312  CYS312     -0.1968
    164  CA        21.8080   31.6640   49.0960 C.3   312  CYS312      0.1712
    165  C         20.3570   31.6990   48.6450 C.2   312  CYS312      0.2296
    166  O         19.8220   30.6890   48.1960 O.2   312  CYS312     -0.2864
    167  CB        21.8590   30.9680   50.4540 C.3   312  CYS312      0.0983
    168  SG        23.5210   30.4600   50.9860 S.3   312  CYS312     -0.0798
    169  N         19.3350   31.3220   44.3800 N.3   315  CYS315     -0.1221
    170  CA        19.1990   29.9990   43.7860 C.3   315  CYS315      0.1808
    171  C         18.3940   29.0670   44.6620 C.2   315  CYS315      0.2601
    172  O         18.1380   27.9240   44.2880 O.2   315  CYS315     -0.2717
    173  CB        20.5690   29.3870   43.5760 C.3   315  CYS315      0.0970
    174  SG        21.8560   30.6490   43.6700 S.3   315  CYS315     -0.0800
    175  N         17.9980   29.5470   45.8330 N.am  316  HIS316     -0.1975
    176  CA        17.2420   28.7140   46.7490 C.3   316  HIS316      0.1656
    177  C         15.8980   29.3100   47.1190 C.2   316  HIS316      0.2291
    178  O         15.6560   30.5050   46.9500 O.2   316  HIS316     -0.2864
    179  CB        18.0570   28.4750   48.0190 C.3   316  HIS316      0.0771
    180  CG        19.1110   27.4180   47.8850 C.ar  316  HIS316      0.0820
    181  ND1       18.8670   26.0680   48.0030 N.ar  316  HIS316     -0.2267
    182  CD2       20.4470   27.5320   47.6800 C.ar  316  HIS316      0.1154
    183  CE1       20.0320   25.4220   47.8780 C.ar  316  HIS316      0.1986
    184  NE2       21.0180   26.2680   47.6780 N.ar  316  HIS316     -0.2212
    185  N         13.7920   29.0860   50.4710 N.3   318  MET318     -0.1245
    186  CA        13.6920   28.6740   51.8670 C.3   318  MET318      0.1570
    187  C         12.8470   29.6380   52.7020 C.2   318  MET318      0.2261
    188  O         13.4150   30.3020   53.6020 O.2   318  MET318     -0.2867
    189  CB        15.0970   28.5580   52.4620 C.3   318  MET318      0.0387
    190  CG        16.0190   27.6520   51.6660 C.3   318  MET318      0.0595
    191  SD        17.6940   27.6430   52.3080 S.3   318  MET318     -0.1393
    192  CE        18.2410   29.3030   51.8560 C.3   318  MET318      0.0692
@<TRIPOS>BOND
     1    12    11    1
     2   117   115   ar
     3   117   116   ar
     4    99    98    2
     5    11     9   ar
     6    11    10   ar
     7    98    97    1
     8    98   102   am
     9   108   109    1
    10    97    96    1
    11    97   100    1
    12   115   113   ar
    13   116   114   ar
    14   103   102    1
    15   103   104    1
    16   103   106    1
    17   105   104    2
    18     9     7   ar
    19    10     8   ar
    20   101   100    1
    21   107   106    1
    22   113   114   ar
    23   113   112    1
    24   109   112    1
    25   109   110    1
    26     7     6   ar
    27   118   119    1
    28     8     6   ar
    29     6     5    1
    30     1     2    1
    31   127   125   ar
    32   127   128   ar
    33   110   111    2
    34   125   123   ar
    35    47    53    1
    36    47    48    1
    37   128   126   ar
    38    45    44    2
    39   119   122    1
    40   119   120    1
    41     2     5    1
    42     2     3    1
    43   123   122    1
    44   123   124   ar
    45    58    55    1
    46   126   124   ar
    47   121   120    2
    48    53    52    1
    49    44    43    1
    50    48    49    1
    51    48    51    1
    52    54    49   am
    53    54    55    1
    54   120   129   am
    55    84    85    1
    56    84    83    1
    57    49    50    2
    58    55    56    1
    59    21    20    1
    60    20    19    1
    61     3    13   am
    62     3     4    2
    63   173   174    1
    64   173   170    1
    65    85    86    1
    66   170   169    1
    67   170   171    1
    68    51    52    1
    69    46    43    1
    70    43    42    1
    71    13    14    1
    72    18    19    1
    73    18    17    1
    74   129   130    1
    75   172   171    2
    76    82    81    2
    77    80    83    1
    78    80    81    1
    79    80    79    1
    80   171   175   am
    81    56    57    2
    82    56    59   am
    83   140   139    1
    84    81    87   am
    85   130   131    1
    86   130   133    1
    87    17    14    1
    88    14    15    1
    89   131   135   am
    90   131   132    2
    91   135   136    1
    92    59    60    1
    93    90    89    2
    94   175   176    1
    95    87    88    1
    96    89    88    1
    97   139   136    1
    98   139   141    1
    99   133   134    1
   100    15    16    2
   101    15    22   am
   102   136   137    1
   103    62    61    2
   104    28    26    1
   105    88    91    1
   106   176   177    1
   107   176   179    1
   108   161   160   ar
   109   178   177    2
   110   159   160    1
   111   159   156    1
   112    60    61    1
   113    60    63    1
   114    22    23    1
   115    61    66   am
   116   160   162   ar
   117   158   157    2
   118    72    73    1
   119    72    71    1
   120   137   138    2
   121   137   142   am
   122   184   182   ar
   123   184   183   ar
   124   182   180   ar
   125    26    23    1
   126    26    27    1
   127    66    67    1
   128   183   181   ar
   129   180   181   ar
   130   180   179    1
   131    23    24    1
   132    65    63    1
   133    67    68    1
   134    67    70    1
   135    64    63    1
   136    77    76    2
   137    91    92    1
   138    76    75    1
   139   157   156    1
   140   157   163   am
   141   166   165    2
   142   156   155    1
   143   142   143    1
   144    69    68    2
   145    68    74   am
   146   150   149    2
   147    71    70    1
   148   165   164    1
   149    92    93    1
   150    74    75    1
   151   164   163    1
   152   164   167    1
   153   155   149   am
   154   149   148    1
   155    75    78    1
   156    24    25    2
   157    24    29   am
   158   143   146    1
   159   143   144    1
   160   147   148    1
   161   147   144   am
   162   151   148    1
   163   151   152    1
   164   144   145    2
   165    93    95   ar
   166    93    94   ar
   167    29    30    1
   168   167   168    1
   169   185   186    1
   170   152   154   ar
   171   152   153   ar
   172    34    33    1
   173    30    33    1
   174    30    31    1
   175   190   191    1
   176   190   189    1
   177    41    39    1
   178   192   191    1
   179   186   189    1
   180   186   187    1
   181    37    38    2
   182    37    36    1
   183    35    31   am
   184    35    36    1
   185    31    32    2
   186    36    39    1
   187   187   188    2
   188    39    40    1
