@<TRIPOS>MOLECULE
tmp/3ov0A10.pdb
 207 199 0 0 0
SMALL
GASTEIGER

@<TRIPOS>ATOM
      1  N         14.9910    5.9890   18.9370 N.3   169  PHE169     -0.1241
      2  CA        16.0730    5.6690   19.8560 C.3   169  PHE169      0.1605
      3  C         15.5450    5.9810   21.2520 C.2   169  PHE169      0.2264
      4  O         15.1350    7.1110   21.5340 O.2   169  PHE169     -0.2867
      5  CB        17.3300    6.4990   19.5580 C.3   169  PHE169      0.0534
      6  CG        17.9870    6.1650   18.2480 C.ar  169  PHE169     -0.0203
      7  CD1       17.5760    6.7790   17.0710 C.ar  169  PHE169     -0.0042
      8  CD2       19.0120    5.2230   18.1910 C.ar  169  PHE169     -0.0042
      9  CE1       18.1830    6.4650   15.8570 C.ar  169  PHE169     -0.0003
     10  CE2       19.6260    4.9000   16.9820 C.ar  169  PHE169     -0.0003
     11  CZ        19.2090    5.5210   15.8140 C.ar  169  PHE169     -0.0000
     12  N         15.8490    6.8040   25.0420 N.3   171  MET171     -0.1245
     13  CA        16.8660    7.4470   25.8650 C.3   171  MET171      0.1570
     14  C         16.3990    7.7000   27.2990 C.2   171  MET171      0.2261
     15  O         15.2390    8.0470   27.5400 O.2   171  MET171     -0.2867
     16  CB        17.3100    8.7570   25.2120 C.3   171  MET171      0.0387
     17  CG        17.9150    8.6200   23.7950 C.3   171  MET171      0.0595
     18  SD        19.5320    7.8260   23.7680 S.3   171  MET171     -0.1393
     19  CE        20.6370    9.2740   24.0720 C.3   171  MET171      0.0692
     20  N         17.2930   11.9390   28.7770 N.3   174  VAL174     -0.1245
     21  CA        17.2150   12.8760   27.6500 C.3   174  VAL174      0.1561
     22  C         15.7640   13.0290   27.1950 C.2   174  VAL174      0.2260
     23  O         15.1010   14.0340   27.4790 O.2   174  VAL174     -0.2867
     24  CB        18.0230   12.3730   26.4270 C.3   174  VAL174      0.0252
     25  CG1       18.2030   13.5050   25.4340 C.3   174  VAL174      0.0019
     26  CG2       19.3630   11.8160   26.8670 C.3   174  VAL174      0.0019
     27  N         15.0440    9.9940   20.4810 N.3   177  ALA177     -0.1245
     28  CA        15.7980   10.3490   19.2730 C.3   177  ALA177      0.1562
     29  C         15.1360    9.8010   18.0030 C.2   177  ALA177      0.2260
     30  O         15.1320    8.5920   17.7500 O.2   177  ALA177     -0.2867
     31  CB        17.2420    9.8280   19.3780 C.3   177  ALA177      0.0290
     32  N         14.8840    9.6360   13.8720 N.3   179  PHE179     -0.1241
     33  CA        15.6760    9.7420   12.6560 C.3   179  PHE179      0.1605
     34  C         14.8110    9.2000   11.5370 C.2   179  PHE179      0.2264
     35  O         14.1680    8.1760   11.7190 O.2   179  PHE179     -0.2867
     36  CB        16.9260    8.8950   12.7920 C.3   179  PHE179      0.0534
     37  CG        17.4170    8.3420   11.5030 C.ar  179  PHE179     -0.0203
     38  CD1       17.9490    9.1720   10.5320 C.ar  179  PHE179     -0.0042
     39  CD2       17.3370    6.9880   11.2580 C.ar  179  PHE179     -0.0042
     40  CE1       18.4010    8.6560    9.3430 C.ar  179  PHE179     -0.0003
     41  CE2       17.7830    6.4650   10.0760 C.ar  179  PHE179     -0.0003
     42  CZ        18.3150    7.2960    9.1130 C.ar  179  PHE179     -0.0000
     43  N         25.8010    1.2570   20.9640 N.3   206  ARG206     -0.1231
     44  CA        24.9410    2.4400   20.9470 C.3   206  ARG206      0.1694
     45  C         25.8310    3.6460   21.2480 C.2   206  ARG206      0.2592
     46  O         26.1200    3.9460   22.4050 O.2   206  ARG206     -0.2718
     47  CB        23.8520    2.3460   22.0150 C.3   206  ARG206      0.0321
     48  CG        22.9530    1.1420   21.9110 C.3   206  ARG206      0.0489
     49  CD        21.7170    1.3760   22.7520 C.3   206  ARG206      0.2205
     50  NE        20.9420    2.5050   22.2420 N.pl3 206  ARG206     -0.0865
     51  CZ        19.8710    3.0180   22.8420 C.cat 206  ARG206      0.5346
     52  NH1       19.4390    2.5060   23.9860 N.pl3 206  ARG206      0.1354
     53  NH2       19.2210    4.0350   22.2910 N.pl3 206  ARG206      0.1354
     54  N         26.2600    4.3340   20.1990 N.am  207  PHE207     -0.1962
     55  CA        27.1430    5.4860   20.3320 C.3   207  PHE207      0.1771
     56  C         26.6050    6.5900   21.2590 C.2   207  PHE207      0.2620
     57  O         25.4700    6.5230   21.7390 O.2   207  PHE207     -0.2715
     58  CB        27.4280    6.0710   18.9390 C.3   207  PHE207      0.0574
     59  CG        27.6770    5.0260   17.8650 C.ar  207  PHE207     -0.0200
     60  CD1       26.6280    4.2440   17.3740 C.ar  207  PHE207     -0.0042
     61  CD2       28.9560    4.8420   17.3320 C.ar  207  PHE207     -0.0042
     62  CE1       26.8500    3.2920   16.3750 C.ar  207  PHE207     -0.0003
     63  CE2       29.1890    3.8930   16.3330 C.ar  207  PHE207     -0.0003
     64  CZ        28.1320    3.1190   15.8520 C.ar  207  PHE207     -0.0000
     65  N         27.4430    7.5990   21.5040 N.am  208  THR208     -0.1937
     66  CA        27.0910    8.7470   22.3470 C.3   208  THR208      0.2028
     67  C         27.4320   10.0500   21.6130 C.2   208  THR208      0.2642
     68  O         28.4010   10.1030   20.8540 O.2   208  THR208     -0.2714
     69  CB        27.8780    8.7560   23.6690 C.3   208  THR208      0.1808
     70  OG1       29.2470    9.0800   23.3990 O.3   208  THR208     -0.2208
     71  CG2       27.8030    7.3990   24.3520 C.3   208  THR208      0.0379
     72  N         26.6400   11.0950   21.8510 N.am  209  MET209     -0.1962
     73  CA        26.8460   12.3970   21.2150 C.3   209  MET209      0.1736
     74  C         28.3240   12.7580   21.1290 C.2   209  MET209      0.2616
     75  O         28.7790   13.3470   20.1480 O.2   209  MET209     -0.2715
     76  CB        26.1100   13.4940   21.9900 C.3   209  MET209      0.0427
     77  CG        24.6030   13.3240   22.0680 C.3   209  MET209      0.0599
     78  SD        23.7730   13.2800   20.4730 S.3   209  MET209     -0.1393
     79  CE        24.7390   14.5040   19.5900 C.3   209  MET209      0.0692
     80  N         29.0650   12.4040   22.1720 N.am  210  ALA210     -0.1977
     81  CA        30.4930   12.6820   22.2280 C.3   210  ALA210      0.1597
     82  C         31.2090   11.8750   21.1540 C.2   210  ALA210      0.2287
     83  O         32.0590   12.3940   20.4300 O.2   210  ALA210     -0.2864
     84  CB        31.0370   12.3230   23.6090 C.3   210  ALA210      0.0319
     85  N         30.1150   10.8650   18.4310 N.3   212  MET212     -0.1245
     86  CA        29.8160   11.4550   17.1330 C.3   212  MET212      0.1570
     87  C         30.9360   12.3860   16.6750 C.2   212  MET212      0.2261
     88  O         31.5180   12.1760   15.6190 O.2   212  MET212     -0.2867
     89  CB        28.4870   12.2090   17.1960 C.3   212  MET212      0.0387
     90  CG        27.4190   11.2610   17.7480 C.3   212  MET212      0.0595
     91  SD        25.8830   12.1240   17.3950 S.3   212  MET212     -0.1393
     92  CE        24.7580   10.8340   17.9400 C.3   212  MET212      0.0692
     93  N         28.5640    7.2440   13.9020 N.3   217  SER217     -0.1202
     94  CA        27.1190    7.4760   13.9450 C.3   217  SER217      0.2020
     95  C         26.7590    8.8000   13.2880 C.2   217  SER217      0.2619
     96  O         27.5020    9.3040   12.4480 O.2   217  SER217     -0.2717
     97  CB        26.5980    7.4640   15.3780 C.3   217  SER217      0.2103
     98  OG        25.1870    7.5810   15.3850 O.3   217  SER217     -0.2182
     99  N         25.6240    9.3660   13.6670 N.am  218  CYS218     -0.1969
    100  CA        25.1960   10.6250   13.0880 C.3   218  CYS218      0.1712
    101  C         26.3320   11.6160   12.8670 C.2   218  CYS218      0.2296
    102  O         26.3340   12.3690   11.8880 O.2   218  CYS218     -0.2864
    103  CB        24.1290   11.2400   13.9660 C.3   218  CYS218      0.0983
    104  SG        22.7300   10.1070   14.1130 S.3   218  CYS218     -0.0798
    105  N         26.8430   14.5080   10.3130 N.3   222  HIS222     -0.1241
    106  CA        26.4290   15.6810   11.0600 C.3   222  HIS222      0.1621
    107  C         27.6090   16.1290   11.9070 C.2   222  HIS222      0.2264
    108  O         27.9610   15.4860   12.8960 O.2   222  HIS222     -0.2867
    109  CB        25.2400   15.3340   11.9360 C.3   222  HIS222      0.0745
    110  CG        23.9720   15.1310   11.1720 C.ar  222  HIS222      0.0817
    111  ND1       23.1400   16.1550   10.7720 N.ar  222  HIS222     -0.2268
    112  CD2       23.3820   13.9870   10.7380 C.ar  222  HIS222      0.1154
    113  CE1       22.0940   15.6100   10.1320 C.ar  222  HIS222      0.1986
    114  NE2       22.1920   14.2980   10.0820 N.ar  222  HIS222     -0.2212
    115  N         24.2910   19.0720    9.0060 N.3   228  PHE228     -0.1227
    116  CA        24.2410   20.0060   10.1270 C.3   228  PHE228      0.1736
    117  C         24.8840   19.5070   11.4180 C.2   228  PHE228      0.2596
    118  O         24.8560   18.3180   11.7330 O.2   228  PHE228     -0.2718
    119  CB        22.8020   20.4620   10.3780 C.3   228  PHE228      0.0547
    120  CG        22.0610   19.6410   11.3780 C.ar  228  PHE228     -0.0202
    121  CD1       22.1420   19.9350   12.7240 C.ar  228  PHE228     -0.0042
    122  CD2       21.2640   18.5840   10.9700 C.ar  228  PHE228     -0.0042
    123  CE1       21.4310   19.1930   13.6480 C.ar  228  PHE228     -0.0003
    124  CE2       20.5500   17.8360   11.8870 C.ar  228  PHE228     -0.0003
    125  CZ        20.6330   18.1390   13.2300 C.ar  228  PHE228     -0.0000
    126  N         25.4590   20.4650   12.1440 N.am  229  SER229     -0.1938
    127  CA        26.1870   20.2770   13.4020 C.3   229  SER229      0.2055
    128  C         25.5930   19.3520   14.4520 C.2   229  SER229      0.2644
    129  O         24.5370   19.6380   15.0150 O.2   229  SER229     -0.2714
    130  CB        26.4270   21.6400   14.0570 C.3   229  SER229      0.2130
    131  OG        27.0140   22.5540   13.1480 O.3   229  SER229     -0.2179
    132  N         26.3020   18.2650   14.7470 N.am  230  SER230     -0.1935
    133  CA        25.8530   17.3070   15.7530 C.3   230  SER230      0.2055
    134  C         25.9490   17.9680   17.1200 C.2   230  SER230      0.2643
    135  O         25.5300   17.4020   18.1320 O.2   230  SER230     -0.2714
    136  CB        26.7400   16.0580   15.7380 C.3   230  SER230      0.2130
    137  OG        28.0340   16.3390   16.2520 O.3   230  SER230     -0.2179
    138  N         26.5010   19.1770   17.1280 N.am  231  ALA231     -0.1963
    139  CA        26.7010   19.9430   18.3500 C.3   231  ALA231      0.1728
    140  C         25.4530   20.6070   18.9190 C.2   231  ALA231      0.2616
    141  O         25.0920   20.3630   20.0680 O.2   231  ALA231     -0.2715
    142  CB        27.7840   20.9920   18.1240 C.3   231  ALA231      0.0334
    143  N         24.7980   21.4540   18.1310 N.am  232  SER232     -0.1950
    144  CA        23.6100   22.1410   18.6300 C.3   232  SER232      0.1924
    145  C         22.3770   21.8840   17.7800 C.2   232  SER232      0.2314
    146  O         22.2950   20.8830   17.0680 O.2   232  SER232     -0.2863
    147  CB        23.8730   23.6550   18.7240 C.3   232  SER232      0.2116
    148  OG        22.8000   24.3420   19.3600 O.3   232  SER232     -0.2180
    149  N         19.8250   20.8580   18.6360 N.3   234  CYS234     -0.1235
    150  CA        19.1590   19.7450   19.3290 C.3   234  CYS234      0.1677
    151  C         17.7140   19.4630   18.9540 C.2   234  CYS234      0.2270
    152  O         17.3480   18.3110   18.7310 O.2   234  CYS234     -0.2867
    153  CB        19.2260   19.9590   20.8450 C.3   234  CYS234      0.0956
    154  SG        20.9100   20.0280   21.5310 S.3   234  CYS234     -0.0801
    155  N         17.0280   16.2230   15.9420 N.3   237  CYS237     -0.1221
    156  CA        17.0120   14.7920   16.1910 C.3   237  CYS237      0.1808
    157  C         16.1730   14.4240   17.4130 C.2   237  CYS237      0.2601
    158  O         15.4740   13.4080   17.4090 O.2   237  CYS237     -0.2717
    159  CB        18.4300   14.2900   16.3750 C.3   237  CYS237      0.0970
    160  SG        19.5520   14.9070   15.0930 S.3   237  CYS237     -0.0800
    161  N         16.2500   15.2400   18.4630 N.am  238  HIS238     -0.1975
    162  CA        15.4840   15.0050   19.6890 C.3   238  HIS238      0.1656
    163  C         14.2590   15.9140   19.6300 C.2   238  HIS238      0.2291
    164  O         14.3740   17.1320   19.6970 O.2   238  HIS238     -0.2864
    165  CB        16.3480   15.3210   20.9130 C.3   238  HIS238      0.0771
    166  CG        17.5500   14.4330   21.0520 C.ar  238  HIS238      0.0820
    167  ND1       17.4890   13.0900   21.3530 N.ar  238  HIS238     -0.2267
    168  CD2       18.8690   14.7160   20.9170 C.ar  238  HIS238      0.1154
    169  CE1       18.7380   12.6160   21.3920 C.ar  238  HIS238      0.1986
    170  NE2       19.6080   13.5660   21.1330 N.ar  238  HIS238     -0.2212
    171  N         12.6720   18.0220   23.2240 N.3   241  LEU241     -0.1245
    172  CA        13.8000   18.4240   24.0550 C.3   241  LEU241      0.1561
    173  C         14.0450   19.9130   23.9520 C.2   241  LEU241      0.2260
    174  O         14.0630   20.4720   22.8600 O.2   241  LEU241     -0.2867
    175  CB        15.0720   17.6990   23.6340 C.3   241  LEU241      0.0270
    176  CG        16.2890   18.2090   24.4020 C.3   241  LEU241      0.0019
    177  CD1       16.1110   17.8640   25.8750 C.3   241  LEU241      0.0001
    178  CD2       17.5600   17.5920   23.8540 C.3   241  LEU241      0.0001
    179  N         25.8710   26.3500   24.8970 N.3   268  CYS268     -0.1235
    180  CA        25.9360   24.9930   25.4100 C.3   268  CYS268      0.1677
    181  C         27.3680   24.5270   25.6110 C.2   268  CYS268      0.2270
    182  O         27.6640   23.7340   26.5010 O.2   268  CYS268     -0.2867
    183  CB        25.2220   24.0370   24.4520 C.3   268  CYS268      0.0956
    184  SG        23.4770   24.4560   24.1390 S.3   268  CYS268     -0.0801
    185  N         23.7940   16.1710   30.5350 N.3   278  TYR278     -0.1227
    186  CA        22.4070   16.5000   30.2130 C.3   278  TYR278      0.1736
    187  C         21.4820   15.5440   30.9370 C.2   278  TYR278      0.2595
    188  O         20.5570   15.9650   31.6350 O.2   278  TYR278     -0.2718
    189  CB        22.1330   16.3920   28.7030 C.3   278  TYR278      0.0548
    190  CG        23.0300   17.2210   27.8020 C.ar  278  TYR278     -0.0200
    191  CD1       24.2390   16.7110   27.3250 C.ar  278  TYR278     -0.0009
    192  CD2       22.6610   18.5060   27.4140 C.ar  278  TYR278     -0.0009
    193  CE1       25.0500   17.4560   26.4850 C.ar  278  TYR278      0.0417
    194  CE2       23.4670   19.2570   26.5760 C.ar  278  TYR278      0.0417
    195  CZ        24.6580   18.7240   26.1150 C.ar  278  TYR278      0.1957
    196  OH        25.4530   19.4610   25.2730 O.3   278  TYR278     -0.2866
    197  N         21.7410   14.2520   30.7530 N.am  279  ARG279     -0.1980
    198  CA        20.9380   13.2090   31.3730 C.3   279  ARG279      0.1597
    199  C         20.5870   13.6260   32.7910 C.2   279  ARG279      0.2287
    200  O         21.4370   14.1390   33.5170 O.2   279  ARG279     -0.2864
    201  CB        21.7090   11.8860   31.3820 C.3   279  ARG279      0.0334
    202  CG        22.0820   11.4430   29.9850 C.3   279  ARG279      0.0492
    203  CD        22.7620   10.0950   30.1190 C.3   279  ARG279      0.2205
    204  NE        21.8280    9.1060   30.7240 N.pl3 279  ARG279     -0.0865
    205  CZ        22.4440    8.0410   31.2750 C.cat 279  ARG279      0.5346
    206  NH1       23.7760    8.0200   31.2260 N.pl3 279  ARG279      0.1354
    207  NH2       21.7220    7.0860   31.8240 N.pl3 279  ARG279      0.1354
@<TRIPOS>BOND
     1   115   116    1
     2    42    40   ar
     3    42    41   ar
     4    40    38   ar
     5    41    39   ar
     6   114   113   ar
     7   114   112   ar
     8   116   119    1
     9   116   117    1
    10   113   111   ar
    11   105   106    1
    12   119   120    1
    13    38    37   ar
    14   112   110   ar
    15   111   110   ar
    16   122   120   ar
    17   122   124   ar
    18   106   107    1
    19   106   109    1
    20   110   109    1
    21    39    37   ar
    22   120   121   ar
    23   117   118    2
    24   117   126   am
    25    37    36    1
    26    34    35    2
    27    34    33    1
    28   124   125   ar
    29   102   101    2
    30   107   108    2
    31   126   127    1
    32    96    95    2
    33    33    36    1
    34    33    32    1
    35   121   123   ar
    36   101   100    1
    37   100    99    1
    38   100   103    1
    39   131   130    1
    40   125   123   ar
    41    95    99   am
    42    95    94    1
    43   127   130    1
    44   127   128    1
    45    93    94    1
    46    94    97    1
    47   103   104    1
    48   128   132   am
    49   128   129    2
    50   132   133    1
    51   160   159    1
    52    97    98    1
    53    88    87    2
    54   136   133    1
    55   136   137    1
    56   133   134    1
    57    11     9   ar
    58    11    10   ar
    59    64    63   ar
    60    64    62   ar
    61     9     7   ar
    62   155   156    1
    63   156   159    1
    64   156   157    1
    65    63    61   ar
    66    62    60   ar
    67    87    86    1
    68    10     8   ar
    69   146   145    2
    70     7     6   ar
    71   134   138   am
    72   134   135    2
    73   138   139    1
    74    86    89    1
    75    86    85    1
    76    89    90    1
    77    61    59   ar
    78    60    59   ar
    79    91    90    1
    80    91    92    1
    81   158   157    2
    82   157   161   am
    83    30    29    2
    84   145   144    1
    85    59    58    1
    86    29    28    1
    87   142   139    1
    88   143   144    1
    89   143   140   am
    90     8     6   ar
    91     6     5    1
    92   139   140    1
    93   161   162    1
    94   144   147    1
    95   149   150    1
    96   147   148    1
    97   152   151    2
    98   140   141    2
    99     1     2    1
   100    58    55    1
   101   151   150    1
   102    28    31    1
   103    28    27    1
   104   150   153    1
   105     5     2    1
   106    79    78    1
   107   163   162    1
   108   163   164    2
   109   162   165    1
   110     2     3    1
   111    75    74    2
   112    54    55    1
   113    54    45   am
   114    55    56    1
   115    83    82    2
   116    78    77    1
   117   153   154    1
   118    68    67    2
   119   165   166    1
   120   168   166   ar
   121   168   170   ar
   122    44    43    1
   123    44    45    1
   124    44    47    1
   125   166   167   ar
   126    74    73    1
   127    74    80   am
   128   170   169   ar
   129    82    81    1
   130    73    72    1
   131    73    76    1
   132    45    46    2
   133     3     4    2
   134    56    65   am
   135    56    57    2
   136   167   169   ar
   137    65    66    1
   138    67    72   am
   139    67    66    1
   140    48    47    1
   141    48    49    1
   142    76    77    1
   143    80    81    1
   144    81    84    1
   145    50    49    1
   146    50    51    2
   147    53    51    1
   148    66    69    1
   149    51    52    1
   150   174   173    2
   151   171   172    1
   152    70    69    1
   153   175   172    1
   154   175   176    1
   155    69    71    1
   156    18    17    1
   157    18    19    1
   158    17    16    1
   159   178   176    1
   160   173   172    1
   161   184   183    1
   162   176   177    1
   163   183   180    1
   164   179   180    1
   165    12    13    1
   166    16    13    1
   167   196   195    1
   168   180   181    1
   169    25    24    1
   170   181   182    2
   171    13    14    1
   172   195   193   ar
   173   195   194   ar
   174    24    26    1
   175    24    21    1
   176   193   191   ar
   177   194   192   ar
   178    22    23    2
   179    22    21    1
   180    14    15    2
   181   191   190   ar
   182   192   190   ar
   183    21    20    1
   184   190   189    1
   185   189   186    1
   186   202   203    1
   187   202   201    1
   188   203   204    1
   189   186   185    1
   190   186   187    1
   191   204   205    2
   192   197   187   am
   193   197   198    1
   194   187   188    2
   195   206   205    1
   196   205   207    1
   197   198   201    1
   198   198   199    1
   199   199   200    2
