@<TRIPOS>MOLECULE
tmp/3ov0A05.pdb
 213 203 0 0 0
SMALL
GASTEIGER

@<TRIPOS>ATOM
      1  N         26.7580  -31.6190   -3.1460 N.3    10  LEU10      -0.1231
      2  CA        26.6820  -30.3490   -3.8410 C.3    10  LEU10       0.1693
      3  C         26.3330  -29.1980   -2.8990 C.2    10  LEU10       0.2592
      4  O         25.2240  -29.1260   -2.3610 O.2    10  LEU10      -0.2718
      5  CB        25.6650  -30.4440   -4.9900 C.3    10  LEU10       0.0284
      6  CG        26.0720  -31.3000   -6.1890 C.3    10  LEU10       0.0019
      7  CD1       24.9000  -31.3900   -7.1380 C.3    10  LEU10       0.0001
      8  CD2       27.2570  -30.7230   -6.9200 C.3    10  LEU10       0.0001
      9  N         27.2920  -28.2900   -2.7220 N.am   11  LYS11      -0.1966
     10  CA        27.1470  -27.1280   -1.8450 C.3    11  LYS11       0.1728
     11  C         25.8780  -26.2840   -1.9900 C.2    11  LYS11       0.2616
     12  O         25.6860  -25.3630   -1.2120 O.2    11  LYS11      -0.2715
     13  CB        28.3740  -26.2220   -1.9900 C.3    11  LYS11       0.0311
     14  CG        28.5630  -25.6240   -3.3400 C.3    11  LYS11       0.0038
     15  CD        29.6420  -24.5390   -3.2750 C.3    11  LYS11       0.0206
     16  CE        29.9310  -24.1300   -4.6940 C.3    11  LYS11       0.1093
     17  NZ        30.8270  -22.9490   -4.6470 N.3    11  LYS11      -0.1314
     18  N         25.0050  -26.5760   -2.9490 N.am   12  ASN12      -0.1958
     19  CA        23.8180  -25.7470   -3.0910 C.3    12  ASN12       0.1819
     20  C         22.5120  -26.4090   -3.4700 C.2    12  ASN12       0.2621
     21  O         21.5750  -25.7390   -3.9120 O.2    12  ASN12      -0.2715
     22  CB        24.1040  -24.6020   -4.0560 C.3    12  ASN12       0.1195
     23  CG        24.9740  -23.5380   -3.4380 C.2    12  ASN12       0.2630
     24  OD1       25.8500  -22.9750   -4.0940 O.2    12  ASN12      -0.2716
     25  ND2       24.7350  -23.2480   -2.1660 N.am   12  ASN12      -0.0877
     26  N         22.4380  -27.7160   -3.2980 N.am   13  ALA13      -0.1963
     27  CA        21.2020  -28.4130   -3.5890 C.3    13  ALA13       0.1728
     28  C         21.3720  -29.8940   -3.3570 C.2    13  ALA13       0.2616
     29  O         22.4960  -30.3820   -3.2000 O.2    13  ALA13      -0.2715
     30  CB        20.7620  -28.1460   -5.0020 C.3    13  ALA13       0.0334
     31  N         20.2510  -30.6060   -3.3200 N.am   14  ALA14      -0.1977
     32  CA        20.2720  -32.0430   -3.0850 C.3    14  ALA14       0.1597
     33  C         21.4320  -32.7120   -3.8160 C.2    14  ALA14       0.2287
     34  O         21.7900  -32.3190   -4.9260 O.2    14  ALA14      -0.2864
     35  CB        18.9510  -32.6530   -3.5200 C.3    14  ALA14       0.0319
     36  N         36.5050  -32.4750   -8.7770 N.3    46  ARG46      -0.1245
     37  CA        35.1520  -31.9470   -8.8580 C.3    46  ARG46       0.1563
     38  C         34.9700  -31.3430  -10.2480 C.2    46  ARG46       0.2260
     39  O         35.6840  -30.4100  -10.6460 O.2    46  ARG46      -0.2867
     40  CB        34.9230  -30.8630   -7.7990 C.3    46  ARG46       0.0307
     41  CG        33.6640  -30.0110   -8.0540 C.3    46  ARG46       0.0489
     42  CD        33.6780  -28.6880   -7.2660 C.3    46  ARG46       0.2205
     43  NE        32.6790  -27.7310   -7.7530 N.pl3  46  ARG46      -0.0865
     44  CZ        32.5790  -26.4760   -7.3210 C.cat  46  ARG46       0.5346
     45  NH1       33.4190  -26.0230   -6.3900 N.pl3  46  ARG46       0.1354
     46  NH2       31.6440  -25.6730   -7.8200 N.pl3  46  ARG46       0.1354
     47  N         17.5530  -33.3790  -16.8670 N.3    76  CYS76      -0.1221
     48  CA        18.5720  -33.1640  -15.8430 C.3    76  CYS76       0.1808
     49  C         18.0870  -33.8860  -14.5870 C.2    76  CYS76       0.2601
     50  O         18.8390  -34.6140  -13.9400 O.2    76  CYS76      -0.2717
     51  CB        18.7160  -31.6800  -15.5300 C.3    76  CYS76       0.0970
     52  SG        19.5940  -30.7410  -16.7990 S.3    76  CYS76      -0.0800
     53  N         16.8090  -33.6880  -14.2730 N.am   77  VAL77      -0.1979
     54  CA        16.1760  -34.2910  -13.1070 C.3    77  VAL77       0.1595
     55  C         16.3440  -35.8180  -13.0630 C.2    77  VAL77       0.2287
     56  O         15.9200  -36.4820  -12.1060 O.2    77  VAL77      -0.2864
     57  CB        14.6590  -33.9650  -13.0720 C.3    77  VAL77       0.0276
     58  CG1       14.3540  -32.7180  -13.9270 C.3    77  VAL77       0.0022
     59  CG2       13.8450  -35.1560  -13.5420 C.3    77  VAL77       0.0022
     60  N         19.6620  -35.2010  -11.0540 N.3    80  HIS80      -0.1241
     61  CA        19.3400  -34.2280  -10.0470 C.3    80  HIS80       0.1621
     62  C         17.8990  -34.5060   -9.6320 C.2    80  HIS80       0.2264
     63  O         17.0080  -33.6880   -9.8190 O.2    80  HIS80      -0.2867
     64  CB        19.5430  -32.8330  -10.6190 C.3    80  HIS80       0.0745
     65  CG        20.9850  -32.4940  -10.8110 C.ar   80  HIS80       0.0817
     66  ND1       21.8230  -32.0860   -9.8000 N.ar   80  HIS80      -0.2268
     67  CD2       21.7740  -32.6140  -11.9080 C.ar   80  HIS80       0.1154
     68  CE1       23.0690  -31.9810  -10.3030 C.ar   80  HIS80       0.1986
     69  NE2       23.0950  -32.2920  -11.5830 N.ar   80  HIS80      -0.2212
     70  N         18.6070  -21.8550   -1.8370 N.3    87  VAL87      -0.1245
     71  CA        20.0040  -21.4800   -1.7570 C.3    87  VAL87       0.1561
     72  C         20.3520  -20.5310   -0.6070 C.2    87  VAL87       0.2260
     73  O         19.7900  -19.4420   -0.4690 O.2    87  VAL87      -0.2867
     74  CB        20.4790  -20.8790   -3.0830 C.3    87  VAL87       0.0252
     75  CG1       21.9920  -20.8230   -3.0920 C.3    87  VAL87       0.0019
     76  CG2       19.9580  -21.6900   -4.2430 C.3    87  VAL87       0.0019
     77  N         22.5460  -17.9390    1.3230 N.3    89  TYR89      -0.1241
     78  CA        23.5430  -16.8990    1.1710 C.3    89  TYR89       0.1605
     79  C         23.9380  -16.2820    2.5110 C.2    89  TYR89       0.2264
     80  O         23.1830  -15.5350    3.1410 O.2    89  TYR89      -0.2867
     81  CB        23.0610  -15.8380    0.2020 C.3    89  TYR89       0.0534
     82  CG        23.1300  -16.3110   -1.2320 C.ar   89  TYR89      -0.0201
     83  CD1       22.1480  -17.1510   -1.7650 C.ar   89  TYR89      -0.0009
     84  CD2       24.2020  -15.9520   -2.0540 C.ar   89  TYR89      -0.0009
     85  CE1       22.2370  -17.6110   -3.0940 C.ar   89  TYR89       0.0417
     86  CE2       24.2910  -16.4070   -3.3630 C.ar   89  TYR89       0.0417
     87  CZ        23.3110  -17.2320   -3.8750 C.ar   89  TYR89       0.1957
     88  OH        23.4100  -17.6440   -5.1830 O.3    89  TYR89      -0.2866
     89  N         17.7120  -17.8410   -2.5050 N.3    99  PHE99      -0.1241
     90  CA        17.1760  -18.0380   -3.8390 C.3    99  PHE99       0.1605
     91  C         16.7490  -19.4960   -3.9550 C.2    99  PHE99       0.2264
     92  O         17.4850  -20.3950   -3.5510 O.2    99  PHE99      -0.2867
     93  CB        18.2140  -17.7550   -4.9150 C.3    99  PHE99       0.0534
     94  CG        17.8520  -18.3550   -6.2260 C.ar   99  PHE99      -0.0203
     95  CD1       16.9090  -17.7490   -7.0520 C.ar   99  PHE99      -0.0042
     96  CD2       18.3620  -19.6000   -6.5800 C.ar   99  PHE99      -0.0042
     97  CE1       16.4710  -18.3810   -8.2050 C.ar   99  PHE99      -0.0003
     98  CE2       17.9350  -20.2450   -7.7240 C.ar   99  PHE99      -0.0003
     99  CZ        16.9870  -19.6380   -8.5430 C.ar   99  PHE99      -0.0000
    100  N         14.7270  -22.5120   -6.5750 N.3   101  HIS101     -0.1241
    101  CA        14.1650  -22.9130   -7.8540 C.3   101  HIS101      0.1621
    102  C         12.6350  -22.8670   -7.7930 C.2   101  HIS101      0.2264
    103  O         12.0350  -21.9500   -8.3390 O.2   101  HIS101     -0.2867
    104  CB        14.6760  -24.3230   -8.2280 C.3   101  HIS101      0.0745
    105  CG        16.1730  -24.4040   -8.3440 C.ar  101  HIS101      0.0817
    106  ND1       17.0410  -24.2780   -7.2830 N.ar  101  HIS101     -0.2268
    107  CD2       16.9630  -24.4700   -9.4410 C.ar  101  HIS101      0.1154
    108  CE1       18.3030  -24.2550   -7.7730 C.ar  101  HIS101      0.1986
    109  NE2       18.3140  -24.3680   -9.0870 N.ar  101  HIS101     -0.2212
    110  N         10.9760  -20.2160   -9.2840 N.3   104  HIS104     -0.1226
    111  CA        11.6130  -19.6650  -10.4840 C.3   104  HIS104      0.1752
    112  C         11.4360  -20.5730  -11.7290 C.2   104  HIS104      0.2595
    113  O         11.3130  -20.0720  -12.8540 O.2   104  HIS104     -0.2718
    114  CB        13.1070  -19.4060  -10.2110 C.3   104  HIS104      0.0759
    115  CG        13.4190  -17.9850   -9.8320 C.ar  104  HIS104      0.0818
    116  ND1       12.8700  -17.3370   -8.7510 N.ar  104  HIS104     -0.2268
    117  CD2       14.2430  -17.0830  -10.4200 C.ar  104  HIS104      0.1154
    118  CE1       13.3720  -16.0980   -8.7260 C.ar  104  HIS104      0.1986
    119  NE2       14.2090  -15.8930   -9.7190 N.ar  104  HIS104     -0.2212
    120  N         11.4280  -21.8920  -11.5300 N.am  105  VAL105     -0.1980
    121  CA        11.2330  -22.8240  -12.6380 C.3   105  VAL105      0.1595
    122  C          9.9630  -22.3860  -13.3850 C.2   105  VAL105      0.2287
    123  O         10.0210  -21.9720  -14.5440 O.2   105  VAL105     -0.2864
    124  CB        11.1020  -24.3120  -12.1170 C.3   105  VAL105      0.0276
    125  CG1       10.6010  -25.2310  -13.2170 C.3   105  VAL105      0.0022
    126  CG2       12.4490  -24.8070  -11.6190 C.3   105  VAL105      0.0022
    127  N          9.7790  -19.7330  -16.6910 N.3   108  LEU108     -0.1245
    128  CA        10.3960  -19.8390  -18.0050 C.3   108  LEU108      0.1561
    129  C          9.7600  -21.0520  -18.7000 C.2   108  LEU108      0.2260
    130  O          9.3350  -20.9710  -19.8600 O.2   108  LEU108     -0.2867
    131  CB        11.9010  -20.0130  -17.8710 C.3   108  LEU108      0.0270
    132  CG        12.6420  -18.8980  -17.1450 C.3   108  LEU108      0.0019
    133  CD1       14.0890  -19.2640  -16.8910 C.3   108  LEU108      0.0001
    134  CD2       12.5750  -17.5860  -17.9050 C.3   108  LEU108      0.0001
    135  N         10.8570  -24.9370  -17.7250 N.3   110  GLY110     -0.1210
    136  CA        11.5170  -25.9550  -16.9240 C.3   110  GLY110      0.1956
    137  C         12.9310  -25.7440  -17.4080 C.2   110  GLY110      0.2612
    138  O         13.8450  -26.5340  -17.1870 O.2   110  GLY110     -0.2717
    139  N         13.0660  -24.6070  -18.0800 N.am  111  LYS111     -0.1965
    140  CA        14.2810  -24.1210  -18.7190 C.3   111  LYS111      0.1728
    141  C         15.6750  -24.1620  -18.1220 C.2   111  LYS111      0.2616
    142  O         16.5880  -23.6260  -18.7480 O.2   111  LYS111     -0.2715
    143  CB        14.0640  -22.6780  -19.1850 C.3   111  LYS111      0.0311
    144  CG        13.1220  -22.5120  -20.3510 C.3   111  LYS111      0.0038
    145  CD        13.0190  -21.0450  -20.7480 C.3   111  LYS111      0.0206
    146  CE        11.7670  -20.8150  -21.5690 C.3   111  LYS111      0.1093
    147  NZ        11.4840  -19.3760  -21.8260 N.3   111  LYS111     -0.1314
    148  N         15.8610  -24.7300  -16.9400 N.am  112  CYS112     -0.1968
    149  CA        17.1910  -24.7910  -16.3350 C.3   112  CYS112      0.1712
    150  C         18.3010  -24.0230  -17.0520 C.2   112  CYS112      0.2296
    151  O         18.5870  -22.8570  -16.7550 O.2   112  CYS112     -0.2864
    152  CB        17.5950  -26.2360  -16.2290 C.3   112  CYS112      0.0983
    153  SG        16.1010  -27.1470  -15.8190 S.3   112  CYS112     -0.0798
    154  N         19.7470  -20.5200  -17.3360 N.3   115  CYS115     -0.1221
    155  CA        20.5600  -20.0120  -16.2430 C.3   115  CYS115      0.1808
    156  C         21.8630  -20.7630  -16.0840 C.2   115  CYS115      0.2601
    157  O         22.9250  -20.1540  -16.0220 O.2   115  CYS115     -0.2717
    158  CB        19.7790  -20.0880  -14.9260 C.3   115  CYS115      0.0970
    159  SG        18.8950  -18.5660  -14.4640 S.3   115  CYS115     -0.0800
    160  N         21.7880  -22.0840  -16.0180 N.am  116  HIS116     -0.1975
    161  CA        22.9990  -22.8610  -15.8290 C.3   116  HIS116      0.1656
    162  C         23.9410  -22.9530  -17.0060 C.2   116  HIS116      0.2291
    163  O         24.9230  -23.7040  -16.9700 O.2   116  HIS116     -0.2864
    164  CB        22.6490  -24.2450  -15.3050 C.3   116  HIS116      0.0771
    165  CG        22.2430  -24.2220  -13.8680 C.ar  116  HIS116      0.0820
    166  ND1       22.9730  -23.5860  -12.8900 N.ar  116  HIS116     -0.2267
    167  CD2       21.1160  -24.6650  -13.2590 C.ar  116  HIS116      0.1154
    168  CE1       22.2760  -23.6470  -11.7510 C.ar  116  HIS116      0.1986
    169  NE2       21.1360  -24.2920  -11.9100 N.ar  116  HIS116     -0.2212
    170  N         25.3110  -15.5870  -15.3140 N.3   121  ILE121     -0.1231
    171  CA        24.3740  -15.8380  -14.2240 C.3   121  ILE121      0.1692
    172  C         25.0610  -16.7540  -13.2200 C.2   121  ILE121      0.2592
    173  O         25.2960  -16.3690  -12.0790 O.2   121  ILE121     -0.2718
    174  CB        23.0860  -16.5460  -14.7160 C.3   121  ILE121      0.0266
    175  CG1       22.1230  -15.5290  -15.3150 C.3   121  ILE121      0.0019
    176  CG2       22.4150  -17.2970  -13.5710 C.3   121  ILE121      0.0020
    177  CD1       20.7770  -16.1160  -15.6710 C.3   121  ILE121      0.0001
    178  N         25.3990  -17.9630  -13.6590 N.am  122  THR122     -0.1953
    179  CA        26.0380  -18.9360  -12.7860 C.3   122  THR122      0.1897
    180  C         27.5550  -18.9210  -12.8670 C.2   122  THR122      0.2313
    181  O         28.2070  -19.9220  -12.5670 O.2   122  THR122     -0.2863
    182  CB        25.5930  -20.3440  -13.1310 C.3   122  THR122      0.1794
    183  OG1       26.1320  -20.7040  -14.4070 O.3   122  THR122     -0.2208
    184  CG2       24.0820  -20.4300  -13.1770 C.3   122  THR122      0.0378
    185  N         31.7950  -16.1150   -8.4530 N.3   125  ARG125     -0.1245
    186  CA        31.6260  -16.6150   -7.0940 C.3   125  ARG125      0.1563
    187  C         31.7120  -15.3890   -6.1900 C.2   125  ARG125      0.2260
    188  O         32.5360  -14.4960   -6.4160 O.2   125  ARG125     -0.2867
    189  CB        32.7360  -17.6130   -6.7480 C.3   125  ARG125      0.0307
    190  CG        32.7130  -18.9330   -7.5330 C.3   125  ARG125      0.0489
    191  CD        31.5020  -19.7240   -7.1280 C.3   125  ARG125      0.2205
    192  NE        31.4490  -21.0130   -7.8300 N.pl3 125  ARG125     -0.0865
    193  CZ        30.6010  -21.2200   -8.8490 C.cat 125  ARG125      0.5346
    194  NH1       29.6870  -20.3040   -9.2670 N.pl3 125  ARG125      0.1354
    195  NH2       30.6190  -22.4240   -9.4150 N.pl3 125  ARG125      0.1354
    196  N         24.5540  -12.0080  -12.9380 N.3   137  SER137     -0.1202
    197  CA        23.7790  -12.8250  -11.9900 C.3   137  SER137      0.2020
    198  C         22.6150  -12.0900  -11.3720 C.2   137  SER137      0.2619
    199  O         22.6550  -10.8780  -11.2560 O.2   137  SER137     -0.2717
    200  CB        24.6720  -13.3390  -10.8620 C.3   137  SER137      0.2103
    201  OG        23.9220  -14.1260   -9.9480 O.3   137  SER137     -0.2182
    202  N         21.5890  -12.8290  -10.9570 N.am  138  CYS138     -0.1969
    203  CA        20.4120  -12.2210  -10.3310 C.3   138  CYS138      0.1712
    204  C         19.9180  -10.9960  -11.1020 C.2   138  CYS138      0.2296
    205  O         18.8070  -10.9990  -11.6270 O.2   138  CYS138     -0.2864
    206  CB        20.7160  -11.8060   -8.8790 C.3   138  CYS138      0.0983
    207  SG        20.5750  -13.0890   -7.5930 S.3   138  CYS138     -0.0798
    208  N         18.5530  -10.8590  -14.8640 N.3   141  CYS141     -0.1235
    209  CA        17.1430  -10.7020  -15.1410 C.3   141  CYS141      0.1677
    210  C         16.6040   -9.4580  -14.4250 C.2   141  CYS141      0.2270
    211  O         16.1970   -8.4840  -15.0710 O.2   141  CYS141     -0.2867
    212  CB        16.3860  -11.9270  -14.6550 C.3   141  CYS141      0.0956
    213  SG        17.0480  -13.4810  -15.2910 S.3   141  CYS141     -0.0801
@<TRIPOS>BOND
     1   147   146    1
     2   146   145    1
     3   145   144    1
     4   144   143    1
     5   130   129    2
     6   143   140    1
     7   142   141    2
     8   140   141    1
     9   140   139    1
    10   129   128    1
    11   141   148   am
    12   139   137   am
    13   128   131    1
    14   128   127    1
    15   134   132    1
    16   131   132    1
    17   135   136    1
    18   137   138    2
    19   137   136    1
    20   154   155    1
    21   132   133    1
    22   150   151    2
    23   150   149    1
    24   162   163    2
    25   162   161    1
    26   148   149    1
    27    47    48    1
    28    52    51    1
    29   149   152    1
    30   155   156    1
    31   155   158    1
    32   152   153    1
    33   156   157    2
    34   156   160   am
    35   160   161    1
    36    48    51    1
    37    48    49    1
    38   161   164    1
    39   177   175    1
    40   175   174    1
    41   170   171    1
    42   164   165    1
    43   213   212    1
    44   209   208    1
    45   209   212    1
    46   209   210    1
    47   211   210    2
    48   158   159    1
    49   174   171    1
    50   174   176    1
    51    49    53   am
    52    49    50    2
    53   123   122    2
    54   183   182    1
    55    53    54    1
    56   171   172    1
    57    58    57    1
    58   165   167   ar
    59   165   166   ar
    60   178   172   am
    61   178   179    1
    62    59    57    1
    63   122   121    1
    64   167   169   ar
    65   172   173    2
    66   125   124    1
    67   184   182    1
    68   182   179    1
    69    54    57    1
    70    54    55    1
    71    55    56    2
    72   196   197    1
    73   166   168   ar
    74   180   179    1
    75   180   181    2
    76   113   112    2
    77   121   124    1
    78   121   120    1
    79   124   126    1
    80   197   198    1
    81   197   200    1
    82   169   168   ar
    83    67    69   ar
    84    67    65   ar
    85   112   120   am
    86   112   111    1
    87   205   204    2
    88    69    68   ar
    89   198   199    2
    90   198   202   am
    91   204   203    1
    92    60    61    1
    93   202   203    1
    94   200   201    1
    95    65    64    1
    96    65    66   ar
    97    39    38    2
    98    64    61    1
    99   111   114    1
   100   111   110    1
   101   117   115   ar
   102   117   119   ar
   103   203   206    1
   104    68    66   ar
   105    38    37    1
   106   114   115    1
   107    61    62    1
   108   115   116   ar
   109    63    62    2
   110   119   118   ar
   111   107   109   ar
   112   107   105   ar
   113   195   193    1
   114   194   193    1
   115   109   108   ar
   116   206   207    1
   117    37    36    1
   118    37    40    1
   119   193   192    2
   120   116   118   ar
   121    99    97   ar
   122    99    98   ar
   123   185   186    1
   124   105   104    1
   125   105   106   ar
   126   103   102    2
   127   104   101    1
   128    97    95   ar
   129    41    40    1
   130    41    42    1
   131   101   102    1
   132   101   100    1
   133   192   191    1
   134    46    44    1
   135   108   106   ar
   136    43    44    2
   137    43    42    1
   138    98    96   ar
   139   190   191    1
   140   190   189    1
   141    44    45    1
   142     7     6    1
   143   186   189    1
   144   186   187    1
   145    95    94   ar
   146     8     6    1
   147    96    94   ar
   148   188   187    2
   149    94    93    1
   150     6     5    1
   151    88    87    1
   152    30    27    1
   153     5     2    1
   154    34    33    2
   155    93    90    1
   156    16    17    1
   157    16    15    1
   158    76    74    1
   159    24    23    2
   160    22    23    1
   161    22    19    1
   162    91    90    1
   163    91    92    2
   164    21    20    2
   165    87    86   ar
   166    87    85   ar
   167     2     1    1
   168     2     3    1
   169    90    89    1
   170    33    32    1
   171    27    28    1
   172    27    26    1
   173    35    32    1
   174    20    26   am
   175    20    19    1
   176    23    25   am
   177    86    84   ar
   178    28    31   am
   179    28    29    2
   180    14    15    1
   181    14    13    1
   182    31    32    1
   183    85    83   ar
   184    75    74    1
   185    19    18    1
   186    74    71    1
   187    18    11   am
   188     3     9   am
   189     3     4    2
   190     9    10    1
   191    84    82   ar
   192    13    10    1
   193    11    10    1
   194    11    12    2
   195    70    71    1
   196    83    82   ar
   197    71    72    1
   198    82    81    1
   199    72    73    2
   200    81    78    1
   201    78    77    1
   202    78    79    1
   203    79    80    2
