@<TRIPOS>MOLECULE
tmp/3ov0A03.pdb
 190 187 0 0 0
SMALL
GASTEIGER

@<TRIPOS>ATOM
      1  N         27.1380  -37.6100   -4.5030 N.3     8  PHE8       -0.1241
      2  CA        27.9180  -36.4390   -4.8760 C.3     8  PHE8        0.1605
      3  C         27.3760  -35.2480   -4.1050 C.2     8  PHE8        0.2264
      4  O         26.2270  -34.8260   -4.2940 O.2     8  PHE8       -0.2867
      5  CB        27.8560  -36.1930   -6.3920 C.3     8  PHE8        0.0534
      6  CG        28.7560  -37.1010   -7.1810 C.ar    8  PHE8       -0.0203
      7  CD1       28.2830  -38.3040   -7.6980 C.ar    8  PHE8       -0.0042
      8  CD2       30.1050  -36.7930   -7.3270 C.ar    8  PHE8       -0.0042
      9  CE1       29.1430  -39.1880   -8.3420 C.ar    8  PHE8       -0.0003
     10  CE2       30.9690  -37.6630   -7.9640 C.ar    8  PHE8       -0.0003
     11  CZ        30.4890  -38.8660   -8.4720 C.ar    8  PHE8       -0.0000
     12  N         23.6480  -35.7980   -5.7670 N.3    16  VAL16      -0.1231
     13  CA        23.3620  -36.6510   -6.9050 C.3    16  VAL16       0.1692
     14  C         23.9020  -38.0150   -6.5370 C.2    16  VAL16       0.2592
     15  O         25.0850  -38.1690   -6.2530 O.2    16  VAL16      -0.2718
     16  CB        24.0440  -36.1340   -8.1790 C.3    16  VAL16       0.0266
     17  CG1       24.1510  -37.2460   -9.2040 C.3    16  VAL16       0.0020
     18  CG2       23.2320  -34.9920   -8.7650 C.3    16  VAL16       0.0020
     19  N         23.0230  -39.0050   -6.5320 N.am   17  ILE17      -0.1966
     20  CA        23.4260  -40.3440   -6.1540 C.3    17  ILE17       0.1727
     21  C         23.8260  -41.2020   -7.3370 C.2    17  ILE17       0.2616
     22  O         22.9780  -41.5790   -8.1510 O.2    17  ILE17      -0.2715
     23  CB        22.3000  -41.0740   -5.4050 C.3    17  ILE17       0.0290
     24  CG1       21.8110  -40.2020   -4.2540 C.3    17  ILE17       0.0022
     25  CG2       22.8190  -42.4130   -4.8780 C.3    17  ILE17       0.0023
     26  CD1       20.6390  -40.7980   -3.5010 C.3    17  ILE17       0.0001
     27  N         25.1140  -41.5190   -7.4340 N.am   18  PHE18      -0.1960
     28  CA        25.5700  -42.3760   -8.5130 C.3    18  PHE18       0.1771
     29  C         25.0500  -43.7390   -8.1200 C.2    18  PHE18       0.2620
     30  O         24.8030  -43.9720   -6.9470 O.2    18  PHE18      -0.2715
     31  CB        27.0920  -42.4370   -8.5900 C.3    18  PHE18       0.0574
     32  CG        27.5830  -43.4400   -9.5880 C.ar   18  PHE18      -0.0200
     33  CD1       27.4860  -43.1830  -10.9480 C.ar   18  PHE18      -0.0042
     34  CD2       28.0540  -44.6790   -9.1750 C.ar   18  PHE18      -0.0042
     35  CE1       27.8390  -44.1470  -11.8800 C.ar   18  PHE18      -0.0003
     36  CE2       28.4080  -45.6500  -10.1010 C.ar   18  PHE18      -0.0003
     37  CZ        28.3020  -45.3850  -11.4550 C.ar   18  PHE18      -0.0000
     38  N         24.8930  -44.6420   -9.0790 N.am   19  SER19      -0.1950
     39  CA        24.3930  -45.9640   -8.7530 C.3    19  SER19       0.1924
     40  C         25.1400  -47.1110   -9.3960 C.2    19  SER19       0.2314
     41  O         24.8810  -47.4420  -10.5450 O.2    19  SER19      -0.2863
     42  CB        22.9120  -46.0800   -9.1230 C.3    19  SER19       0.2116
     43  OG        22.4040  -47.3560   -8.7410 O.3    19  SER19      -0.2180
     44  N         23.3780  -50.1600  -11.0760 N.3    22  ILE22      -0.1231
     45  CA        22.7840  -50.0080  -12.4020 C.3    22  ILE22       0.1692
     46  C         23.9000  -50.2540  -13.4130 C.2    22  ILE22       0.2592
     47  O         23.9380  -51.2880  -14.0850 O.2    22  ILE22      -0.2718
     48  CB        22.2420  -48.5900  -12.6480 C.3    22  ILE22       0.0266
     49  CG1       21.1340  -48.2630  -11.6580 C.3    22  ILE22       0.0019
     50  CG2       21.6870  -48.4880  -14.0520 C.3    22  ILE22       0.0020
     51  CD1       20.5860  -46.8420  -11.8170 C.3    22  ILE22       0.0001
     52  N         24.8170  -49.2960  -13.4890 N.am   23  HIS23      -0.1976
     53  CA        25.9460  -49.3570  -14.4010 C.3    23  HIS23       0.1656
     54  C         26.8280  -50.5570  -14.1570 C.2    23  HIS23       0.2291
     55  O         27.9990  -50.5530  -14.5060 O.2    23  HIS23      -0.2864
     56  CB        26.7640  -48.0880  -14.2720 C.3    23  HIS23       0.0771
     57  CG        25.9300  -46.8530  -14.2970 C.ar   23  HIS23       0.0820
     58  ND1       24.7110  -46.7480  -13.6680 N.ar   23  HIS23      -0.2267
     59  CD2       26.1640  -45.6400  -14.8570 C.ar   23  HIS23       0.1154
     60  CE1       24.2610  -45.5070  -13.8580 C.ar   23  HIS23       0.1986
     61  NE2       25.1070  -44.7950  -14.5760 N.ar   23  HIS23      -0.2212
     62  N         24.8260  -53.5180  -16.5180 N.3    26  LYS26      -0.1231
     63  CA        24.9960  -53.0930  -17.9030 C.3    26  LYS26       0.1693
     64  C         26.3390  -53.5590  -18.4570 C.2    26  LYS26       0.2592
     65  O         26.4070  -54.3190  -19.4250 O.2    26  LYS26      -0.2718
     66  CB        24.9080  -51.5760  -17.9920 C.3    26  LYS26       0.0285
     67  CG        23.4540  -51.1500  -17.7910 C.3    26  LYS26       0.0035
     68  CD        23.4010  -49.7240  -17.2760 C.3    26  LYS26       0.0206
     69  CE        23.2630  -48.7890  -18.4630 C.3    26  LYS26       0.1093
     70  NZ        22.9250  -47.4280  -17.9470 N.3    26  LYS26      -0.1314
     71  N         27.4110  -53.1000  -17.8320 N.am   27  TYR27      -0.1976
     72  CA        28.7500  -53.4530  -18.2680 C.3    27  TYR27       0.1639
     73  C         29.2690  -54.8180  -17.8450 C.2    27  TYR27       0.2290
     74  O         30.2940  -55.2820  -18.3740 O.2    27  TYR27      -0.2864
     75  CB        29.7040  -52.3880  -17.7990 C.3    27  TYR27       0.0560
     76  CG        29.4760  -51.0790  -18.4940 C.ar   27  TYR27      -0.0198
     77  CD1       28.1860  -50.5630  -18.6420 C.ar   27  TYR27      -0.0009
     78  CD2       30.5550  -50.3170  -18.9540 C.ar   27  TYR27      -0.0009
     79  CE1       27.9880  -49.3430  -19.2130 C.ar   27  TYR27       0.0417
     80  CE2       30.3540  -49.0890  -19.5260 C.ar   27  TYR27       0.0417
     81  CZ        29.0750  -48.6020  -19.6480 C.ar   27  TYR27       0.1957
     82  OH        28.8920  -47.3360  -20.1680 O.3    27  TYR27      -0.2866
     83  N         36.9890  -49.6100  -16.5410 N.3    33  ILE33      -0.1231
     84  CA        36.3950  -48.5230  -17.3060 C.3    33  ILE33       0.1692
     85  C         36.3580  -47.1800  -16.5700 C.2    33  ILE33       0.2592
     86  O         37.2630  -46.3540  -16.7370 O.2    33  ILE33      -0.2718
     87  CB        34.9650  -48.8810  -17.7670 C.3    33  ILE33       0.0266
     88  CG1       34.9720  -50.2140  -18.5140 C.3    33  ILE33       0.0019
     89  CG2       34.4440  -47.8030  -18.6990 C.3    33  ILE33       0.0020
     90  CD1       33.6570  -50.5330  -19.2180 C.3    33  ILE33       0.0001
     91  N         35.3210  -46.9570  -15.7650 N.am   34  CYS34      -0.1970
     92  CA        35.1940  -45.6880  -15.0580 C.3    34  CYS34       0.1712
     93  C         36.2680  -45.3960  -14.0180 C.2    34  CYS34       0.2296
     94  O         36.3870  -44.2510  -13.5760 O.2    34  CYS34      -0.2864
     95  CB        33.8390  -45.5850  -14.3580 C.3    34  CYS34       0.0983
     96  SG        32.4680  -46.4730  -15.1440 S.3    34  CYS34      -0.0798
     97  N         38.2700  -42.2310  -16.1480 N.3    38  LEU38      -0.1231
     98  CA        37.0790  -41.4360  -15.9040 C.3    38  LEU38       0.1693
     99  C         37.0410  -40.8920  -14.4790 C.2    38  LEU38       0.2592
    100  O         36.9030  -39.6810  -14.2690 O.2    38  LEU38      -0.2718
    101  CB        35.8480  -42.2880  -16.1940 C.3    38  LEU38       0.0284
    102  CG        35.8230  -42.7520  -17.6490 C.3    38  LEU38       0.0019
    103  CD1       34.6910  -43.7370  -17.8950 C.3    38  LEU38       0.0001
    104  CD2       35.6610  -41.5360  -18.5290 C.3    38  LEU38       0.0001
    105  N         37.1580  -41.7920  -13.5050 N.am   39  PHE39      -0.1976
    106  CA        37.1640  -41.4140  -12.0950 C.3    39  PHE39       0.1639
    107  C         38.4170  -41.9620  -11.4160 C.2    39  PHE39       0.2290
    108  O         38.5660  -43.1760  -11.2520 O.2    39  PHE39      -0.2864
    109  CB        35.9110  -41.9440  -11.4210 C.3    39  PHE39       0.0560
    110  CG        34.6510  -41.4170  -12.0230 C.ar   39  PHE39      -0.0200
    111  CD1       33.9390  -42.1670  -12.9480 C.ar   39  PHE39      -0.0042
    112  CD2       34.1870  -40.1500  -11.6820 C.ar   39  PHE39      -0.0042
    113  CE1       32.7750  -41.6590  -13.5270 C.ar   39  PHE39      -0.0003
    114  CE2       33.0250  -39.6330  -12.2560 C.ar   39  PHE39      -0.0003
    115  CZ        32.3180  -40.3870  -13.1800 C.ar   39  PHE39      -0.0000
    116  N         34.2390  -36.9960  -16.8090 N.3    57  SER57      -0.1202
    117  CA        33.2120  -37.5010  -15.8940 C.3    57  SER57       0.2020
    118  C         32.1120  -38.3120  -16.5620 C.2    57  SER57       0.2619
    119  O         32.3640  -39.2000  -17.3740 O.2    57  SER57      -0.2717
    120  CB        32.5610  -36.3410  -15.1230 C.3    57  SER57       0.2103
    121  OG        31.4710  -36.7760  -14.3130 O.3    57  SER57      -0.2182
    122  N         30.8840  -37.9950  -16.1790 N.am   58  CYS58      -0.1969
    123  CA        29.6970  -38.6430  -16.6970 C.3    58  CYS58       0.1712
    124  C         29.5020  -38.1420  -18.1280 C.2    58  CYS58       0.2296
    125  O         28.7210  -38.7080  -18.9030 O.2    58  CYS58      -0.2864
    126  CB        28.4860  -38.2510  -15.8400 C.3    58  CYS58       0.0983
    127  SG        28.7810  -38.1560  -14.0410 S.3    58  CYS58      -0.0798
    128  N         31.3360  -38.5090  -20.3150 N.3    60  ALA60      -0.1231
    129  CA        32.1190  -39.4340  -21.1100 C.3    60  ALA60       0.1694
    130  C         31.3040  -40.6980  -21.3310 C.2    60  ALA60       0.2592
    131  O         31.8620  -41.7810  -21.4740 O.2    60  ALA60      -0.2718
    132  CB        33.4140  -39.7670  -20.3970 C.3    60  ALA60       0.0304
    133  N         29.9850  -40.5580  -21.3500 N.am   61  CYS61      -0.1956
    134  CA        29.1080  -41.6930  -21.5700 C.3    61  CYS61       0.1843
    135  C         27.6780  -41.2460  -21.5850 C.2    61  CYS61       0.2625
    136  O         26.7970  -41.9990  -21.9890 O.2    61  CYS61      -0.2714
    137  CB        29.2470  -42.7300  -20.4710 C.3    61  CYS61       0.0997
    138  SG        30.5790  -43.9610  -20.6160 S.3    61  CYS61      -0.0797
    139  N         27.4350  -40.0300  -21.1160 N.am   62  HIS62      -0.1973
    140  CA        26.0720  -39.5070  -21.0870 C.3    62  HIS62       0.1656
    141  C         25.9240  -38.3570  -22.0780 C.2    62  HIS62       0.2291
    142  O         25.4780  -37.2590  -21.7370 O.2    62  HIS62      -0.2864
    143  CB        25.6990  -39.0840  -19.6590 C.3    62  HIS62       0.0771
    144  CG        25.2650  -40.2270  -18.7890 C.ar   62  HIS62       0.0820
    145  ND1       23.9560  -40.6420  -18.6500 N.ar   62  HIS62      -0.2267
    146  CD2       26.0050  -41.1020  -18.0610 C.ar   62  HIS62       0.1154
    147  CE1       23.9450  -41.7340  -17.8660 C.ar   62  HIS62       0.1986
    148  NE2       25.1660  -42.0610  -17.4760 N.ar   62  HIS62      -0.2212
    149  N         25.4760  -43.4090  -26.2950 N.3    66  LYS66      -0.1231
    150  CA        25.5500  -44.5060  -25.3190 C.3    66  LYS66       0.1693
    151  C         24.4760  -44.4280  -24.2410 C.2    66  LYS66       0.2592
    152  O         23.7990  -45.4240  -23.9710 O.2    66  LYS66      -0.2718
    153  CB        26.9420  -44.5580  -24.6730 C.3    66  LYS66       0.0285
    154  CG        27.9690  -45.3390  -25.4920 C.3    66  LYS66       0.0035
    155  CD        29.3830  -45.2950  -24.8970 C.3    66  LYS66       0.0206
    156  CE        30.0330  -43.9150  -25.0390 C.3    66  LYS66       0.1093
    157  NZ        31.4580  -43.8920  -24.5720 N.3    66  LYS66      -0.1314
    158  N         24.3260  -43.2490  -23.6320 N.am   67  ALA67      -0.1966
    159  CA        23.3210  -43.0040  -22.5930 C.3    67  ALA67       0.1728
    160  C         22.9340  -41.5290  -22.6690 C.2    67  ALA67       0.2616
    161  O         23.7830  -40.6970  -22.9640 O.2    67  ALA67      -0.2715
    162  CB        23.8920  -43.3320  -21.2350 C.3    67  ALA67       0.0334
    163  N         21.6720  -41.2020  -22.3940 N.am   68  PHE68      -0.1974
    164  CA        21.2040  -39.8130  -22.4950 C.3    68  PHE68       0.1639
    165  C         22.2050  -38.7130  -22.0910 C.2    68  PHE68       0.2290
    166  O         23.1870  -38.9690  -21.4000 O.2    68  PHE68      -0.2864
    167  CB        19.8700  -39.6430  -21.7530 C.3    68  PHE68       0.0560
    168  CG        19.9900  -39.6830  -20.2690 C.ar   68  PHE68      -0.0200
    169  CD1       20.4740  -38.5810  -19.5730 C.ar   68  PHE68      -0.0042
    170  CD2       19.6320  -40.8280  -19.5620 C.ar   68  PHE68      -0.0042
    171  CE1       20.6070  -38.6170  -18.1950 C.ar   68  PHE68      -0.0003
    172  CE2       19.7610  -40.8760  -18.1830 C.ar   68  PHE68      -0.0003
    173  CZ        20.2490  -39.7670  -17.4970 C.ar   68  PHE68      -0.0000
    174  N         16.9420  -36.3790  -14.1070 N.3    78  ARG78      -0.1231
    175  CA        17.1680  -37.8240  -14.1840 C.3    78  ARG78       0.1694
    176  C         18.2440  -38.1900  -13.1600 C.2    78  ARG78       0.2592
    177  O         18.2920  -39.3080  -12.6290 O.2    78  ARG78      -0.2718
    178  CB        17.6020  -38.1980  -15.6000 C.3    78  ARG78       0.0321
    179  CG        16.5470  -37.9970  -16.6550 C.3    78  ARG78       0.0489
    180  CD        15.7530  -39.2700  -16.8700 C.3    78  ARG78       0.2205
    181  NE        14.7050  -39.0980  -17.8710 N.pl3  78  ARG78      -0.0865
    182  CZ        13.4390  -38.7920  -17.5960 C.cat  78  ARG78       0.5346
    183  NH1       13.0290  -38.6280  -16.3350 N.pl3  78  ARG78       0.1354
    184  NH2       12.5770  -38.6340  -18.5900 N.pl3  78  ARG78       0.1354
    185  N         19.0920  -37.2130  -12.8790 N.am   79  CYS79      -0.1970
    186  CA        20.1430  -37.3890  -11.8990 C.3    79  CYS79       0.1712
    187  C         19.8550  -36.4680  -10.7310 C.2    79  CYS79       0.2296
    188  O         19.8120  -36.8830   -9.5710 O.2    79  CYS79      -0.2864
    189  CB        21.4910  -37.0480  -12.5000 C.3    79  CYS79       0.0983
    190  SG        22.0800  -38.2990  -13.6690 S.3    79  CYS79      -0.0798
@<TRIPOS>BOND
     1   149   150    1
     2   154   155    1
     3   154   153    1
     4   150   153    1
     5   150   151    1
     6   156   155    1
     7   156   157    1
     8   151   152    2
     9   151   158   am
    10   158   159    1
    11   161   160    2
    12   160   159    1
    13   160   163   am
    14   159   162    1
    15   164   163    1
    16   164   165    1
    17   164   167    1
    18   165   166    2
    19   141   142    2
    20   141   140    1
    21   136   135    2
    22   167   168    1
    23   135   134    1
    24   135   139   am
    25   134   133    1
    26   134   137    1
    27   131   130    2
    28   133   130   am
    29   130   129    1
    30   139   140    1
    31   129   132    1
    32   129   128    1
    33   140   143    1
    34   138   137    1
    35   168   169   ar
    36   168   170   ar
    37    82    81    1
    38   143   144    1
    39    81    80   ar
    40    81    79   ar
    41   169   171   ar
    42   170   172   ar
    43    80    78   ar
    44    65    64    2
    45    90    88    1
    46    79    77   ar
    47    78    76   ar
    48   125   124    2
    49   144   145   ar
    50   144   146   ar
    51    89    87    1
    52   145   147   ar
    53    77    76   ar
    54   184   182    1
    55   104   102    1
    56    88    87    1
    57    76    75    1
    58    69    70    1
    59    69    68    1
    60    64    63    1
    61    64    71   am
    62    74    73    2
    63    72    73    1
    64    72    71    1
    65    72    75    1
    66   171   173   ar
    67   172   173   ar
    68   124   123    1
    69   146   148   ar
    70    66    63    1
    71    66    67    1
    72    63    62    1
    73   103   102    1
    74   181   182    2
    75   181   180    1
    76   147   148   ar
    77    67    68    1
    78    87    84    1
    79   102   101    1
    80   182   183    1
    81   119   118    2
    82    84    85    1
    83    84    83    1
    84   180   179    1
    85   116   117    1
    86    86    85    2
    87   123   122    1
    88   123   126    1
    89   179   178    1
    90    85    91   am
    91   118   122   am
    92   118   117    1
    93   101    98    1
    94    97    98    1
    95    98    99    1
    96   117   120    1
    97   126   127    1
    98    91    92    1
    99   178   175    1
   100    96    95    1
   101   120   121    1
   102    92    95    1
   103    92    93    1
   104    59    61   ar
   105    59    57   ar
   106    61    60   ar
   107    55    54    2
   108    99   100    2
   109    99   105   am
   110    53    56    1
   111    53    54    1
   112    53    52    1
   113    57    56    1
   114    57    58   ar
   115   175   174    1
   116   175   176    1
   117    47    46    2
   118    50    48    1
   119    93    94    2
   120    60    58   ar
   121   190   189    1
   122   113   115   ar
   123   113   111   ar
   124   105   106    1
   125    52    46   am
   126    46    45    1
   127   115   114   ar
   128   176   185   am
   129   176   177    2
   130   111   110   ar
   131   185   186    1
   132    48    45    1
   133    48    49    1
   134   189   186    1
   135    45    44    1
   136   114   112   ar
   137   106   109    1
   138   106   107    1
   139   110   112   ar
   140   110   109    1
   141   186   187    1
   142    35    37   ar
   143    35    33   ar
   144    51    49    1
   145    37    36   ar
   146   107   108    2
   147    33    32   ar
   148   187   188    2
   149    41    40    2
   150    36    34   ar
   151    32    34   ar
   152    32    31    1
   153    40    39    1
   154    17    16    1
   155    42    39    1
   156    42    43    1
   157    38    39    1
   158    38    29   am
   159    18    16    1
   160    31    28    1
   161    28    29    1
   162    28    27    1
   163    11     9   ar
   164    11    10   ar
   165     9     7   ar
   166    16    13    1
   167    22    21    2
   168    29    30    2
   169    10     8   ar
   170     7     6   ar
   171    27    21   am
   172    21    20    1
   173     8     6   ar
   174     6     5    1
   175    13    14    1
   176    13    12    1
   177    14    19   am
   178    14    15    2
   179    19    20    1
   180     5     2    1
   181    20    23    1
   182    23    25    1
   183    23    24    1
   184     2     1    1
   185     2     3    1
   186     4     3    2
   187    24    26    1
