@<TRIPOS>MOLECULE
tmp/3ov0A11.pdb
 231 225 0 0 0
SMALL
GASTEIGER

@<TRIPOS>ATOM
      1  N         16.8520    9.9680   30.5870 N.3   173  GLY173     -0.1210
      2  CA        17.3630   11.2310   31.0880 C.3   173  GLY173      0.1956
      3  C         17.2700   12.3340   30.0510 C.2   173  GLY173      0.2611
      4  O         17.1790   13.5170   30.3950 O.2   173  GLY173     -0.2717
      5  N         17.2930   11.9390   28.7770 N.am  174  VAL174     -0.1979
      6  CA        17.2150   12.8760   27.6500 C.3   174  VAL174      0.1595
      7  C         15.7640   13.0290   27.1950 C.2   174  VAL174      0.2287
      8  O         15.1010   14.0340   27.4790 O.2   174  VAL174     -0.2864
      9  CB        18.0230   12.3730   26.4270 C.3   174  VAL174      0.0276
     10  CG1       18.2030   13.5050   25.4340 C.3   174  VAL174      0.0022
     11  CG2       19.3630   11.8160   26.8670 C.3   174  VAL174      0.0022
     12  N         24.7980   21.4540   18.1310 N.3   232  SER232     -0.1217
     13  CA        23.6100   22.1410   18.6300 C.3   232  SER232      0.1889
     14  C         22.3770   21.8840   17.7800 C.2   232  SER232      0.2288
     15  O         22.2950   20.8830   17.0680 O.2   232  SER232     -0.2866
     16  CB        23.8730   23.6550   18.7240 C.3   232  SER232      0.2089
     17  OG        22.8000   24.3420   19.3600 O.3   232  SER232     -0.2183
     18  N         19.8250   20.8580   18.6360 N.3   234  CYS234     -0.1235
     19  CA        19.1590   19.7450   19.3290 C.3   234  CYS234      0.1677
     20  C         17.7140   19.4630   18.9540 C.2   234  CYS234      0.2270
     21  O         17.3480   18.3110   18.7310 O.2   234  CYS234     -0.2867
     22  CB        19.2260   19.9590   20.8450 C.3   234  CYS234      0.0956
     23  SG        20.9100   20.0280   21.5310 S.3   234  CYS234     -0.0801
     24  N         12.6720   18.0220   23.2240 N.3   241  LEU241     -0.1231
     25  CA        13.8000   18.4240   24.0550 C.3   241  LEU241      0.1693
     26  C         14.0450   19.9130   23.9520 C.2   241  LEU241      0.2592
     27  O         14.0630   20.4720   22.8600 O.2   241  LEU241     -0.2718
     28  CB        15.0720   17.6990   23.6340 C.3   241  LEU241      0.0284
     29  CG        16.2890   18.2090   24.4020 C.3   241  LEU241      0.0019
     30  CD1       16.1110   17.8640   25.8750 C.3   241  LEU241      0.0001
     31  CD2       17.5600   17.5920   23.8540 C.3   241  LEU241      0.0001
     32  N         14.2390   20.5530   25.0970 N.am  242  LYS242     -0.1966
     33  CA        14.4770   21.9880   25.1250 C.3   242  LYS242      0.1713
     34  C         15.1590   22.4180   26.4160 C.2   242  LYS242      0.2458
     35  O         14.7850   21.9760   27.5030 O.2   242  LYS242     -0.2730
     36  CB        13.1460   22.7450   24.9620 C.3   242  LYS242      0.0311
     37  CG        12.1610   22.5360   26.0580 C.3   242  LYS242      0.0038
     38  CD        11.0160   23.5440   25.9200 C.3   242  LYS242      0.0206
     39  CE         9.9640   23.1440   26.9180 C.3   242  LYS242      0.1093
     40  NZ         8.9370   24.2140   26.9390 N.3   242  LYS242     -0.1314
     41  N         16.1930   23.2670   26.3140 N.am  243  PRO243     -0.2716
     42  CA        16.8640   23.7160   27.5320 C.3   243  PRO243      0.1536
     43  C         15.8600   24.5690   28.3070 C.2   243  PRO243      0.2598
     44  O         15.4360   25.6280   27.8290 O.2   243  PRO243     -0.2715
     45  CB        18.0430   24.5230   26.9950 C.3   243  PRO243      0.0310
     46  CG        17.5310   25.0500   25.6930 C.3   243  PRO243      0.0237
     47  CD        16.8250   23.8530   25.1200 C.3   243  PRO243      0.0939
     48  N         15.4750   24.1030   29.4950 N.am  244  ALA244     -0.1978
     49  CA        14.4930   24.8230   30.3010 C.3   244  ALA244      0.1597
     50  C         14.8550   25.0370   31.7680 C.2   244  ALA244      0.2287
     51  O         15.9690   24.7450   32.2060 O.2   244  ALA244     -0.2864
     52  CB        13.1420   24.1140   30.2110 C.3   244  ALA244      0.0319
     53  N         14.9420   24.1010   35.3520 N.3   246  LEU246     -0.1245
     54  CA        14.9190   22.8950   36.1610 C.3   246  LEU246      0.1561
     55  C         14.3890   23.1810   37.5510 C.2   246  LEU246      0.2260
     56  O         13.8310   24.2460   37.8180 O.2   246  LEU246     -0.2867
     57  CB        16.3240   22.3220   36.2920 C.3   246  LEU246      0.0270
     58  CG        17.0580   22.0610   34.9880 C.3   246  LEU246      0.0019
     59  CD1       18.4220   21.4600   35.2770 C.3   246  LEU246      0.0001
     60  CD2       16.2240   21.1260   34.1380 C.3   246  LEU246      0.0001
     61  N         15.8190   21.5770   41.4480 N.3   248  TYR248     -0.1241
     62  CA        16.6030   20.6390   42.2410 C.3   248  TYR248      0.1605
     63  C         15.9380   20.2530   43.5550 C.2   248  TYR248      0.2264
     64  O         15.1990   21.0380   44.1460 O.2   248  TYR248     -0.2867
     65  CB        17.9810   21.2260   42.5570 C.3   248  TYR248      0.0534
     66  CG        18.8760   21.4600   41.3600 C.ar  248  TYR248     -0.0201
     67  CD1       18.8200   22.6530   40.6380 C.ar  248  TYR248     -0.0009
     68  CD2       19.8040   20.4940   40.9650 C.ar  248  TYR248     -0.0009
     69  CE1       19.6770   22.8790   39.5530 C.ar  248  TYR248      0.0417
     70  CE2       20.6620   20.7060   39.8820 C.ar  248  TYR248      0.0417
     71  CZ        20.5970   21.8990   39.1840 C.ar  248  TYR248      0.1957
     72  OH        21.4680   22.1100   38.1360 O.3   248  TYR248     -0.2866
     73  N         17.4700   26.5290   38.6320 N.3   257  PHE257     -0.1241
     74  CA        18.3850   26.8760   37.5390 C.3   257  PHE257      0.1605
     75  C         17.6390   27.1800   36.2430 C.2   257  PHE257      0.2264
     76  O         17.1800   26.2760   35.5460 O.2   257  PHE257     -0.2867
     77  CB        19.4030   25.7760   37.2330 C.3   257  PHE257      0.0534
     78  CG        20.2730   26.1050   36.0500 C.ar  257  PHE257     -0.0203
     79  CD1       21.1190   27.2130   36.0850 C.ar  257  PHE257     -0.0042
     80  CD2       20.1850   25.3740   34.8750 C.ar  257  PHE257     -0.0042
     81  CE1       21.8580   27.5890   34.9680 C.ar  257  PHE257     -0.0003
     82  CE2       20.9210   25.7460   33.7550 C.ar  257  PHE257     -0.0003
     83  CZ        21.7570   26.8580   33.8030 C.ar  257  PHE257     -0.0000
     84  N         17.5320   28.2250   32.4830 N.3   259  HIS259     -0.1241
     85  CA        18.4620   28.1300   31.3670 C.3   259  HIS259      0.1621
     86  C         18.5310   29.5140   30.7260 C.2   259  HIS259      0.2264
     87  O         19.5920   30.1350   30.6780 O.2   259  HIS259     -0.2867
     88  CB        17.9890   27.0950   30.3390 C.3   259  HIS259      0.0745
     89  CG        18.7420   25.7980   30.3860 C.ar  259  HIS259      0.0817
     90  ND1       18.2590   24.6380   30.9490 N.ar  259  HIS259     -0.2268
     91  CD2       19.9740   25.4840   29.9130 C.ar  259  HIS259      0.1154
     92  CE1       19.1870   23.6820   30.8010 C.ar  259  HIS259      0.1986
     93  NE2       20.2510   24.1450   30.1780 N.ar  259  HIS259     -0.2212
     94  N         20.9190   32.2290   31.5600 N.3   262  HIS262     -0.1226
     95  CA        22.3000   31.9310   31.2170 C.3   262  HIS262      0.1752
     96  C         22.5710   31.9280   29.7150 C.2   262  HIS262      0.2595
     97  O         23.6490   32.3370   29.2680 O.2   262  HIS262     -0.2718
     98  CB        22.7050   30.5900   31.8370 C.3   262  HIS262      0.0759
     99  CG        22.6950   30.6020   33.3330 C.ar  262  HIS262      0.0818
    100  ND1       21.5510   30.6490   34.0960 N.ar  262  HIS262     -0.2268
    101  CD2       23.7230   30.6870   34.2140 C.ar  262  HIS262      0.1154
    102  CE1       21.9150   30.7700   35.3840 C.ar  262  HIS262      0.1986
    103  NE2       23.2300   30.8000   35.5160 N.ar  262  HIS262     -0.2212
    104  N         21.5860   31.4820   28.9380 N.am  263  LEU263     -0.1980
    105  CA        21.7120   31.4120   27.4830 C.3   263  LEU263      0.1596
    106  C         21.6030   32.7480   26.7970 C.2   263  LEU263      0.2287
    107  O         21.1420   32.8330   25.6740 O.2   263  LEU263     -0.2864
    108  CB        20.6620   30.4720   26.8960 C.3   263  LEU263      0.0297
    109  CG        20.9980   29.0070   27.1420 C.3   263  LEU263      0.0022
    110  CD1       19.9000   28.1180   26.5740 C.3   263  LEU263      0.0001
    111  CD2       22.3570   28.7070   26.5100 C.3   263  LEU263      0.0001
    112  N         25.7560   32.6880   27.5090 N.3   266  PHE266     -0.1227
    113  CA        26.5170   31.4760   27.2420 C.3   266  PHE266      0.1736
    114  C         25.9330   30.5040   26.2160 C.2   266  PHE266      0.2595
    115  O         24.7320   30.5100   25.9130 O.2   266  PHE266     -0.2718
    116  CB        26.7870   30.7330   28.5470 C.3   266  PHE266      0.0547
    117  CG        27.4080   31.5900   29.6030 C.ar  266  PHE266     -0.0202
    118  CD1       26.6200   32.4190   30.3920 C.ar  266  PHE266     -0.0042
    119  CD2       28.7870   31.6190   29.7700 C.ar  266  PHE266     -0.0042
    120  CE1       27.1970   33.2660   31.3280 C.ar  266  PHE266     -0.0003
    121  CE2       29.3760   32.4620   30.7000 C.ar  266  PHE266     -0.0003
    122  CZ        28.5810   33.2880   31.4810 C.ar  266  PHE266     -0.0000
    123  N         26.8310   29.6630   25.7030 N.am  267  LYS267     -0.1966
    124  CA        26.5430   28.6500   24.6960 C.3   267  LYS267      0.1728
    125  C         26.7240   27.2740   25.2990 C.2   267  LYS267      0.2616
    126  O         27.6240   27.0510   26.0960 O.2   267  LYS267     -0.2715
    127  CB        27.4930   28.8200   23.5110 C.3   267  LYS267      0.0311
    128  CG        27.2950   27.8940   22.3440 C.3   267  LYS267      0.0038
    129  CD        26.0550   28.2860   21.6070 C.3   267  LYS267      0.0206
    130  CE        25.9730   27.5640   20.2580 C.3   267  LYS267      0.1093
    131  NZ        25.6410   26.1590   20.4120 N.3   267  LYS267     -0.1314
    132  N         25.8710   26.3500   24.8970 N.am  268  CYS268     -0.1968
    133  CA        25.9360   24.9930   25.4100 C.3   268  CYS268      0.1712
    134  C         27.3680   24.5270   25.6110 C.2   268  CYS268      0.2296
    135  O         27.6640   23.7340   26.5010 O.2   268  CYS268     -0.2864
    136  CB        25.2220   24.0370   24.4520 C.3   268  CYS268      0.0983
    137  SG        23.4770   24.4560   24.1390 S.3   268  CYS268     -0.0798
    138  N         30.0460   26.2140   26.6510 N.3   270  ASP270     -0.1225
    139  CA        30.5770   26.7420   27.9120 C.3   270  ASP270      0.1805
    140  C         30.4490   25.7720   29.0800 C.2   270  ASP270      0.2598
    141  O         31.4500   25.3790   29.6920 O.2   270  ASP270     -0.2718
    142  CB        29.8660   28.0430   28.2780 C.3   270  ASP270      0.1424
    143  CG        30.1530   29.1620   27.3050 C.2   270  ASP270      0.3668
    144  OD1       31.3360   29.3640   26.9490 O.co2 270  ASP270     -0.2456
    145  OD2       29.1900   29.8520   26.9180 O.co2 270  ASP270     -0.2456
    146  N         29.2060   25.4120   29.3930 N.am  271  CYS271     -0.1956
    147  CA        28.9130   24.4820   30.4710 C.3   271  CYS271      0.1843
    148  C         29.1050   23.0680   29.9400 C.2   271  CYS271      0.2625
    149  O         30.2170   22.5390   29.8790 O.2   271  CYS271     -0.2714
    150  CB        27.4590   24.6290   30.9340 C.3   271  CYS271      0.0997
    151  SG        26.8710   26.3170   31.2910 S.3   271  CYS271     -0.0797
    152  N         27.9840   22.4870   29.5300 N.am  272  HIS272     -0.1973
    153  CA        27.8920   21.1290   29.0080 C.3   272  HIS272      0.1656
    154  C         29.1360   20.4740   28.4080 C.2   272  HIS272      0.2291
    155  O         29.9020   21.1030   27.6700 O.2   272  HIS272     -0.2864
    156  CB        26.7270   21.0690   28.0320 C.3   272  HIS272      0.0771
    157  CG        25.3930   21.2500   28.6870 C.ar  272  HIS272      0.0820
    158  ND1       24.7370   20.2620   29.3850 N.ar  272  HIS272     -0.2267
    159  CD2       24.5810   22.3350   28.7380 C.ar  272  HIS272      0.1154
    160  CE1       23.5820   20.7650   29.8130 C.ar  272  HIS272      0.1986
    161  NE2       23.4460   22.0200   29.4450 N.ar  272  HIS272     -0.2212
    162  N         28.5050   20.3490   32.9470 N.3   276  PHE276     -0.1227
    163  CA        27.1980   19.7430   33.1950 C.3   276  PHE276      0.1736
    164  C         26.7090   18.7950   32.1160 C.2   276  PHE276      0.2595
    165  O         26.5180   19.1850   30.9680 O.2   276  PHE276     -0.2718
    166  CB        26.1250   20.8090   33.3720 C.3   276  PHE276      0.0547
    167  CG        26.3160   21.6640   34.5690 C.ar  276  PHE276     -0.0202
    168  CD1       26.8520   22.9330   34.4480 C.ar  276  PHE276     -0.0042
    169  CD2       25.9400   21.2090   35.8200 C.ar  276  PHE276     -0.0042
    170  CE1       27.0060   23.7440   35.5580 C.ar  276  PHE276     -0.0003
    171  CE2       26.0900   22.0110   36.9380 C.ar  276  PHE276     -0.0003
    172  CZ        26.6240   23.2820   36.8070 C.ar  276  PHE276     -0.0000
    173  N         26.4830   17.5460   32.4900 N.am  277  LYS277     -0.1966
    174  CA        25.9770   16.5790   31.5410 C.3   277  LYS277      0.1728
    175  C         24.5400   17.0000   31.2570 C.2   277  LYS277      0.2616
    176  O         24.1190   18.0810   31.6750 O.2   277  LYS277     -0.2715
    177  CB        26.0420   15.1770   32.1460 C.3   277  LYS277      0.0311
    178  CG        27.4660   14.7490   32.4690 C.3   277  LYS277      0.0038
    179  CD        27.5280   13.3570   33.0610 C.3   277  LYS277      0.0206
    180  CE        28.9710   12.9410   33.3170 C.3   277  LYS277      0.1093
    181  NZ        29.0640   11.5940   33.9560 N.3   277  LYS277     -0.1314
    182  N         23.7940   16.1710   30.5350 N.am  278  TYR278     -0.1960
    183  CA        22.4070   16.5000   30.2130 C.3   278  TYR278      0.1771
    184  C         21.4820   15.5440   30.9370 C.2   278  TYR278      0.2619
    185  O         20.5570   15.9650   31.6350 O.2   278  TYR278     -0.2715
    186  CB        22.1330   16.3920   28.7030 C.3   278  TYR278      0.0574
    187  CG        23.0300   17.2210   27.8020 C.ar  278  TYR278     -0.0198
    188  CD1       24.2390   16.7110   27.3250 C.ar  278  TYR278     -0.0009
    189  CD2       22.6610   18.5060   27.4140 C.ar  278  TYR278     -0.0009
    190  CE1       25.0500   17.4560   26.4850 C.ar  278  TYR278      0.0417
    191  CE2       23.4670   19.2570   26.5760 C.ar  278  TYR278      0.0417
    192  CZ        24.6580   18.7240   26.1150 C.ar  278  TYR278      0.1957
    193  OH        25.4530   19.4610   25.2730 O.3   278  TYR278     -0.2866
    194  N         21.7410   14.2520   30.7530 N.am  279  ARG279     -0.1963
    195  CA        20.9380   13.2090   31.3730 C.3   279  ARG279      0.1729
    196  C         20.5870   13.6260   32.7910 C.2   279  ARG279      0.2616
    197  O         21.4370   14.1390   33.5170 O.2   279  ARG279     -0.2715
    198  CB        21.7090   11.8860   31.3820 C.3   279  ARG279      0.0348
    199  CG        22.0820   11.4430   29.9850 C.3   279  ARG279      0.0492
    200  CD        22.7620   10.0950   30.1190 C.3   279  ARG279      0.2205
    201  NE        21.8280    9.1060   30.7240 N.pl3 279  ARG279     -0.0865
    202  CZ        22.4440    8.0410   31.2750 C.cat 279  ARG279      0.5346
    203  NH1       23.7760    8.0200   31.2260 N.pl3 279  ARG279      0.1354
    204  NH2       21.7220    7.0860   31.8240 N.pl3 279  ARG279      0.1354
    205  N         19.3300   13.4340   33.1730 N.am  280  LYS280     -0.1977
    206  CA        18.8960   13.7870   34.5160 C.3   280  LYS280      0.1596
    207  C         19.8030   13.0570   35.5070 C.2   280  LYS280      0.2287
    208  O         20.2900   13.6540   36.4760 O.2   280  LYS280     -0.2864
    209  CB        17.4410   13.3770   34.7200 C.3   280  LYS280      0.0298
    210  CG        16.4700   14.1320   33.8820 C.3   280  LYS280      0.0038
    211  CD        16.2440   15.5360   34.3500 C.3   280  LYS280      0.0206
    212  CE        15.2120   16.2750   33.4620 C.3   280  LYS280      0.1093
    213  NZ        15.7470   16.7480   32.1780 N.3   280  LYS280     -0.1314
    214  N         22.6730   12.3330   36.9650 N.3   282  SER282     -0.1217
    215  CA        24.0380   12.8460   37.0750 C.3   282  SER282      0.1889
    216  C         24.6770   12.4200   38.3990 C.2   282  SER282      0.2288
    217  O         24.4550   11.3070   38.8860 O.2   282  SER282     -0.2866
    218  CB        24.0290   14.3850   36.9660 C.3   282  SER282      0.2089
    219  OG        25.3400   14.9350   36.9120 O.3   282  SER282     -0.2183
    220  N         27.9170   24.7300   39.5930 N.3   296  CYS296     -0.1235
    221  CA        27.5780   26.1470   39.4900 C.3   296  CYS296      0.1677
    222  C         28.7140   27.0670   39.9150 C.2   296  CYS296      0.2270
    223  O         28.7520   28.2450   39.5510 O.2   296  CYS296     -0.2867
    224  CB        26.3590   26.4550   40.3480 C.3   296  CYS296      0.0956
    225  SG        25.0580   25.1950   40.2500 S.3   296  CYS296     -0.0801
    226  N         31.6370   29.1380   37.6730 N.3   299  CYS299     -0.1235
    227  CA        31.5460   30.5420   37.3350 C.3   299  CYS299      0.1677
    228  C         30.9830   31.2910   38.5420 C.2   299  CYS299      0.2270
    229  O         31.2060   32.4990   38.6990 O.2   299  CYS299     -0.2867
    230  CB        30.6350   30.7300   36.1050 C.3   299  CYS299      0.0956
    231  SG        30.4910   29.2870   34.9740 S.3   299  CYS299     -0.0801
@<TRIPOS>BOND
     1    15    14    2
     2    14    13    1
     3    12    13    1
     4    13    16    1
     5    18    19    1
     6    16    17    1
     7    21    20    2
     8    20    19    1
     9    19    22    1
    10   130   131    1
    11   130   129    1
    12    22    23    1
    13   129   128    1
    14   128   127    1
    15    27    26    2
    16    24    25    1
    17   127   124    1
    18    28    25    1
    19    28    29    1
    20    31    29    1
    21    26    25    1
    22    26    32   am
    23   137   136    1
    24    29    30    1
    25   136   133    1
    26   124   125    1
    27   124   123    1
    28   132   125   am
    29   132   133    1
    30    36    33    1
    31    36    37    1
    32    32    33    1
    33    47    46    1
    34    47    41    1
    35    33    34    1
    36   193   192    1
    37   125   126    2
    38   133   134    1
    39    10     9    1
    40   134   135    2
    41   107   106    2
    42    46    45    1
    43   123   114   am
    44   115   114    2
    45    38    37    1
    46    38    39    1
    47   192   190   ar
    48   192   191   ar
    49   114   113    1
    50    41    34   am
    51    41    42    1
    52    34    35    2
    53     9    11    1
    54     9     6    1
    55   190   188   ar
    56   111   109    1
    57   110   109    1
    58   191   189   ar
    59   138   139    1
    60   106   105    1
    61   108   109    1
    62   108   105    1
    63    39    40    1
    64   145   143   ar
    65   144   143   ar
    66    45    42    1
    67     7     8    2
    68     7     6    1
    69   113   112    1
    70   113   116    1
    71   143   142    1
    72   188   187   ar
    73   189   187   ar
    74   105   104    1
    75    42    43    1
    76     6     5    1
    77   155   154    2
    78   187   186    1
    79    44    43    2
    80   139   142    1
    81   139   140    1
    82   156   157    1
    83   156   153    1
    84    43    48   am
    85   154   153    1
    86   116   117    1
    87   157   159   ar
    88   157   158   ar
    89   186   183    1
    90   159   161   ar
    91     5     3   am
    92   104    96   am
    93   153   152    1
    94   140   146   am
    95   140   141    2
    96    97    96    2
    97   158   160   ar
    98   146   147    1
    99   161   160   ar
   100    48    49    1
   101   152   148   am
   102   117   119   ar
   103   117   118   ar
   104    96    95    1
   105   119   121   ar
   106   149   148    2
   107    91    93   ar
   108    91    89   ar
   109   148   147    1
   110   199   200    1
   111   199   198    1
   112     3     4    2
   113     3     2    1
   114   200   201    1
   115    93    92   ar
   116    52    49    1
   117   183   182    1
   118   183   184    1
   119    49    50    1
   120    88    89    1
   121    88    85    1
   122    89    90   ar
   123   118   120   ar
   124   147   150    1
   125   182   175   am
   126     1     2    1
   127    87    86    2
   128   121   122   ar
   129   201   202    2
   130    86    85    1
   131   194   184   am
   132   194   195    1
   133    92    90   ar
   134   150   151    1
   135   184   185    2
   136   165   164    2
   137    95    94    1
   138    95    98    1
   139   203   202    1
   140   175   174    1
   141   175   176    2
   142   202   204    1
   143   120   122   ar
   144    85    84    1
   145   195   198    1
   146   195   196    1
   147   174   177    1
   148   174   173    1
   149    50    51    2
   150    98    99    1
   151   164   173   am
   152   164   163    1
   153   177   178    1
   154   213   212    1
   155   178   179    1
   156   196   205   am
   157   196   197    2
   158   162   163    1
   159   179   180    1
   160   205   206    1
   161   163   166    1
   162   180   181    1
   163    99   100   ar
   164    99   101   ar
   165   166   167    1
   166   212   211    1
   167    82    83   ar
   168    82    80   ar
   169    83    81   ar
   170   210   211    1
   171   210   209    1
   172   100   102   ar
   173    60    58    1
   174   101   103   ar
   175   168   167   ar
   176   168   170   ar
   177   206   209    1
   178   206   207    1
   179   167   169   ar
   180    80    78   ar
   181    81    79   ar
   182   231   230    1
   183    58    59    1
   184    58    57    1
   185    53    54    1
   186   102   103   ar
   187   207   208    2
   188    76    75    2
   189   170   172   ar
   190   169   171   ar
   191    78    79   ar
   192    78    77    1
   193   230   227    1
   194    54    57    1
   195    54    55    1
   196    75    74    1
   197   172   171   ar
   198   219   218    1
   199   214   215    1
   200   218   215    1
   201   215   216    1
   202    77    74    1
   203   227   226    1
   204   227   228    1
   205    74    73    1
   206    55    56    2
   207    72    71    1
   208   216   217    2
   209   228   229    2
   210    71    69   ar
   211    71    70   ar
   212   221   220    1
   213   221   222    1
   214   221   224    1
   215   223   222    2
   216    69    67   ar
   217    70    68   ar
   218   225   224    1
   219    67    66   ar
   220    68    66   ar
   221    66    65    1
   222    61    62    1
   223    62    65    1
   224    62    63    1
   225    63    64    2
