@<TRIPOS>MOLECULE
tmp/3ov0A00.pdb
 191 189 0 0 0
SMALL
GASTEIGER

@<TRIPOS>ATOM
      1  N         15.8190   21.5770   41.4480 N.3   248  TYR248     -0.1241
      2  CA        16.6030   20.6390   42.2410 C.3   248  TYR248      0.1605
      3  C         15.9380   20.2530   43.5550 C.2   248  TYR248      0.2264
      4  O         15.1990   21.0380   44.1460 O.2   248  TYR248     -0.2867
      5  CB        17.9810   21.2260   42.5570 C.3   248  TYR248      0.0534
      6  CG        18.8760   21.4600   41.3600 C.ar  248  TYR248     -0.0201
      7  CD1       18.8200   22.6530   40.6380 C.ar  248  TYR248     -0.0009
      8  CD2       19.8040   20.4940   40.9650 C.ar  248  TYR248     -0.0009
      9  CE1       19.6770   22.8790   39.5530 C.ar  248  TYR248      0.0417
     10  CE2       20.6620   20.7060   39.8820 C.ar  248  TYR248      0.0417
     11  CZ        20.5970   21.8990   39.1840 C.ar  248  TYR248      0.1957
     12  OH        21.4680   22.1100   38.1360 O.3   248  TYR248     -0.2866
     13  N         16.1970   24.1210   44.7250 N.3   255  ALA255     -0.1231
     14  CA        17.1810   24.9160   43.9990 C.3   255  ALA255      0.1694
     15  C         16.6380   25.1910   42.5990 C.2   255  ALA255      0.2592
     16  O         16.0380   24.3180   41.9780 O.2   255  ALA255     -0.2718
     17  CB        18.5000   24.1630   43.9180 C.3   255  ALA255      0.0304
     18  N         16.8600   26.4070   42.1070 N.am  256  TYR256     -0.1962
     19  CA        16.3680   26.8190   40.7940 C.3   256  TYR256      0.1771
     20  C         17.4180   27.2450   39.7590 C.2   256  TYR256      0.2620
     21  O         18.1550   28.2150   39.9730 O.2   256  TYR256     -0.2715
     22  CB        15.3780   27.9770   40.9620 C.3   256  TYR256      0.0574
     23  CG        14.0920   27.6240   41.6730 C.ar  256  TYR256     -0.0198
     24  CD1       13.1470   28.6110   41.9670 C.ar  256  TYR256     -0.0009
     25  CD2       13.8140   26.3100   42.0520 C.ar  256  TYR256     -0.0009
     26  CE1       11.9510   28.2980   42.6250 C.ar  256  TYR256      0.0417
     27  CE2       12.6260   25.9840   42.7100 C.ar  256  TYR256      0.0417
     28  CZ        11.6980   26.9800   42.9950 C.ar  256  TYR256      0.1957
     29  OH        10.5300   26.6580   43.6570 O.3   256  TYR256     -0.2866
     30  N         17.4700   26.5290   38.6320 N.am  257  PHE257     -0.1960
     31  CA        18.3850   26.8760   37.5390 C.3   257  PHE257      0.1771
     32  C         17.6390   27.1800   36.2430 C.2   257  PHE257      0.2619
     33  O         17.1800   26.2760   35.5460 O.2   257  PHE257     -0.2715
     34  CB        19.4030   25.7760   37.2330 C.3   257  PHE257      0.0574
     35  CG        20.2730   26.1050   36.0500 C.ar  257  PHE257     -0.0200
     36  CD1       21.1190   27.2130   36.0850 C.ar  257  PHE257     -0.0042
     37  CD2       20.1850   25.3740   34.8750 C.ar  257  PHE257     -0.0042
     38  CE1       21.8580   27.5890   34.9680 C.ar  257  PHE257     -0.0003
     39  CE2       20.9210   25.7460   33.7550 C.ar  257  PHE257     -0.0003
     40  CZ        21.7570   26.8580   33.8030 C.ar  257  PHE257     -0.0000
     41  N         17.5370   28.4650   35.9320 N.am  258  ASP258     -0.1971
     42  CA        16.8690   28.9330   34.7290 C.3   258  ASP258      0.1709
     43  C         17.9000   28.8370   33.6070 C.2   258  ASP258      0.2293
     44  O         19.0330   29.2930   33.7690 O.2   258  ASP258     -0.2864
     45  CB        16.4420   30.3950   34.9230 C.3   258  ASP258      0.1436
     46  CG        15.4380   30.8710   33.8830 C.2   258  ASP258      0.3671
     47  OD1       14.2590   30.4660   33.9560 O.co2 258  ASP258     -0.2456
     48  OD2       15.8260   31.6580   32.9930 O.co2 258  ASP258     -0.2456
     49  N         18.1910   32.6360   31.4400 N.3   261  ILE261     -0.1231
     50  CA        19.0280   33.6940   31.9760 C.3   261  ILE261      0.1692
     51  C         20.4860   33.4820   31.5880 C.2   261  ILE261      0.2592
     52  O         21.2070   34.4360   31.3090 O.2   261  ILE261     -0.2718
     53  CB        18.9400   33.7810   33.5150 C.3   261  ILE261      0.0266
     54  CG1       17.4900   33.6340   33.9770 C.3   261  ILE261      0.0019
     55  CG2       19.4440   35.1460   33.9790 C.3   261  ILE261      0.0020
     56  CD1       17.3270   33.6250   35.4960 C.3   261  ILE261      0.0001
     57  N         20.9190   32.2290   31.5600 N.am  262  HIS262     -0.1976
     58  CA        22.3000   31.9310   31.2170 C.3   262  HIS262      0.1656
     59  C         22.5710   31.9280   29.7150 C.2   262  HIS262      0.2291
     60  O         23.6490   32.3370   29.2680 O.2   262  HIS262     -0.2864
     61  CB        22.7050   30.5900   31.8370 C.3   262  HIS262      0.0771
     62  CG        22.6950   30.6020   33.3330 C.ar  262  HIS262      0.0820
     63  ND1       21.5510   30.6490   34.0960 N.ar  262  HIS262     -0.2267
     64  CD2       23.7230   30.6870   34.2140 C.ar  262  HIS262      0.1154
     65  CE1       21.9150   30.7700   35.3840 C.ar  262  HIS262      0.1986
     66  NE2       23.2300   30.8000   35.5160 N.ar  262  HIS262     -0.2212
     67  N         24.1580   34.7230   27.6780 N.3   265  MET265     -0.1230
     68  CA        25.5240   35.0530   27.9920 C.3   265  MET265      0.1702
     69  C         26.3900   33.8380   27.7210 C.2   265  MET265      0.2592
     70  O         27.6150   33.9360   27.6970 O.2   265  MET265     -0.2718
     71  CB        25.6300   35.4800   29.4520 C.3   265  MET265      0.0401
     72  CG        24.9040   36.7990   29.7090 C.3   265  MET265      0.0596
     73  SD        25.9550   38.2180   29.3780 S.3   265  MET265     -0.1393
     74  CE        27.1120   37.9200   30.7330 C.3   265  MET265      0.0692
     75  N         25.7560   32.6880   27.5090 N.am  266  PHE266     -0.1976
     76  CA        26.5170   31.4760   27.2420 C.3   266  PHE266      0.1639
     77  C         25.9330   30.5040   26.2160 C.2   266  PHE266      0.2290
     78  O         24.7320   30.5100   25.9130 O.2   266  PHE266     -0.2864
     79  CB        26.7870   30.7330   28.5470 C.3   266  PHE266      0.0560
     80  CG        27.4080   31.5900   29.6030 C.ar  266  PHE266     -0.0200
     81  CD1       26.6200   32.4190   30.3920 C.ar  266  PHE266     -0.0042
     82  CD2       28.7870   31.6190   29.7700 C.ar  266  PHE266     -0.0042
     83  CE1       27.1970   33.2660   31.3280 C.ar  266  PHE266     -0.0003
     84  CE2       29.3760   32.4620   30.7000 C.ar  266  PHE266     -0.0003
     85  CZ        28.5810   33.2880   31.4810 C.ar  266  PHE266     -0.0000
     86  N         30.0460   26.2140   26.6510 N.3   270  ASP270     -0.1225
     87  CA        30.5770   26.7420   27.9120 C.3   270  ASP270      0.1805
     88  C         30.4490   25.7720   29.0800 C.2   270  ASP270      0.2598
     89  O         31.4500   25.3790   29.6920 O.2   270  ASP270     -0.2718
     90  CB        29.8660   28.0430   28.2780 C.3   270  ASP270      0.1424
     91  CG        30.1530   29.1620   27.3050 C.2   270  ASP270      0.3668
     92  OD1       31.3360   29.3640   26.9490 O.co2 270  ASP270     -0.2456
     93  OD2       29.1900   29.8520   26.9180 O.co2 270  ASP270     -0.2456
     94  N         29.2060   25.4120   29.3930 N.am  271  CYS271     -0.1970
     95  CA        28.9130   24.4820   30.4710 C.3   271  CYS271      0.1712
     96  C         29.1050   23.0680   29.9400 C.2   271  CYS271      0.2296
     97  O         30.2170   22.5390   29.8790 O.2   271  CYS271     -0.2864
     98  CB        27.4590   24.6290   30.9340 C.3   271  CYS271      0.0983
     99  SG        26.8710   26.3170   31.2910 S.3   271  CYS271     -0.0798
    100  N         31.3990   20.6800   32.2670 N.3   275  VAL275     -0.1231
    101  CA        30.7910   21.0320   33.5500 C.3   275  VAL275      0.1692
    102  C         29.4410   20.3750   33.8930 C.2   275  VAL275      0.2592
    103  O         29.2520   19.9030   35.0150 O.2   275  VAL275     -0.2718
    104  CB        30.6430   22.5630   33.6520 C.3   275  VAL275      0.0266
    105  CG1       30.0850   22.9420   34.9940 C.3   275  VAL275      0.0020
    106  CG2       31.9920   23.2240   33.4340 C.3   275  VAL275      0.0020
    107  N         28.5050   20.3490   32.9470 N.am  276  PHE276     -0.1976
    108  CA        27.1980   19.7430   33.1950 C.3   276  PHE276      0.1639
    109  C         26.7090   18.7950   32.1160 C.2   276  PHE276      0.2290
    110  O         26.5180   19.1850   30.9680 O.2   276  PHE276     -0.2864
    111  CB        26.1250   20.8090   33.3720 C.3   276  PHE276      0.0560
    112  CG        26.3160   21.6640   34.5690 C.ar  276  PHE276     -0.0200
    113  CD1       26.8520   22.9330   34.4480 C.ar  276  PHE276     -0.0042
    114  CD2       25.9400   21.2090   35.8200 C.ar  276  PHE276     -0.0042
    115  CE1       27.0060   23.7440   35.5580 C.ar  276  PHE276     -0.0003
    116  CE2       26.0900   22.0110   36.9380 C.ar  276  PHE276     -0.0003
    117  CZ        26.6240   23.2820   36.8070 C.ar  276  PHE276     -0.0000
    118  N         30.7310   22.3620   39.7350 N.3   295  SER295     -0.1202
    119  CA        29.3600   22.7730   39.3990 C.3   295  SER295      0.2020
    120  C         29.1300   24.2780   39.2910 C.2   295  SER295      0.2619
    121  O         30.0360   25.0180   38.9330 O.2   295  SER295     -0.2717
    122  CB        28.3600   22.1720   40.3840 C.3   295  SER295      0.2103
    123  OG        27.0420   22.5700   40.0560 O.3   295  SER295     -0.2182
    124  N         27.9170   24.7300   39.5930 N.am  296  CYS296     -0.1969
    125  CA        27.5780   26.1470   39.4900 C.3   296  CYS296      0.1712
    126  C         28.7140   27.0670   39.9150 C.2   296  CYS296      0.2296
    127  O         28.7520   28.2450   39.5510 O.2   296  CYS296     -0.2864
    128  CB        26.3590   26.4550   40.3480 C.3   296  CYS296      0.0983
    129  SG        25.0580   25.1950   40.2500 S.3   296  CYS296     -0.0798
    130  N         31.7260   26.9020   39.0140 N.3   298  VAL298     -0.1231
    131  CA        32.7520   27.0420   37.9890 C.3   298  VAL298      0.1692
    132  C         32.7960   28.5060   37.6160 C.2   298  VAL298      0.2592
    133  O         33.8480   29.0600   37.3040 O.2   298  VAL298     -0.2718
    134  CB        32.4340   26.2150   36.7280 C.3   298  VAL298      0.0266
    135  CG1       33.5180   26.4320   35.6950 C.3   298  VAL298      0.0020
    136  CG2       32.3660   24.7430   37.0680 C.3   298  VAL298      0.0020
    137  N         31.6370   29.1380   37.6730 N.am  299  CYS299     -0.1956
    138  CA        31.5460   30.5420   37.3350 C.3   299  CYS299      0.1843
    139  C         30.9830   31.2910   38.5420 C.2   299  CYS299      0.2625
    140  O         31.2060   32.4990   38.6990 O.2   299  CYS299     -0.2714
    141  CB        30.6350   30.7300   36.1050 C.3   299  CYS299      0.0997
    142  SG        30.4910   29.2870   34.9740 S.3   299  CYS299     -0.0797
    143  N         30.2480   30.5720   39.3890 N.am  300  HIS300     -0.1973
    144  CA        29.6790   31.1850   40.5820 C.3   300  HIS300      0.1656
    145  C         30.6960   31.1720   41.7110 C.2   300  HIS300      0.2291
    146  O         30.7430   30.2440   42.5190 O.2   300  HIS300     -0.2864
    147  CB        28.4020   30.4670   40.9980 C.3   300  HIS300      0.0771
    148  CG        27.1950   30.9480   40.2650 C.ar  300  HIS300      0.0820
    149  ND1       26.7640   32.2560   40.2710 N.ar  300  HIS300     -0.2267
    150  CD2       26.3470   30.2870   39.4390 C.ar  300  HIS300      0.1154
    151  CE1       25.6970   32.3570   39.4630 C.ar  300  HIS300      0.1986
    152  NE2       25.3940   31.1910   38.9240 N.ar  300  HIS300     -0.2212
    153  N         33.6100   36.0250   38.8100 N.3   304  ASP304     -0.1225
    154  CA        32.8550   35.9280   37.5670 C.3   304  ASP304      0.1805
    155  C         31.3870   36.2910   37.7670 C.2   304  ASP304      0.2598
    156  O         30.9780   37.4310   37.5290 O.2   304  ASP304     -0.2718
    157  CB        32.9760   34.5040   37.0300 C.3   304  ASP304      0.1424
    158  CG        34.4250   34.0270   36.9630 C.2   304  ASP304      0.3668
    159  OD1       34.6510   32.8320   36.6680 O.co2 304  ASP304     -0.2456
    160  OD2       35.3440   34.8450   37.2050 O.co2 304  ASP304     -0.2456
    161  N         30.5970   35.3130   38.1980 N.am  305  ALA305     -0.1966
    162  CA        29.1700   35.5230   38.4430 C.3   305  ALA305      0.1728
    163  C         29.0100   36.1550   39.8200 C.2   305  ALA305      0.2616
    164  O         28.9400   37.3830   39.9660 O.2   305  ALA305     -0.2715
    165  CB        28.4480   34.1930   38.4010 C.3   305  ALA305      0.0334
    166  N         28.9170   35.2810   40.8180 N.am  306  PHE306     -0.1974
    167  CA        28.8320   35.6500   42.2210 C.3   306  PHE306      0.1639
    168  C         29.0260   34.3600   43.0020 C.2   306  PHE306      0.2290
    169  O         28.7970   33.2730   42.4710 O.2   306  PHE306     -0.2864
    170  CB        27.5140   36.3710   42.5730 C.3   306  PHE306      0.0560
    171  CG        26.2680   35.5850   42.3090 C.ar  306  PHE306     -0.0200
    172  CD1       26.1820   34.2360   42.6160 C.ar  306  PHE306     -0.0042
    173  CD2       25.1420   36.2270   41.8190 C.ar  306  PHE306     -0.0042
    174  CE1       24.9930   33.5380   42.4400 C.ar  306  PHE306     -0.0003
    175  CE2       23.9490   35.5380   41.6410 C.ar  306  PHE306     -0.0003
    176  CZ        23.8750   34.1900   41.9540 C.ar  306  PHE306     -0.0000
    177  N         18.9820   33.5900   46.1170 N.3   314  LYS314     -0.1231
    178  CA        18.8420   33.6840   44.6610 C.3   314  LYS314      0.1693
    179  C         18.5960   32.3470   43.9690 C.2   314  LYS314      0.2592
    180  O         17.7500   32.2510   43.0740 O.2   314  LYS314     -0.2718
    181  CB        20.0790   34.3430   44.0480 C.3   314  LYS314      0.0285
    182  CG        20.1250   35.8590   44.1810 C.3   314  LYS314      0.0035
    183  CD        21.4150   36.4040   43.5830 C.3   314  LYS314      0.0206
    184  CE        21.5290   37.9110   43.7280 C.3   314  LYS314      0.1093
    185  NZ        22.8460   38.3880   43.2110 N.3   314  LYS314     -0.1314
    186  N         19.3350   31.3220   44.3800 N.am  315  CYS315     -0.1970
    187  CA        19.1990   29.9990   43.7860 C.3   315  CYS315      0.1712
    188  C         18.3940   29.0670   44.6620 C.2   315  CYS315      0.2296
    189  O         18.1380   27.9240   44.2880 O.2   315  CYS315     -0.2864
    190  CB        20.5690   29.3870   43.5760 C.3   315  CYS315      0.0983
    191  SG        21.8560   30.6490   43.6700 S.3   315  CYS315     -0.0798
@<TRIPOS>BOND
     1    78    77    2
     2    77    76    1
     3    86    87    1
     4    93    91   ar
     5    92    91   ar
     6    76    75    1
     7    76    79    1
     8    91    90    1
     9    75    69   am
    10    67    68    1
    11    70    69    2
    12    69    68    1
    13    87    90    1
    14    87    88    1
    15    68    71    1
    16    79    80    1
    17    88    94   am
    18    88    89    2
    19    60    59    2
    20    73    72    1
    21    73    74    1
    22    94    95    1
    23    71    72    1
    24    80    82   ar
    25    80    81   ar
    26    59    58    1
    27    82    84   ar
    28    97    96    2
    29    96    95    1
    30    81    83   ar
    31    95    98    1
    32    84    85   ar
    33    98    99    1
    34   110   109    2
    35    58    57    1
    36    58    61    1
    37    52    51    2
    38    83    85   ar
    39    49    50    1
    40    57    51   am
    41    51    50    1
    42    61    62    1
    43    50    53    1
    44   109   108    1
    45   100   101    1
    46   107   108    1
    47   107   102   am
    48    48    46   ar
    49   108   111    1
    50    62    63   ar
    51    62    64   ar
    52   111   112    1
    53   106   104    1
    54    53    54    1
    55    53    55    1
    56   101   104    1
    57   101   102    1
    58    43    44    2
    59    43    42    1
    60   104   105    1
    61    39    40   ar
    62    39    37   ar
    63    40    38   ar
    64    46    47   ar
    65    46    45    1
    66   102   103    2
    67    54    56    1
    68    63    65   ar
    69    64    66   ar
    70   113   112   ar
    71   113   115   ar
    72   112   114   ar
    73    42    45    1
    74    42    41    1
    75    37    35   ar
    76    38    36   ar
    77   142   141    1
    78    65    66   ar
    79    33    32    2
    80   115   117   ar
    81   135   134    1
    82   114   116   ar
    83    41    32   am
    84    35    36   ar
    85    35    34    1
    86   141   138    1
    87    32    31    1
    88   159   158   ar
    89   134   136    1
    90   134   131    1
    91   117   116   ar
    92   158   157    1
    93   158   160   ar
    94   157   154    1
    95    34    31    1
    96   133   132    2
    97   138   137    1
    98   138   139    1
    99   156   155    2
   100    31    30    1
   101   154   155    1
   102   154   153    1
   103   132   137   am
   104   132   131    1
   105   155   161   am
   106   131   130    1
   107    12    11    1
   108   161   162    1
   109   165   162    1
   110   162   163    1
   111   139   140    2
   112   139   143   am
   113    30    20   am
   114   152   150   ar
   115   152   151   ar
   116   121   120    2
   117    11     9   ar
   118    11    10   ar
   119   120   119    1
   120   120   124   am
   121   143   144    1
   122   119   118    1
   123   119   122    1
   124   150   148   ar
   125   151   149   ar
   126   125   124    1
   127   125   126    1
   128   125   128    1
   129   127   126    2
   130     9     7   ar
   131    20    21    2
   132    20    19    1
   133   163   164    2
   134   163   166   am
   135    10     8   ar
   136   123   122    1
   137   129   128    1
   138   148   149   ar
   139   148   147    1
   140   144   147    1
   141   144   145    1
   142     7     6   ar
   143    19    22    1
   144    19    18    1
   145   166   167    1
   146    22    23    1
   147     8     6   ar
   148     6     5    1
   149     1     2    1
   150   175   173   ar
   151   175   176   ar
   152    23    24   ar
   153    23    25   ar
   154   145   146    2
   155   173   171   ar
   156   176   174   ar
   157    24    26   ar
   158    16    15    2
   159    25    27   ar
   160    18    15   am
   161   167   170    1
   162   167   168    1
   163     2     5    1
   164     2     3    1
   165   171   170    1
   166   171   172   ar
   167   174   172   ar
   168   169   168    2
   169    15    14    1
   170    26    28   ar
   171    27    28   ar
   172    28    29    1
   173   180   179    2
   174   185   184    1
   175     3     4    2
   176   190   191    1
   177   190   187    1
   178   183   184    1
   179   183   182    1
   180   187   186    1
   181   187   188    1
   182    17    14    1
   183   179   186   am
   184   179   178    1
   185    14    13    1
   186   181   182    1
   187   181   178    1
   188   189   188    2
   189   178   177    1
