@<TRIPOS>MOLECULE
tmp/3ov0A06.pdb
 167 162 0 0 0
SMALL
GASTEIGER

@<TRIPOS>ATOM
      1  N         22.5460  -17.9390    1.3230 N.3    89  TYR89      -0.1241
      2  CA        23.5430  -16.8990    1.1710 C.3    89  TYR89       0.1605
      3  C         23.9380  -16.2820    2.5110 C.2    89  TYR89       0.2264
      4  O         23.1830  -15.5350    3.1410 O.2    89  TYR89      -0.2867
      5  CB        23.0610  -15.8380    0.2020 C.3    89  TYR89       0.0534
      6  CG        23.1300  -16.3110   -1.2320 C.ar   89  TYR89      -0.0201
      7  CD1       22.1480  -17.1510   -1.7650 C.ar   89  TYR89      -0.0009
      8  CD2       24.2020  -15.9520   -2.0540 C.ar   89  TYR89      -0.0009
      9  CE1       22.2370  -17.6110   -3.0940 C.ar   89  TYR89       0.0417
     10  CE2       24.2910  -16.4070   -3.3630 C.ar   89  TYR89       0.0417
     11  CZ        23.3110  -17.2320   -3.8750 C.ar   89  TYR89       0.1957
     12  OH        23.4100  -17.6440   -5.1830 O.3    89  TYR89      -0.2866
     13  N         20.9060  -14.1390    2.3470 N.3    97  ALA97      -0.1231
     14  CA        20.1220  -14.1230    1.1280 C.3    97  ALA97       0.1694
     15  C         19.6970  -15.5100    0.6820 C.2    97  ALA97       0.2592
     16  O         20.4190  -16.5000    0.8490 O.2    97  ALA97      -0.2718
     17  CB        20.8980  -13.4360    0.0430 C.3    97  ALA97       0.0304
     18  N         18.5120  -15.5690    0.0940 N.am   98  VAL98      -0.1966
     19  CA        17.9690  -16.8340   -0.3420 C.3    98  VAL98       0.1727
     20  C         17.3420  -16.8310   -1.7250 C.2    98  VAL98       0.2616
     21  O         16.5620  -15.9420   -2.0750 O.2    98  VAL98      -0.2715
     22  CB        16.9320  -17.3330    0.6850 C.3    98  VAL98       0.0290
     23  CG1       15.9430  -18.2910    0.0490 C.3    98  VAL98       0.0023
     24  CG2       17.6530  -18.0210    1.8230 C.3    98  VAL98       0.0023
     25  N         17.7120  -17.8410   -2.5050 N.am   99  PHE99      -0.1960
     26  CA        17.1760  -18.0380   -3.8390 C.3    99  PHE99       0.1771
     27  C         16.7490  -19.4960   -3.9550 C.2    99  PHE99       0.2620
     28  O         17.4850  -20.3950   -3.5510 O.2    99  PHE99      -0.2715
     29  CB        18.2140  -17.7550   -4.9150 C.3    99  PHE99       0.0574
     30  CG        17.8520  -18.3550   -6.2260 C.ar   99  PHE99      -0.0200
     31  CD1       16.9090  -17.7490   -7.0520 C.ar   99  PHE99      -0.0042
     32  CD2       18.3620  -19.6000   -6.5800 C.ar   99  PHE99      -0.0042
     33  CE1       16.4710  -18.3810   -8.2050 C.ar   99  PHE99      -0.0003
     34  CE2       17.9350  -20.2450   -7.7240 C.ar   99  PHE99      -0.0003
     35  CZ        16.9870  -19.6380   -8.5430 C.ar   99  PHE99      -0.0000
     36  N         15.5660  -19.7330   -4.5100 N.am  100  SER100     -0.1950
     37  CA        15.0950  -21.1000   -4.6590 C.3   100  SER100      0.1924
     38  C         14.4160  -21.3560   -6.0020 C.2   100  SER100      0.2314
     39  O         13.6380  -20.5370   -6.5040 O.2   100  SER100     -0.2863
     40  CB        14.1420  -21.4660   -3.5170 C.3   100  SER100      0.2116
     41  OG        13.8640  -22.8620   -3.5240 O.3   100  SER100     -0.2180
     42  N         10.1860  -21.5980   -7.2130 N.3   103  VAL103     -0.1231
     43  CA         9.3790  -20.4130   -7.4750 C.3   103  VAL103      0.1692
     44  C          9.9020  -19.6780   -8.7040 C.2   103  VAL103      0.2592
     45  O          9.3440  -18.6540   -9.1110 O.2   103  VAL103     -0.2718
     46  CB         9.4010  -19.4990   -6.2670 C.3   103  VAL103      0.0266
     47  CG1        8.5770  -18.2370   -6.4960 C.3   103  VAL103      0.0020
     48  CG2        8.8050  -20.2510   -5.0750 C.3   103  VAL103      0.0020
     49  N         10.9760  -20.2160   -9.2840 N.am  104  HIS104     -0.1976
     50  CA        11.6130  -19.6650  -10.4840 C.3   104  HIS104      0.1656
     51  C         11.4360  -20.5730  -11.7290 C.2   104  HIS104      0.2291
     52  O         11.3130  -20.0720  -12.8540 O.2   104  HIS104     -0.2864
     53  CB        13.1070  -19.4060  -10.2110 C.3   104  HIS104      0.0771
     54  CG        13.4190  -17.9850   -9.8320 C.ar  104  HIS104      0.0820
     55  ND1       12.8700  -17.3370   -8.7510 N.ar  104  HIS104     -0.2267
     56  CD2       14.2430  -17.0830  -10.4200 C.ar  104  HIS104      0.1154
     57  CE1       13.3720  -16.0980   -8.7260 C.ar  104  HIS104      0.1986
     58  NE2       14.2090  -15.8930   -9.7190 N.ar  104  HIS104     -0.2212
     59  N          8.3920  -20.0880  -14.5110 N.3   107  MET107     -0.1230
     60  CA         8.5260  -18.6810  -14.8940 C.3   107  MET107      0.1702
     61  C          9.1750  -18.6200  -16.2880 C.2   107  MET107      0.2592
     62  O          9.1400  -17.5910  -16.9700 O.2   107  MET107     -0.2718
     63  CB         9.3730  -17.9240  -13.8760 C.3   107  MET107      0.0401
     64  CG         9.5980  -16.4520  -14.2770 C.3   107  MET107      0.0596
     65  SD        10.8160  -15.5470  -13.3000 S.3   107  MET107     -0.1393
     66  CE         9.8500  -15.2360  -12.0030 C.3   107  MET107      0.0692
     67  N          9.7790  -19.7330  -16.6910 N.am  108  LEU108     -0.1980
     68  CA        10.3960  -19.8390  -18.0050 C.3   108  LEU108      0.1596
     69  C          9.7600  -21.0520  -18.7000 C.2   108  LEU108      0.2287
     70  O          9.3350  -20.9710  -19.8600 O.2   108  LEU108     -0.2864
     71  CB        11.9010  -20.0130  -17.8710 C.3   108  LEU108      0.0297
     72  CG        12.6420  -18.8980  -17.1450 C.3   108  LEU108      0.0022
     73  CD1       14.0890  -19.2640  -16.8910 C.3   108  LEU108      0.0001
     74  CD2       12.5750  -17.5860  -17.9050 C.3   108  LEU108      0.0001
     75  N         18.8210  -22.0830  -19.2310 N.3   114  THR114     -0.1203
     76  CA        18.7450  -20.6440  -19.5020 C.3   114  THR114      0.1994
     77  C         19.6680  -19.9330  -18.5280 C.2   114  THR114      0.2618
     78  O         20.2810  -18.9010  -18.8420 O.2   114  THR114     -0.2717
     79  CB        17.3260  -20.0800  -19.2890 C.3   114  THR114      0.1784
     80  OG1       16.3850  -20.8660  -20.0300 O.3   114  THR114     -0.2211
     81  CG2       17.2620  -18.6190  -19.7560 C.3   114  THR114      0.0376
     82  N         19.7470  -20.5200  -17.3360 N.am  115  CYS115     -0.1969
     83  CA        20.5600  -20.0120  -16.2430 C.3   115  CYS115      0.1712
     84  C         21.8630  -20.7630  -16.0840 C.2   115  CYS115      0.2296
     85  O         22.9250  -20.1540  -16.0220 O.2   115  CYS115     -0.2864
     86  CB        19.7790  -20.0880  -14.9260 C.3   115  CYS115      0.0983
     87  SG        18.8950  -18.5660  -14.4640 S.3   115  CYS115     -0.0798
     88  N         25.3110  -15.5870  -15.3140 N.3   121  ILE121     -0.1245
     89  CA        24.3740  -15.8380  -14.2240 C.3   121  ILE121      0.1561
     90  C         25.0610  -16.7540  -13.2200 C.2   121  ILE121      0.2260
     91  O         25.2960  -16.3690  -12.0790 O.2   121  ILE121     -0.2867
     92  CB        23.0860  -16.5460  -14.7160 C.3   121  ILE121      0.0252
     93  CG1       22.1230  -15.5290  -15.3150 C.3   121  ILE121      0.0019
     94  CG2       22.4150  -17.2970  -13.5710 C.3   121  ILE121      0.0019
     95  CD1       20.7770  -16.1160  -15.6710 C.3   121  ILE121      0.0001
     96  N         24.5540  -12.0080  -12.9380 N.3   137  SER137     -0.1202
     97  CA        23.7790  -12.8250  -11.9900 C.3   137  SER137      0.2020
     98  C         22.6150  -12.0900  -11.3720 C.2   137  SER137      0.2619
     99  O         22.6550  -10.8780  -11.2560 O.2   137  SER137     -0.2717
    100  CB        24.6720  -13.3390  -10.8620 C.3   137  SER137      0.2103
    101  OG        23.9220  -14.1260   -9.9480 O.3   137  SER137     -0.2182
    102  N         21.5890  -12.8290  -10.9570 N.am  138  CYS138     -0.1969
    103  CA        20.4120  -12.2210  -10.3310 C.3   138  CYS138      0.1712
    104  C         19.9180  -10.9960  -11.1020 C.2   138  CYS138      0.2296
    105  O         18.8070  -10.9990  -11.6270 O.2   138  CYS138     -0.2864
    106  CB        20.7160  -11.8060   -8.8790 C.3   138  CYS138      0.0983
    107  SG        20.5750  -13.0890   -7.5930 S.3   138  CYS138     -0.0798
    108  N         20.7900  -10.1920  -13.7370 N.3   140  ALA140     -0.1231
    109  CA        20.8900  -10.5680  -15.1380 C.3   140  ALA140      0.1694
    110  C         19.4960  -10.3180  -15.6210 C.2   140  ALA140      0.2592
    111  O         19.2820   -9.6520  -16.6240 O.2   140  ALA140     -0.2718
    112  CB        21.2250  -12.0300  -15.2630 C.3   140  ALA140      0.0304
    113  N         18.5530  -10.8590  -14.8640 N.am  141  CYS141     -0.1956
    114  CA        17.1430  -10.7020  -15.1410 C.3   141  CYS141      0.1843
    115  C         16.6040   -9.4580  -14.4250 C.2   141  CYS141      0.2625
    116  O         16.1970   -8.4840  -15.0710 O.2   141  CYS141     -0.2714
    117  CB        16.3860  -11.9270  -14.6550 C.3   141  CYS141      0.0997
    118  SG        17.0480  -13.4810  -15.2910 S.3   141  CYS141     -0.0797
    119  N         16.5890   -9.5150  -13.0900 N.am  142  HIS142     -0.1973
    120  CA        16.1080   -8.4190  -12.2360 C.3   142  HIS142      0.1656
    121  C         16.9090   -7.1680  -12.5990 C.2   142  HIS142      0.2291
    122  O         17.8200   -6.8000  -11.8590 O.2   142  HIS142     -0.2864
    123  CB        16.3710   -8.7290  -10.7480 C.3   142  HIS142      0.0771
    124  CG        15.7940  -10.0280  -10.2660 C.ar  142  HIS142      0.0820
    125  ND1       14.4540  -10.2530  -10.0660 N.ar  142  HIS142     -0.2267
    126  CD2       16.4150  -11.1760   -9.8990 C.ar  142  HIS142      0.1154
    127  CE1       14.3060  -11.5010   -9.5850 C.ar  142  HIS142      0.1986
    128  NE2       15.4630  -12.1160   -9.4640 N.ar  142  HIS142     -0.2212
    129  N         13.1850   -7.1180  -17.4900 N.3   146  MET146     -0.1230
    130  CA        12.5190   -8.4050  -17.3460 C.3   146  MET146      0.1702
    131  C         11.8720   -8.4890  -15.9820 C.2   146  MET146      0.2592
    132  O         10.7620   -9.0030  -15.8380 O.2   146  MET146     -0.2718
    133  CB        13.5040   -9.5620  -17.5080 C.3   146  MET146      0.0401
    134  CG        12.8300  -10.9200  -17.3870 C.3   146  MET146      0.0596
    135  SD        13.9540  -12.3220  -17.5040 S.3   146  MET146     -0.1393
    136  CE        12.7820  -13.7000  -17.2240 C.3   146  MET146      0.0692
    137  N         12.5850   -7.9800  -14.9840 N.am  147  ALA147     -0.1966
    138  CA        12.1030   -7.9860  -13.6070 C.3   147  ALA147      0.1728
    139  C         12.6350   -6.7900  -12.8230 C.2   147  ALA147      0.2616
    140  O         13.6750   -6.2150  -13.1610 O.2   147  ALA147     -0.2715
    141  CB        12.5020   -9.2880  -12.9110 C.3   147  ALA147      0.0334
    142  N         11.9070   -6.4350  -11.7690 N.am  148  PHE148     -0.1974
    143  CA        12.2490   -5.3090  -10.9020 C.3   148  PHE148      0.1639
    144  C         13.7470   -5.1160  -10.7170 C.2   148  PHE148      0.2290
    145  O         14.5080   -6.0840  -10.6040 O.2   148  PHE148     -0.2864
    146  CB        11.5680   -5.4780   -9.5390 C.3   148  PHE148      0.0560
    147  CG        12.0290   -6.6840   -8.7650 C.ar  148  PHE148     -0.0200
    148  CD1       13.2540   -6.6790   -8.1050 C.ar  148  PHE148     -0.0042
    149  CD2       11.2060   -7.8020   -8.6450 C.ar  148  PHE148     -0.0042
    150  CE1       13.6490   -7.7630   -7.3330 C.ar  148  PHE148     -0.0003
    151  CE2       11.5920   -8.8950   -7.8740 C.ar  148  PHE148     -0.0003
    152  CZ        12.8150   -8.8740   -7.2120 C.ar  148  PHE148     -0.0000
    153  N         13.1870   -8.5720   -0.0670 N.3   156  LYS156     -0.1231
    154  CA        12.5810   -9.6090   -0.8900 C.3   156  LYS156      0.1693
    155  C         13.5550  -10.7890   -1.0480 C.2   156  LYS156      0.2592
    156  O         13.1490  -11.9580   -0.9670 O.2   156  LYS156     -0.2718
    157  CB        12.1990   -9.0320   -2.2540 C.3   156  LYS156      0.0285
    158  CG        11.5000   -9.9560   -3.2100 C.3   156  LYS156      0.0035
    159  CD        10.0990  -10.1850   -2.7410 C.3   156  LYS156      0.0206
    160  CE         9.2670  -10.8770   -3.8260 C.3   156  LYS156      0.1093
    161  NZ         9.6260  -12.2760   -3.9770 N.3   156  LYS156     -0.1314
    162  N         14.8380  -10.4730   -1.2360 N.am  157  CYS157     -0.1970
    163  CA        15.8760  -11.4910   -1.4170 C.3   157  CYS157      0.1712
    164  C         16.6800  -11.7660   -0.1440 C.2   157  CYS157      0.2296
    165  O         16.9570  -12.9220    0.2010 O.2   157  CYS157     -0.2864
    166  CB        16.8570  -11.0580   -2.5080 C.3   157  CYS157      0.0983
    167  SG        16.1290  -10.2310   -3.9620 S.3   157  CYS157     -0.0798
@<TRIPOS>BOND
     1    80    79    1
     2    70    69    2
     3    81    79    1
     4    76    79    1
     5    76    75    1
     6    76    77    1
     7    78    77    2
     8    69    68    1
     9    77    82   am
    10    68    71    1
    11    68    67    1
    12    74    72    1
    13    71    72    1
    14   133   134    1
    15   133   130    1
    16   135   134    1
    17   135   136    1
    18   129   130    1
    19   130   131    1
    20    82    83    1
    21    72    73    1
    22    62    61    2
    23    67    61   am
    24   111   110    2
    25    61    60    1
    26    83    84    1
    27    83    86    1
    28    84    85    2
    29   131   132    2
    30   131   137   am
    31    95    93    1
    32   110   109    1
    33   110   113   am
    34    93    92    1
    35    88    89    1
    36   118   117    1
    37   112   109    1
    38   114   113    1
    39   114   117    1
    40   114   115    1
    41   109   108    1
    42   116   115    2
    43   137   138    1
    44    86    87    1
    45    60    59    1
    46    60    63    1
    47    92    89    1
    48    92    94    1
    49   115   119   am
    50    64    63    1
    51    64    65    1
    52    89    90    1
    53   138   141    1
    54   138   139    1
    55    65    66    1
    56    90    91    2
    57   140   139    2
    58   119   120    1
    59    96    97    1
    60    52    51    2
    61   139   142   am
    62   121   120    1
    63   121   122    2
    64   120   123    1
    65    97    98    1
    66    97   100    1
    67   142   143    1
    68    51    50    1
    69   105   104    2
    70    98    99    2
    71    98   102   am
    72   104   103    1
    73   102   103    1
    74   143   144    1
    75   143   146    1
    76   100   101    1
    77   123   124    1
    78   144   145    2
    79    50    53    1
    80    50    49    1
    81    56    54   ar
    82    56    58   ar
    83   103   106    1
    84   124   125   ar
    85   124   126   ar
    86    53    54    1
    87   125   127   ar
    88   126   128   ar
    89    54    55   ar
    90    58    57   ar
    91   127   128   ar
    92   146   147    1
    93    49    44   am
    94    45    44    2
    95   106   107    1
    96   147   149   ar
    97   147   148   ar
    98    55    57   ar
    99    44    43    1
   100   149   151   ar
   101    35    33   ar
   102    35    34   ar
   103    33    31   ar
   104   148   150   ar
   105   151   152   ar
   106    34    32   ar
   107    43    42    1
   108    43    46    1
   109   150   152   ar
   110    31    30   ar
   111    32    30   ar
   112    39    38    2
   113    47    46    1
   114    46    48    1
   115    30    29    1
   116    38    37    1
   117    12    11    1
   118    29    26    1
   119    37    36    1
   120    37    40    1
   121    36    27   am
   122   161   160    1
   123   167   166    1
   124    27    26    1
   125    27    28    2
   126    11    10   ar
   127    11     9   ar
   128    26    25    1
   129   160   159    1
   130    41    40    1
   131    10     8   ar
   132   158   159    1
   133   158   157    1
   134     9     7   ar
   135   166   163    1
   136    25    20   am
   137   157   154    1
   138    21    20    2
   139     8     6   ar
   140     7     6   ar
   141    20    19    1
   142   163   162    1
   143   163   164    1
   144   162   155   am
   145     6     5    1
   146   155   156    2
   147   155   154    1
   148   154   153    1
   149    19    18    1
   150    19    22    1
   151   164   165    2
   152    17    14    1
   153    23    22    1
   154    18    15   am
   155     5     2    1
   156    15    16    2
   157    15    14    1
   158    22    24    1
   159    14    13    1
   160     2     1    1
   161     2     3    1
   162     3     4    2
