@<TRIPOS>MOLECULE
tmp/3ov0A02.pdb
 202 198 0 0 0
SMALL
GASTEIGER

@<TRIPOS>ATOM
      1  N         31.9320  -59.6730   -5.4540 N.3     1  LYS1       -0.1245
      2  CA        32.9250  -58.6410   -5.0190 C.3     1  LYS1        0.1561
      3  C         32.3300  -57.6900   -3.9680 C.2     1  LYS1        0.2260
      4  O         33.0070  -57.3200   -2.9980 O.2     1  LYS1       -0.2867
      5  CB        33.4110  -57.8490   -6.2350 C.3     1  LYS1        0.0271
      6  CG        34.4230  -56.7740   -5.7930 C.3     1  LYS1        0.0035
      7  CD        35.2440  -56.3310   -7.0060 C.3     1  LYS1        0.0206
      8  CE        35.7140  -54.8960   -6.9200 C.3     1  LYS1        0.1093
      9  NZ        34.5110  -53.9880   -6.9160 N.3     1  LYS1       -0.1314
     10  N         29.8810  -54.0930   -3.8170 N.3     3  THR3       -0.1203
     11  CA        30.1000  -52.6450   -3.8880 C.3     3  THR3        0.1994
     12  C         28.7450  -51.9510   -4.0770 C.2     3  THR3        0.2618
     13  O         27.8210  -52.5490   -4.6310 O.2     3  THR3       -0.2717
     14  CB        31.0340  -52.2700   -5.0500 C.3     3  THR3        0.1784
     15  OG1       32.3470  -52.7840   -4.7840 O.3     3  THR3       -0.2211
     16  CG2       31.1000  -50.7560   -5.2040 C.3     3  THR3        0.0376
     17  N         28.6250  -50.6980   -3.6330 N.am    4  LYS4       -0.1965
     18  CA        27.3480  -49.9890   -3.7470 C.3     4  LYS4        0.1728
     19  C         27.4140  -48.4610   -3.7860 C.2     4  LYS4        0.2616
     20  O         28.4300  -47.8700   -3.4360 O.2     4  LYS4       -0.2715
     21  CB        26.4280  -50.4350   -2.6070 C.3     4  LYS4        0.0311
     22  CG        26.9860  -50.2300   -1.2170 C.3     4  LYS4        0.0038
     23  CD        26.0380  -50.6440   -0.1080 C.3     4  LYS4        0.0206
     24  CE        26.5900  -50.0240    1.1580 C.3     4  LYS4        0.1093
     25  NZ        26.0840  -50.6140    2.3700 N.3     4  LYS4       -0.1314
     26  N         26.2990  -47.8530   -4.1990 N.am    5  ASN5       -0.1958
     27  CA        26.1030  -46.4010   -4.3250 C.3     5  ASN5        0.1819
     28  C         27.1250  -45.4710   -3.6840 C.2     5  ASN5        0.2621
     29  O         27.7130  -45.7920   -2.6540 O.2     5  ASN5       -0.2715
     30  CB        24.7310  -46.0230   -3.7760 C.3     5  ASN5        0.1195
     31  CG        23.6160  -46.8620   -4.3640 C.2     5  ASN5        0.2630
     32  OD1       23.8230  -48.0190   -4.7380 O.2     5  ASN5       -0.2716
     33  ND2       22.4170  -46.2860   -4.4400 N.am    5  ASN5       -0.0877
     34  N         27.3080  -44.3070   -4.3070 N.am    6  VAL6       -0.1964
     35  CA        28.2250  -43.2620   -3.8440 C.3     6  VAL6        0.1712
     36  C         27.6240  -41.9320   -4.2530 C.2     6  VAL6        0.2458
     37  O         27.4700  -41.6480   -5.4370 O.2     6  VAL6       -0.2730
     38  CB        29.6280  -43.3510   -4.4820 C.3     6  VAL6        0.0289
     39  CG1       30.3360  -41.9990   -4.3850 C.3     6  VAL6        0.0023
     40  CG2       30.4480  -44.3970   -3.7530 C.3     6  VAL6        0.0023
     41  N         27.2790  -41.0940   -3.2750 N.am    7  PRO7       -0.2716
     42  CA        26.6850  -39.7950   -3.5850 C.3     7  PRO7        0.1536
     43  C         27.6740  -38.6800   -3.9150 C.2     7  PRO7        0.2598
     44  O         28.8800  -38.8020   -3.6790 O.2     7  PRO7       -0.2715
     45  CB        25.8390  -39.5120   -2.3440 C.3     7  PRO7        0.0310
     46  CG        26.6580  -40.1010   -1.2520 C.3     7  PRO7        0.0237
     47  CD        27.1940  -41.3940   -1.8340 C.3     7  PRO7        0.0939
     48  N         27.1380  -37.6100   -4.5030 N.am    8  PHE8       -0.1974
     49  CA        27.9180  -36.4390   -4.8760 C.3     8  PHE8        0.1639
     50  C         27.3760  -35.2480   -4.1050 C.2     8  PHE8        0.2290
     51  O         26.2270  -34.8260   -4.2940 O.2     8  PHE8       -0.2864
     52  CB        27.8560  -36.1930   -6.3920 C.3     8  PHE8        0.0560
     53  CG        28.7560  -37.1010   -7.1810 C.ar    8  PHE8       -0.0200
     54  CD1       28.2830  -38.3040   -7.6980 C.ar    8  PHE8       -0.0042
     55  CD2       30.1050  -36.7930   -7.3270 C.ar    8  PHE8       -0.0042
     56  CE1       29.1430  -39.1880   -8.3420 C.ar    8  PHE8       -0.0003
     57  CE2       30.9690  -37.6630   -7.9640 C.ar    8  PHE8       -0.0003
     58  CZ        30.4890  -38.8660   -8.4720 C.ar    8  PHE8       -0.0000
     59  N         25.1140  -41.5190   -7.4340 N.3    18  PHE18      -0.1241
     60  CA        25.5700  -42.3760   -8.5130 C.3    18  PHE18       0.1605
     61  C         25.0500  -43.7390   -8.1200 C.2    18  PHE18       0.2264
     62  O         24.8030  -43.9720   -6.9470 O.2    18  PHE18      -0.2867
     63  CB        27.0920  -42.4370   -8.5900 C.3    18  PHE18       0.0534
     64  CG        27.5830  -43.4400   -9.5880 C.ar   18  PHE18      -0.0203
     65  CD1       27.4860  -43.1830  -10.9480 C.ar   18  PHE18      -0.0042
     66  CD2       28.0540  -44.6790   -9.1750 C.ar   18  PHE18      -0.0042
     67  CE1       27.8390  -44.1470  -11.8800 C.ar   18  PHE18      -0.0003
     68  CE2       28.4080  -45.6500  -10.1010 C.ar   18  PHE18      -0.0003
     69  CZ        28.3020  -45.3850  -11.4550 C.ar   18  PHE18      -0.0000
     70  N         26.0540  -47.7270   -8.6550 N.3    20  HIS20      -0.1241
     71  CA        26.7910  -48.8680   -9.1790 C.3    20  HIS20       0.1621
     72  C         25.8120  -49.9580   -9.5990 C.2    20  HIS20       0.2264
     73  O         25.9130  -50.5080  -10.6900 O.2    20  HIS20      -0.2867
     74  CB        27.7340  -49.4400   -8.1190 C.3    20  HIS20       0.0745
     75  CG        29.0690  -48.7710   -8.0740 C.ar   20  HIS20       0.0817
     76  ND1       29.2510  -47.4170   -7.9040 N.ar   20  HIS20      -0.2268
     77  CD2       30.3120  -49.2930   -8.2170 C.ar   20  HIS20       0.1154
     78  CE1       30.5640  -47.1640   -7.9560 C.ar   20  HIS20       0.1986
     79  NE2       31.2570  -48.2680   -8.1440 N.ar   20  HIS20      -0.2212
     80  N         24.8170  -49.2960  -13.4890 N.3    23  HIS23      -0.1226
     81  CA        25.9460  -49.3570  -14.4010 C.3    23  HIS23       0.1752
     82  C         26.8280  -50.5570  -14.1570 C.2    23  HIS23       0.2595
     83  O         27.9990  -50.5530  -14.5060 O.2    23  HIS23      -0.2718
     84  CB        26.7640  -48.0880  -14.2720 C.3    23  HIS23       0.0759
     85  CG        25.9300  -46.8530  -14.2970 C.ar   23  HIS23       0.0818
     86  ND1       24.7110  -46.7480  -13.6680 N.ar   23  HIS23      -0.2268
     87  CD2       26.1640  -45.6400  -14.8570 C.ar   23  HIS23       0.1154
     88  CE1       24.2610  -45.5070  -13.8580 C.ar   23  HIS23       0.1986
     89  NE2       25.1070  -44.7950  -14.5760 N.ar   23  HIS23      -0.2212
     90  N         26.2690  -51.5800  -13.5340 N.am   24  LEU24      -0.1980
     91  CA        27.0090  -52.7960  -13.2850 C.3    24  LEU24       0.1596
     92  C         26.3260  -53.8600  -14.1070 C.2    24  LEU24       0.2287
     93  O         26.9740  -54.5470  -14.8960 O.2    24  LEU24      -0.2864
     94  CB        26.9690  -53.1760  -11.8050 C.3    24  LEU24       0.0297
     95  CG        27.9530  -52.4360  -10.8970 C.3    24  LEU24       0.0022
     96  CD1       27.7920  -52.9150   -9.4580 C.3    24  LEU24       0.0001
     97  CD2       29.3770  -52.6720  -11.3910 C.3    24  LEU24       0.0001
     98  N         27.4110  -53.1000  -17.8320 N.3    27  TYR27      -0.1241
     99  CA        28.7500  -53.4530  -18.2680 C.3    27  TYR27       0.1605
    100  C         29.2690  -54.8180  -17.8450 C.2    27  TYR27       0.2264
    101  O         30.2940  -55.2820  -18.3740 O.2    27  TYR27      -0.2867
    102  CB        29.7040  -52.3880  -17.7990 C.3    27  TYR27       0.0534
    103  CG        29.4760  -51.0790  -18.4940 C.ar   27  TYR27      -0.0201
    104  CD1       28.1860  -50.5630  -18.6420 C.ar   27  TYR27      -0.0009
    105  CD2       30.5550  -50.3170  -18.9540 C.ar   27  TYR27      -0.0009
    106  CE1       27.9880  -49.3430  -19.2130 C.ar   27  TYR27       0.0417
    107  CE2       30.3540  -49.0890  -19.5260 C.ar   27  TYR27       0.0417
    108  CZ        29.0750  -48.6020  -19.6480 C.ar   27  TYR27       0.1957
    109  OH        28.8920  -47.3360  -20.1680 O.3    27  TYR27      -0.2866
    110  N         30.1940  -56.2970  -14.3750 N.3    29  ASN29      -0.1225
    111  CA        31.3220  -56.3440  -13.4320 C.3    29  ASN29       0.1785
    112  C         32.6720  -55.8520  -13.9240 C.2    29  ASN29       0.2597
    113  O         33.6820  -56.0050  -13.2280 O.2    29  ASN29      -0.2718
    114  CB        31.4850  -57.7800  -12.8490 C.3    29  ASN29       0.1169
    115  CG        30.4380  -58.1550  -11.8740 C.2    29  ASN29       0.2627
    116  OD1       30.3770  -57.5090  -10.8200 O.2    29  ASN29      -0.2716
    117  ND2       29.6300  -59.1070  -12.1540 N.am   29  ASN29      -0.0877
    118  N         32.7030  -55.2850  -15.1200 N.am   30  ASN30      -0.1960
    119  CA        33.9370  -54.7490  -15.6380 C.3    30  ASN30       0.1819
    120  C         34.1340  -53.4860  -14.8200 C.2    30  ASN30       0.2621
    121  O         33.2180  -52.6720  -14.6780 O.2    30  ASN30      -0.2715
    122  CB        33.8060  -54.3690  -17.1030 C.3    30  ASN30       0.1195
    123  CG        35.1510  -54.1040  -17.7440 C.2    30  ASN30       0.2630
    124  OD1       36.2100  -54.6100  -17.1170 O.2    30  ASN30      -0.2716
    125  ND2       35.2420  -53.4690  -18.7980 N.am   30  ASN30      -0.0877
    126  N         35.3270  -53.3190  -14.2760 N.am   31  CYS31      -0.1968
    127  CA        35.5930  -52.1480  -13.4640 C.3    31  CYS31       0.1712
    128  C         36.5130  -51.1040  -14.1060 C.2    31  CYS31       0.2296
    129  O         36.1490  -49.9280  -14.1960 O.2    31  CYS31      -0.2864
    130  CB        36.1830  -52.5760  -12.1220 C.3    31  CYS31       0.0983
    131  SG        35.1120  -53.6160  -11.0570 S.3    31  CYS31      -0.0798
    132  N         36.9890  -49.6100  -16.5410 N.3    33  ILE33      -0.1231
    133  CA        36.3950  -48.5230  -17.3060 C.3    33  ILE33       0.1692
    134  C         36.3580  -47.1800  -16.5700 C.2    33  ILE33       0.2592
    135  O         37.2630  -46.3540  -16.7370 O.2    33  ILE33      -0.2718
    136  CB        34.9650  -48.8810  -17.7670 C.3    33  ILE33       0.0266
    137  CG1       34.9720  -50.2140  -18.5140 C.3    33  ILE33       0.0019
    138  CG2       34.4440  -47.8030  -18.6990 C.3    33  ILE33       0.0020
    139  CD1       33.6570  -50.5330  -19.2180 C.3    33  ILE33       0.0001
    140  N         35.3210  -46.9570  -15.7650 N.am   34  CYS34      -0.1956
    141  CA        35.1940  -45.6880  -15.0580 C.3    34  CYS34       0.1843
    142  C         36.2680  -45.3960  -14.0180 C.2    34  CYS34       0.2625
    143  O         36.3870  -44.2510  -13.5760 O.2    34  CYS34      -0.2714
    144  CB        33.8390  -45.5850  -14.3580 C.3    34  CYS34       0.0997
    145  SG        32.4680  -46.4730  -15.1440 S.3    34  CYS34      -0.0797
    146  N         37.0470  -46.3960  -13.6080 N.am   35  HIS35      -0.1973
    147  CA        38.0350  -46.1170  -12.5780 C.3    35  HIS35       0.1656
    148  C         39.4960  -45.9990  -12.9600 C.2    35  HIS35       0.2291
    149  O         40.3120  -45.6560  -12.0960 O.2    35  HIS35      -0.2864
    150  CB        37.8630  -47.0880  -11.4000 C.3    35  HIS35       0.0771
    151  CG        36.6190  -46.8340  -10.6040 C.ar   35  HIS35       0.0820
    152  ND1       36.3230  -45.6320  -10.0010 N.ar   35  HIS35      -0.2267
    153  CD2       35.5410  -47.6270  -10.3820 C.ar   35  HIS35       0.1154
    154  CE1       35.1060  -45.7320   -9.4590 C.ar   35  HIS35       0.1986
    155  NE2       34.5900  -46.9260   -9.6620 N.ar   35  HIS35      -0.2212
    156  N         37.1580  -41.7920  -13.5050 N.3    39  PHE39      -0.1241
    157  CA        37.1640  -41.4140  -12.0950 C.3    39  PHE39       0.1605
    158  C         38.4170  -41.9620  -11.4160 C.2    39  PHE39       0.2264
    159  O         38.5660  -43.1760  -11.2520 O.2    39  PHE39      -0.2867
    160  CB        35.9110  -41.9440  -11.4210 C.3    39  PHE39       0.0534
    161  CG        34.6510  -41.4170  -12.0230 C.ar   39  PHE39      -0.0203
    162  CD1       33.9390  -42.1670  -12.9480 C.ar   39  PHE39      -0.0042
    163  CD2       34.1870  -40.1500  -11.6820 C.ar   39  PHE39      -0.0042
    164  CE1       32.7750  -41.6590  -13.5270 C.ar   39  PHE39      -0.0003
    165  CE2       33.0250  -39.6330  -12.2560 C.ar   39  PHE39      -0.0003
    166  CZ        32.3180  -40.3870  -13.1800 C.ar   39  PHE39      -0.0000
    167  N         39.8530  -41.9710   -8.1770 N.3    41  LEU41      -0.1245
    168  CA        39.5960  -42.7740   -6.9830 C.3    41  LEU41       0.1561
    169  C         40.7550  -42.6130   -6.0090 C.2    41  LEU41       0.2260
    170  O         40.6000  -42.8260   -4.8080 O.2    41  LEU41      -0.2867
    171  CB        39.4100  -44.2490   -7.3350 C.3    41  LEU41       0.0270
    172  CG        38.6660  -45.0780   -6.2990 C.3    41  LEU41       0.0019
    173  CD1       37.3220  -44.4540   -5.9890 C.3    41  LEU41       0.0001
    174  CD2       38.4730  -46.4650   -6.8480 C.3    41  LEU41       0.0001
    175  N         40.6330  -38.0860   -6.9580 N.3    44  PRO44      -0.2102
    176  CA        39.4830  -37.5670   -7.7150 C.3    44  PRO44       0.1504
    177  C         39.2950  -36.0420   -7.7400 C.2    44  PRO44       0.2575
    178  O         39.9350  -35.3170   -6.9750 O.2    44  PRO44      -0.2718
    179  CB        38.2960  -38.3360   -7.1060 C.3    44  PRO44       0.0282
    180  CG        38.7280  -38.5560   -5.7140 C.3    44  PRO44       0.0208
    181  CD        40.1570  -38.9870   -5.8950 C.3    44  PRO44       0.0893
    182  N         38.4530  -35.5570   -8.6540 N.am   45  LYS45      -0.1980
    183  CA        38.2280  -34.1260   -8.7530 C.3    45  LYS45       0.1596
    184  C         36.7690  -33.7730   -8.8290 C.2    45  LYS45       0.2287
    185  O         35.9070  -34.6430   -8.9160 O.2    45  LYS45      -0.2864
    186  CB        38.9150  -33.5440   -9.9770 C.3    45  LYS45       0.0298
    187  CG        40.4290  -33.6820   -9.9880 C.3    45  LYS45       0.0038
    188  CD        41.0510  -32.6530  -10.9280 C.3    45  LYS45       0.0206
    189  CE        40.7410  -31.2340  -10.4460 C.3    45  LYS45       0.1093
    190  NZ        41.4010  -30.1860  -11.2640 N.3    45  LYS45      -0.1314
    191  N         30.8840  -37.9950  -16.1790 N.3    58  CYS58      -0.1235
    192  CA        29.6970  -38.6430  -16.6970 C.3    58  CYS58       0.1677
    193  C         29.5020  -38.1420  -18.1280 C.2    58  CYS58       0.2270
    194  O         28.7210  -38.7080  -18.9030 O.2    58  CYS58      -0.2867
    195  CB        28.4860  -38.2510  -15.8400 C.3    58  CYS58       0.0956
    196  SG        28.7810  -38.1560  -14.0410 S.3    58  CYS58      -0.0801
    197  N         29.9850  -40.5580  -21.3500 N.3    61  CYS61      -0.1235
    198  CA        29.1080  -41.6930  -21.5700 C.3    61  CYS61       0.1677
    199  C         27.6780  -41.2460  -21.5850 C.2    61  CYS61       0.2270
    200  O         26.7970  -41.9990  -21.9890 O.2    61  CYS61      -0.2867
    201  CB        29.2470  -42.7300  -20.4710 C.3    61  CYS61       0.0956
    202  SG        30.5790  -43.9610  -20.6160 S.3    61  CYS61      -0.0801
@<TRIPOS>BOND
     1   200   199    2
     2   199   198    1
     3   198   197    1
     4   198   201    1
     5   202   201    1
     6   109   108    1
     7   108   107   ar
     8   108   106   ar
     9   107   105   ar
    10   139   137    1
    11   106   104   ar
    12   105   103   ar
    13   194   193    2
    14   125   123   am
    15   138   136    1
    16   104   103   ar
    17   137   136    1
    18   103   102    1
    19   101   100    2
    20    99   100    1
    21    99    98    1
    22    99   102    1
    23   193   192    1
    24   136   133    1
    25   123   124    2
    26   123   122    1
    27   133   134    1
    28   133   132    1
    29   122   119    1
    30   135   134    2
    31   192   191    1
    32   192   195    1
    33   134   140   am
    34   195   196    1
    35   140   141    1
    36   119   118    1
    37   119   120    1
    38   145   144    1
    39   118   112   am
    40   141   144    1
    41   141   142    1
    42    93    92    2
    43    87    89   ar
    44    87    85   ar
    45   120   121    2
    46   120   126   am
    47    89    88   ar
    48    83    82    2
    49    81    84    1
    50    81    82    1
    51    81    80    1
    52   110   111    1
    53    85    84    1
    54    85    86   ar
    55   126   127    1
    56   129   128    2
    57    82    90   am
    58    92    91    1
    59   128   127    1
    60   142   146   am
    61   142   143    2
    62   112   111    1
    63   112   113    2
    64    88    86   ar
    65   146   147    1
    66    90    91    1
    67   164   166   ar
    68   164   162   ar
    69   156   157    1
    70   127   130    1
    71   111   114    1
    72    91    94    1
    73   166   165   ar
    74   148   147    1
    75   148   149    2
    76   162   161   ar
    77   114   115    1
    78   147   150    1
    79   165   163   ar
    80   117   115   am
    81   130   131    1
    82   157   160    1
    83   157   158    1
    84   161   163   ar
    85   161   160    1
    86    67    69   ar
    87    67    65   ar
    88   115   116    2
    89    94    95    1
    90    69    68   ar
    91   158   159    2
    92   150   151    1
    93    97    95    1
    94   190   189    1
    95    65    64   ar
    96   188   189    1
    97   188   187    1
    98    95    96    1
    99    73    72    2
   100   151   153   ar
   101   151   152   ar
   102   153   155   ar
   103    68    66   ar
   104   152   154   ar
   105   187   186    1
   106   186   183    1
   107   155   154   ar
   108    72    71    1
   109    64    66   ar
   110    64    63    1
   111    71    70    1
   112    71    74    1
   113   185   184    2
   114   184   183    1
   115   183   182    1
   116   182   177   am
   117    63    60    1
   118    60    61    1
   119    60    59    1
   120    58    56   ar
   121    58    57   ar
   122    56    54   ar
   123    77    79   ar
   124    77    75   ar
   125   167   168    1
   126    79    78   ar
   127    61    62    2
   128    74    75    1
   129    75    76   ar
   130    57    55   ar
   131    78    76   ar
   132   177   176    1
   133   177   178    2
   134   176   179    1
   135   176   175    1
   136    54    53   ar
   137   171   168    1
   138   171   172    1
   139    55    53   ar
   140    53    52    1
   141   179   180    1
   142     7     8    1
   143     7     6    1
   144   168   169    1
   145   175   181    1
   146     8     9    1
   147   174   172    1
   148    52    49    1
   149   172   173    1
   150     5     6    1
   151     5     2    1
   152   169   170    2
   153   181   180    1
   154     1     2    1
   155    37    36    2
   156    16    14    1
   157    14    15    1
   158    14    11    1
   159     2     3    1
   160    49    48    1
   161    49    50    1
   162    32    31    2
   163    13    12    2
   164    48    43   am
   165    38    39    1
   166    38    35    1
   167    38    40    1
   168    33    31   am
   169    31    30    1
   170    27    26    1
   171    27    30    1
   172    27    28    1
   173    34    35    1
   174    34    28   am
   175    51    50    2
   176    36    35    1
   177    36    41   am
   178    26    19   am
   179    12    11    1
   180    12    17   am
   181     3     4    2
   182    43    44    2
   183    43    42    1
   184    11    10    1
   185    19    18    1
   186    19    20    2
   187    18    17    1
   188    18    21    1
   189    28    29    2
   190    42    41    1
   191    42    45    1
   192    41    47    1
   193    21    22    1
   194    45    46    1
   195    47    46    1
   196    22    23    1
   197    23    24    1
   198    24    25    1
