@<TRIPOS>MOLECULE
tmp/3ov0A08.pdb
 193 191 0 0 0
SMALL
GASTEIGER

@<TRIPOS>ATOM
      1  N         15.3760   -5.1410   -1.3040 N.3   154  CYS154     -0.1235
      2  CA        16.3920   -5.8900   -0.5800 C.3   154  CYS154      0.1677
      3  C         15.8640   -6.9230    0.4060 C.2   154  CYS154      0.2270
      4  O         16.5090   -7.9430    0.6610 O.2   154  CYS154     -0.2867
      5  CB        17.2920   -4.9060    0.1360 C.3   154  CYS154      0.0956
      6  SG        17.6700   -3.4970   -0.9390 S.3   154  CYS154     -0.0801
      7  N         16.3670   -7.2820    6.0850 N.3   161  MET161     -0.1230
      8  CA        16.7070   -5.9950    5.4800 C.3   161  MET161      0.1702
      9  C         15.5780   -4.9540    5.3910 C.2   161  MET161      0.2593
     10  O         15.4550   -4.1120    6.2730 O.2   161  MET161     -0.2718
     11  CB        17.2970   -6.2100    4.0860 C.3   161  MET161      0.0401
     12  CG        18.7170   -5.6680    3.9030 C.3   161  MET161      0.0596
     13  SD        20.0090   -6.9100    4.2070 S.3   161  MET161     -0.1393
     14  CE        21.4610   -6.0400    3.6260 C.3   161  MET161      0.0692
     15  N         14.7670   -5.0070    4.3350 N.am  162  THR162     -0.1940
     16  CA        13.6690   -4.0500    4.1270 C.3   162  THR162      0.2013
     17  C         13.6590   -2.9380    5.1630 C.2   162  THR162      0.2484
     18  O         13.1800   -3.1200    6.2740 O.2   162  THR162     -0.2729
     19  CB        12.2760   -4.7290    4.1490 C.3   162  THR162      0.1807
     20  OG1       12.1760   -5.6740    3.0740 O.3   162  THR162     -0.2208
     21  CG2       11.1770   -3.6810    3.9770 C.3   162  THR162      0.0379
     22  N         14.1790   -1.7650    4.8010 N.am  163  PRO163     -0.2715
     23  CA        14.2700   -0.5740    5.6510 C.3   163  PRO163      0.1521
     24  C         12.9630   -0.0410    6.2530 C.2   163  PRO163      0.2440
     25  O         11.8930   -0.1380    5.6380 O.2   163  PRO163     -0.2731
     26  CB        14.9290    0.4490    4.7270 C.3   163  PRO163      0.0310
     27  CG        14.4060    0.0570    3.3950 C.3   163  PRO163      0.0237
     28  CD        14.5930   -1.4410    3.4290 C.3   163  PRO163      0.0939
     29  N         13.0480    0.5230    7.4790 N.am  164  PRO164     -0.2727
     30  CA        11.9430    1.1080    8.2500 C.3   164  PRO164      0.1402
     31  C         11.7580    2.5630    7.8600 C.2   164  PRO164      0.2269
     32  O         12.7320    3.2570    7.6090 O.2   164  PRO164     -0.2865
     33  CB        12.4220    0.9900    9.6910 C.3   164  PRO164      0.0296
     34  CG        13.5170   -0.0570    9.6370 C.3   164  PRO164      0.0237
     35  CD        14.2000    0.2840    8.3650 C.3   164  PRO164      0.0939
     36  N         12.8720    5.4450   12.5020 N.3   167  VAL167     -0.1245
     37  CA        13.4770    4.6840   13.5870 C.3   167  VAL167      0.1561
     38  C         13.4900    5.5090   14.8610 C.2   167  VAL167      0.2260
     39  O         13.6820    6.7290   14.8150 O.2   167  VAL167     -0.2867
     40  CB        14.9170    4.2740   13.2530 C.3   167  VAL167      0.0252
     41  CG1       15.5890    3.6620   14.4750 C.3   167  VAL167      0.0019
     42  CG2       14.9010    3.2750   12.1190 C.3   167  VAL167      0.0019
     43  N         14.9910    5.9890   18.9370 N.3   169  PHE169     -0.1241
     44  CA        16.0730    5.6690   19.8560 C.3   169  PHE169      0.1605
     45  C         15.5450    5.9810   21.2520 C.2   169  PHE169      0.2264
     46  O         15.1350    7.1110   21.5340 O.2   169  PHE169     -0.2867
     47  CB        17.3300    6.4990   19.5580 C.3   169  PHE169      0.0534
     48  CG        17.9870    6.1650   18.2480 C.ar  169  PHE169     -0.0203
     49  CD1       17.5760    6.7790   17.0710 C.ar  169  PHE169     -0.0042
     50  CD2       19.0120    5.2230   18.1910 C.ar  169  PHE169     -0.0042
     51  CE1       18.1830    6.4650   15.8570 C.ar  169  PHE169     -0.0003
     52  CE2       19.6260    4.9000   16.9820 C.ar  169  PHE169     -0.0003
     53  CZ        19.2090    5.5210   15.8140 C.ar  169  PHE169     -0.0000
     54  N         14.8840    9.6360   13.8720 N.3   179  PHE179     -0.1241
     55  CA        15.6760    9.7420   12.6560 C.3   179  PHE179      0.1605
     56  C         14.8110    9.2000   11.5370 C.2   179  PHE179      0.2264
     57  O         14.1680    8.1760   11.7190 O.2   179  PHE179     -0.2867
     58  CB        16.9260    8.8950   12.7920 C.3   179  PHE179      0.0534
     59  CG        17.4170    8.3420   11.5030 C.ar  179  PHE179     -0.0203
     60  CD1       17.9490    9.1720   10.5320 C.ar  179  PHE179     -0.0042
     61  CD2       17.3370    6.9880   11.2580 C.ar  179  PHE179     -0.0042
     62  CE1       18.4010    8.6560    9.3430 C.ar  179  PHE179     -0.0003
     63  CE2       17.7830    6.4650   10.0760 C.ar  179  PHE179     -0.0003
     64  CZ        18.3150    7.2960    9.1130 C.ar  179  PHE179     -0.0000
     65  N         14.4420    7.4350    7.8880 N.3   181  HIS181     -0.1241
     66  CA        15.0820    6.7020    6.7990 C.3   181  HIS181      0.1621
     67  C         14.6020    7.2470    5.4590 C.2   181  HIS181      0.2264
     68  O         15.3900    7.7690    4.6710 O.2   181  HIS181     -0.2867
     69  CB        14.7490    5.2190    6.8720 C.3   181  HIS181      0.0745
     70  CG        15.9540    4.3340    6.8690 C.ar  181  HIS181      0.0817
     71  ND1       16.5210    3.8090    8.0020 N.ar  181  HIS181     -0.2268
     72  CD2       16.7150    3.8910    5.8420 C.ar  181  HIS181      0.1154
     73  CE1       17.5760    3.0810    7.6320 C.ar  181  HIS181      0.1986
     74  NE2       17.7420    3.0980    6.3340 N.ar  181  HIS181     -0.2212
     75  N         16.1810   10.1210    4.5350 N.3   184  HIS184     -0.1226
     76  CA        17.6350   10.0020    4.4350 C.3   184  HIS184      0.1752
     77  C         18.0390    9.1230    3.2600 C.2   184  HIS184      0.2595
     78  O         19.2170    9.0240    2.9360 O.2   184  HIS184     -0.2718
     79  CB        18.2600    9.4660    5.7400 C.3   184  HIS184      0.0759
     80  CG        18.7710   10.5420    6.6580 C.ar  184  HIS184      0.0818
     81  ND1       17.9680   11.3270    7.4540 N.ar  184  HIS184     -0.2268
     82  CD2       20.0340   10.9900    6.8650 C.ar  184  HIS184      0.1154
     83  CE1       18.7550   12.2110    8.0990 C.ar  184  HIS184      0.1986
     84  NE2       20.0230   12.0510    7.7780 N.ar  184  HIS184     -0.2212
     85  N         17.0590    8.4930    2.6180 N.am  185  LEU185     -0.1980
     86  CA        17.3230    7.6310    1.4660 C.3   185  LEU185      0.1596
     87  C         17.4050    8.4110    0.1620 C.2   185  LEU185      0.2287
     88  O         18.3860    8.2980   -0.5850 O.2   185  LEU185     -0.2864
     89  CB        16.2370    6.5870    1.3380 C.3   185  LEU185      0.0297
     90  CG        16.2110    5.6530    2.5290 C.3   185  LEU185      0.0022
     91  CD1       15.0160    4.7360    2.4050 C.3   185  LEU185      0.0001
     92  CD2       17.4990    4.8630    2.5850 C.3   185  LEU185      0.0001
     93  N         20.7880    9.3910   -0.1410 N.3   188  TYR188     -0.1227
     94  CA        21.9360    8.4740   -0.0260 C.3   188  TYR188      0.1736
     95  C         21.6760    7.0360   -0.4590 C.2   188  TYR188      0.2595
     96  O         20.5320    6.6270   -0.6700 O.2   188  TYR188     -0.2718
     97  CB        22.4430    8.4050    1.4140 C.3   188  TYR188      0.0548
     98  CG        23.2070    9.6060    1.9020 C.ar  188  TYR188     -0.0200
     99  CD1       22.5530   10.7910    2.2270 C.ar  188  TYR188     -0.0009
    100  CD2       24.5840    9.5390    2.0880 C.ar  188  TYR188     -0.0009
    101  CE1       23.2470   11.8700    2.7290 C.ar  188  TYR188      0.0417
    102  CE2       25.2820   10.6140    2.5890 C.ar  188  TYR188      0.0417
    103  CZ        24.6090   11.7730    2.9130 C.ar  188  TYR188      0.1957
    104  OH        25.2960   12.8280    3.4580 O.3   188  TYR188     -0.2866
    105  N         22.7500    6.2610   -0.5620 N.am  189  LYS189     -0.1966
    106  CA        22.6240    4.8690   -0.9520 C.3   189  LYS189      0.1728
    107  C         22.9950    4.0090    0.2450 C.2   189  LYS189      0.2616
    108  O         23.9000    4.3550    1.0020 O.2   189  LYS189     -0.2715
    109  CB        23.5440    4.5630   -2.1370 C.3   189  LYS189      0.0311
    110  CG        23.4820    3.1720   -2.7030 C.3   189  LYS189      0.0038
    111  CD        22.2000    3.0000   -3.4530 C.3   189  LYS189      0.0206
    112  CE        22.2240    1.7130   -4.2830 C.3   189  LYS189      0.1093
    113  NZ        22.0960    0.5290   -3.4540 N.3   189  LYS189     -0.1314
    114  N         22.2930    2.8930    0.4180 N.am  190  CYS190     -0.1968
    115  CA        22.5560    1.9940    1.5360 C.3   190  CYS190      0.1712
    116  C         23.9970    2.0000    2.0210 C.2   190  CYS190      0.2296
    117  O         24.2860    2.5290    3.0890 O.2   190  CYS190     -0.2864
    118  CB        22.1550    0.5600    1.1880 C.3   190  CYS190      0.0983
    119  SG        20.3570    0.3030    1.1020 S.3   190  CYS190     -0.0798
    120  N         26.1310    4.3680    4.2550 N.3   193  CYS193     -0.1221
    121  CA        26.0070    4.1430    5.6890 C.3   193  CYS193      0.1808
    122  C         26.3080    2.6700    5.9390 C.2   193  CYS193      0.2601
    123  O         27.4750    2.2920    6.0150 O.2   193  CYS193     -0.2717
    124  CB        24.5880    4.4650    6.1500 C.3   193  CYS193      0.0970
    125  SG        24.0570    6.1570    5.7640 S.3   193  CYS193     -0.0800
    126  N         25.2640    1.8430    6.0350 N.am  194  HIS194     -0.1975
    127  CA        25.4280    0.4040    6.2880 C.3   194  HIS194      0.1656
    128  C         26.6650   -0.1470    5.5770 C.2   194  HIS194      0.2291
    129  O         26.8080    0.0350    4.3660 O.2   194  HIS194     -0.2864
    130  CB        24.1830   -0.3670    5.8390 C.3   194  HIS194      0.0771
    131  CG        22.9070    0.1320    6.4450 C.ar  194  HIS194      0.0820
    132  ND1       22.7050    0.2980    7.7940 N.ar  194  HIS194     -0.2267
    133  CD2       21.7510    0.5240    5.8600 C.ar  194  HIS194      0.1154
    134  CE1       21.4700    0.7750    7.9740 C.ar  194  HIS194      0.1986
    135  NE2       20.8530    0.9280    6.8280 N.ar  194  HIS194     -0.2212
    136  N         26.3960    2.2470   10.3610 N.3   198  PHE198     -0.1227
    137  CA        25.3790    1.5520   11.1520 C.3   198  PHE198      0.1736
    138  C         25.2280    0.1110   10.6770 C.2   198  PHE198      0.2595
    139  O         25.6620   -0.2370    9.5800 O.2   198  PHE198     -0.2718
    140  CB        24.0290    2.2700   11.0580 C.3   198  PHE198      0.0547
    141  CG        24.0910    3.7370   11.3930 C.ar  198  PHE198     -0.0202
    142  CD1       24.6190    4.6510   10.4880 C.ar  198  PHE198     -0.0042
    143  CD2       23.6280    4.2060   12.6130 C.ar  198  PHE198     -0.0042
    144  CE1       24.6840    6.0110   10.7870 C.ar  198  PHE198     -0.0003
    145  CE2       23.6870    5.5670   12.9240 C.ar  198  PHE198     -0.0003
    146  CZ        24.2180    6.4690   12.0070 C.ar  198  PHE198     -0.0000
    147  N         24.6100   -0.7280   11.5010 N.am  199  ALA199     -0.1966
    148  CA        24.4270   -2.1350   11.1510 C.3   199  ALA199      0.1728
    149  C         22.9900   -2.4540   10.7740 C.2   199  ALA199      0.2616
    150  O         22.0950   -1.6270   10.9430 O.2   199  ALA199     -0.2715
    151  CB        24.8690   -3.0230   12.3090 C.3   199  ALA199      0.0334
    152  N         22.7770   -3.6650   10.2670 N.am  200  TYR200     -0.1960
    153  CA        21.4470   -4.0980    9.8540 C.3   200  TYR200      0.1771
    154  C         20.6860   -4.8570   10.9380 C.2   200  TYR200      0.2619
    155  O         19.5150   -4.5680   11.1920 O.2   200  TYR200     -0.2715
    156  CB        21.5330   -4.9800    8.6010 C.3   200  TYR200      0.0574
    157  CG        21.7940   -4.2310    7.3070 C.ar  200  TYR200     -0.0198
    158  CD1       23.0050   -4.3720    6.6260 C.ar  200  TYR200     -0.0009
    159  CD2       20.8210   -3.3920    6.7520 C.ar  200  TYR200     -0.0009
    160  CE1       23.2410   -3.6970    5.4250 C.ar  200  TYR200      0.0417
    161  CE2       21.0480   -2.7140    5.5520 C.ar  200  TYR200      0.0417
    162  CZ        22.2580   -2.8740    4.8940 C.ar  200  TYR200      0.1957
    163  OH        22.4880   -2.2180    3.7050 O.3   200  TYR200     -0.2866
    164  N         21.3560   -5.8280   11.5610 N.am  201  LYS201     -0.1963
    165  CA        20.7650   -6.6630   12.6110 C.3   201  LYS201      0.1728
    166  C         19.9020   -5.8950   13.6160 C.2   201  LYS201      0.2616
    167  O         18.7740   -5.5110   13.2900 O.2   201  LYS201     -0.2715
    168  CB        21.8720   -7.4330   13.3390 C.3   201  LYS201      0.0311
    169  CG        22.5520   -8.4640   12.4520 C.3   201  LYS201      0.0038
    170  CD        23.5990   -9.2760   13.1950 C.3   201  LYS201      0.0206
    171  CE        24.0680  -10.4530   12.3460 C.3   201  LYS201      0.1093
    172  NZ        25.0460  -11.3350   13.0470 N.3   201  LYS201     -0.1314
    173  N         20.4160   -5.6920   14.8320 N.am  202  ALA202     -0.1963
    174  CA        19.6830   -4.9580   15.8710 C.3   202  ALA202      0.1728
    175  C         20.3360   -5.0270   17.2510 C.2   202  ALA202      0.2616
    176  O         19.7420   -5.5380   18.2000 O.2   202  ALA202     -0.2715
    177  CB        18.2370   -5.4630   15.9640 C.3   202  ALA202      0.0334
    178  N         21.5520   -4.5030   17.3630 N.am  203  GLY203     -0.1955
    179  CA        22.2490   -4.5120   18.6400 C.3   203  GLY203      0.1869
    180  C         23.3650   -3.4840   18.6770 C.2   203  GLY203      0.2309
    181  O         23.1350   -2.3170   19.0080 O.2   203  GLY203     -0.2863
    182  N         25.6240    9.3660   13.6670 N.3   218  CYS218     -0.1235
    183  CA        25.1960   10.6250   13.0880 C.3   218  CYS218      0.1677
    184  C         26.3320   11.6160   12.8670 C.2   218  CYS218      0.2270
    185  O         26.3340   12.3690   11.8880 O.2   218  CYS218     -0.2867
    186  CB        24.1290   11.2400   13.9660 C.3   218  CYS218      0.0956
    187  SG        22.7300   10.1070   14.1130 S.3   218  CYS218     -0.0801
    188  N         28.4940   12.3300    9.5940 N.3   221  CYS221     -0.1235
    189  CA        28.0800   13.3190    8.6090 C.3   221  CYS221      0.1677
    190  C         27.7030   14.6140    9.3080 C.2   221  CYS221      0.2270
    191  O         28.1710   15.6910    8.9360 O.2   221  CYS221     -0.2867
    192  CB        26.8830   12.8030    7.8110 C.3   221  CYS221      0.0956
    193  SG        27.2120   11.2650    6.9000 S.3   221  CYS221     -0.0801
@<TRIPOS>BOND
     1   112   113    1
     2   112   111    1
     3   111   110    1
     4   110   109    1
     5   109   106    1
     6     1     2    1
     7   106   105    1
     8   106   107    1
     9     6     5    1
    10    96    95    2
    11    88    87    2
    12     2     5    1
    13     2     3    1
    14   105    95   am
    15    95    94    1
    16    93    94    1
    17    94    97    1
    18    87    86    1
    19   107   114   am
    20   107   108    2
    21     3     4    2
    22   114   115    1
    23   119   118    1
    24   118   115    1
    25    89    86    1
    26    89    90    1
    27    97    98    1
    28    86    85    1
    29   115   116    1
    30    98   100   ar
    31    98    99   ar
    32   116   117    2
    33   100   102   ar
    34    99   101   ar
    35    91    90    1
    36    90    92    1
    37   102   103   ar
    38    85    77   am
    39   101   103   ar
    40   103   104    1
    41    78    77    2
    42    20    19    1
    43    77    76    1
    44    27    28    1
    45    27    26    1
    46    28    22    1
    47    14    13    1
    48   163   162    1
    49    12    11    1
    50    12    13    1
    51    21    19    1
    52    11     8    1
    53    16    19    1
    54    16    15    1
    55    16    17    1
    56   120   121    1
    57    15     9   am
    58   129   128    2
    59    76    75    1
    60    76    79    1
    61    68    67    2
    62    26    23    1
    63    22    17   am
    64    22    23    1
    65   162   160   ar
    66   162   161   ar
    67    17    18    2
    68     9     8    1
    69     9    10    2
    70   160   158   ar
    71    67    66    1
    72     8     7    1
    73   161   159   ar
    74   128   127    1
    75    25    24    2
    76    23    24    1
    77   121   122    1
    78   121   124    1
    79    79    80    1
    80   125   124    1
    81   130   127    1
    82   130   131    1
    83    72    74   ar
    84    72    70   ar
    85   133   131   ar
    86   133   135   ar
    87   122   123    2
    88   122   126   am
    89   126   127    1
    90    24    29   am
    91    74    73   ar
    92   131   132   ar
    93   158   157   ar
    94    80    82   ar
    95    80    81   ar
    96   159   157   ar
    97    66    69    1
    98    66    65    1
    99   135   134   ar
   100    82    84   ar
   101    70    69    1
   102    70    71   ar
   103   193   192    1
   104   157   156    1
   105    81    83   ar
   106    29    30    1
   107    29    35    1
   108    32    31    2
   109    73    71   ar
   110    84    83   ar
   111   132   134   ar
   112   192   189    1
   113    31    30    1
   114    30    33    1
   115    35    34    1
   116   156   153    1
   117   189   190    1
   118   189   188    1
   119   191   190    2
   120    64    62   ar
   121    64    63   ar
   122    62    60   ar
   123   139   138    2
   124    34    33    1
   125   153   152    1
   126   153   154    1
   127    63    61   ar
   128   152   149   am
   129   136   137    1
   130   142   144   ar
   131   142   141   ar
   132    60    59   ar
   133   138   137    1
   134   138   147   am
   135   149   150    2
   136   149   148    1
   137   144   146   ar
   138   154   155    2
   139   154   164   am
   140   140   137    1
   141   140   141    1
   142   148   147    1
   143   148   151    1
   144    61    59   ar
   145   141   143   ar
   146    59    58    1
   147    56    57    2
   148    56    55    1
   149   164   165    1
   150   185   184    2
   151   146   145   ar
   152    42    40    1
   153   171   172    1
   154   171   170    1
   155   169   170    1
   156   169   168    1
   157    36    37    1
   158   165   168    1
   159   165   166    1
   160   143   145   ar
   161    55    58    1
   162    55    54    1
   163   184   183    1
   164   183   182    1
   165   183   186    1
   166    40    37    1
   167    40    41    1
   168   167   166    2
   169    37    38    1
   170   166   173   am
   171   186   187    1
   172    39    38    2
   173   173   174    1
   174    53    51   ar
   175    53    52   ar
   176    51    49   ar
   177   174   177    1
   178   174   175    1
   179    52    50   ar
   180    49    48   ar
   181   175   178   am
   182   175   176    2
   183   178   179    1
   184    50    48   ar
   185    48    47    1
   186   179   180    1
   187   180   181    2
   188    43    44    1
   189    47    44    1
   190    44    45    1
   191    45    46    2
