@<TRIPOS>MOLECULE
tmp/3ov0A04.pdb
 247 238 0 0 0
SMALL
GASTEIGER

@<TRIPOS>ATOM
      1  N         27.1380  -37.6100   -4.5030 N.3     8  PHE8       -0.1241
      2  CA        27.9180  -36.4390   -4.8760 C.3     8  PHE8        0.1605
      3  C         27.3760  -35.2480   -4.1050 C.2     8  PHE8        0.2264
      4  O         26.2270  -34.8260   -4.2940 O.2     8  PHE8       -0.2867
      5  CB        27.8560  -36.1930   -6.3920 C.3     8  PHE8        0.0534
      6  CG        28.7560  -37.1010   -7.1810 C.ar    8  PHE8       -0.0203
      7  CD1       28.2830  -38.3040   -7.6980 C.ar    8  PHE8       -0.0042
      8  CD2       30.1050  -36.7930   -7.3270 C.ar    8  PHE8       -0.0042
      9  CE1       29.1430  -39.1880   -8.3420 C.ar    8  PHE8       -0.0003
     10  CE2       30.9690  -37.6630   -7.9640 C.ar    8  PHE8       -0.0003
     11  CZ        30.4890  -38.8660   -8.4720 C.ar    8  PHE8       -0.0000
     12  N         26.7580  -31.6190   -3.1460 N.3    10  LEU10      -0.1245
     13  CA        26.6820  -30.3490   -3.8410 C.3    10  LEU10       0.1561
     14  C         26.3330  -29.1980   -2.8990 C.2    10  LEU10       0.2260
     15  O         25.2240  -29.1260   -2.3610 O.2    10  LEU10      -0.2867
     16  CB        25.6650  -30.4440   -4.9900 C.3    10  LEU10       0.0270
     17  CG        26.0720  -31.3000   -6.1890 C.3    10  LEU10       0.0019
     18  CD1       24.9000  -31.3900   -7.1380 C.3    10  LEU10       0.0001
     19  CD2       27.2570  -30.7230   -6.9200 C.3    10  LEU10       0.0001
     20  N         23.6480  -35.7980   -5.7670 N.3    16  VAL16      -0.1245
     21  CA        23.3620  -36.6510   -6.9050 C.3    16  VAL16       0.1561
     22  C         23.9020  -38.0150   -6.5370 C.2    16  VAL16       0.2260
     23  O         25.0850  -38.1690   -6.2530 O.2    16  VAL16      -0.2867
     24  CB        24.0440  -36.1340   -8.1790 C.3    16  VAL16       0.0252
     25  CG1       24.1510  -37.2460   -9.2040 C.3    16  VAL16       0.0019
     26  CG2       23.2320  -34.9920   -8.7650 C.3    16  VAL16       0.0019
     27  N         37.1580  -41.7920  -13.5050 N.3    39  PHE39      -0.1241
     28  CA        37.1640  -41.4140  -12.0950 C.3    39  PHE39       0.1605
     29  C         38.4170  -41.9620  -11.4160 C.2    39  PHE39       0.2264
     30  O         38.5660  -43.1760  -11.2520 O.2    39  PHE39      -0.2867
     31  CB        35.9110  -41.9440  -11.4210 C.3    39  PHE39       0.0534
     32  CG        34.6510  -41.4170  -12.0230 C.ar   39  PHE39      -0.0203
     33  CD1       33.9390  -42.1670  -12.9480 C.ar   39  PHE39      -0.0042
     34  CD2       34.1870  -40.1500  -11.6820 C.ar   39  PHE39      -0.0042
     35  CE1       32.7750  -41.6590  -13.5270 C.ar   39  PHE39      -0.0003
     36  CE2       33.0250  -39.6330  -12.2560 C.ar   39  PHE39      -0.0003
     37  CZ        32.3180  -40.3870  -13.1800 C.ar   39  PHE39      -0.0000
     38  N         38.4530  -35.5570   -8.6540 N.3    45  LYS45      -0.1231
     39  CA        38.2280  -34.1260   -8.7530 C.3    45  LYS45       0.1693
     40  C         36.7690  -33.7730   -8.8290 C.2    45  LYS45       0.2592
     41  O         35.9070  -34.6430   -8.9160 O.2    45  LYS45      -0.2718
     42  CB        38.9150  -33.5440   -9.9770 C.3    45  LYS45       0.0285
     43  CG        40.4290  -33.6820   -9.9880 C.3    45  LYS45       0.0035
     44  CD        41.0510  -32.6530  -10.9280 C.3    45  LYS45       0.0206
     45  CE        40.7410  -31.2340  -10.4460 C.3    45  LYS45       0.1093
     46  NZ        41.4010  -30.1860  -11.2640 N.3    45  LYS45      -0.1314
     47  N         36.5050  -32.4750   -8.7770 N.am   46  ARG46      -0.1966
     48  CA        35.1520  -31.9470   -8.8580 C.3    46  ARG46       0.1729
     49  C         34.9700  -31.3430  -10.2480 C.2    46  ARG46       0.2616
     50  O         35.6840  -30.4100  -10.6460 O.2    46  ARG46      -0.2715
     51  CB        34.9230  -30.8630   -7.7990 C.3    46  ARG46       0.0348
     52  CG        33.6640  -30.0110   -8.0540 C.3    46  ARG46       0.0492
     53  CD        33.6780  -28.6880   -7.2660 C.3    46  ARG46       0.2205
     54  NE        32.6790  -27.7310   -7.7530 N.pl3  46  ARG46      -0.0865
     55  CZ        32.5790  -26.4760   -7.3210 C.cat  46  ARG46       0.5346
     56  NH1       33.4190  -26.0230   -6.3900 N.pl3  46  ARG46       0.1354
     57  NH2       31.6440  -25.6730   -7.8200 N.pl3  46  ARG46       0.1354
     58  N         34.0030  -31.8800  -10.9770 N.am   47  TYR47      -0.1960
     59  CA        33.7220  -31.4290  -12.3250 C.3    47  TYR47       0.1771
     60  C         32.4500  -30.6070  -12.3790 C.2    47  TYR47       0.2620
     61  O         31.5560  -30.8050  -11.5540 O.2    47  TYR47      -0.2715
     62  CB        33.5810  -32.6380  -13.2370 C.3    47  TYR47       0.0574
     63  CG        34.8720  -33.3780  -13.4480 C.ar   47  TYR47      -0.0198
     64  CD1       36.0510  -32.6870  -13.7290 C.ar   47  TYR47      -0.0009
     65  CD2       34.9100  -34.7650  -13.4410 C.ar   47  TYR47      -0.0009
     66  CE1       37.2310  -33.3610  -14.0050 C.ar   47  TYR47       0.0417
     67  CE2       36.0870  -35.4520  -13.7230 C.ar   47  TYR47       0.0417
     68  CZ        37.2430  -34.7450  -14.0050 C.ar   47  TYR47       0.1957
     69  OH        38.4080  -35.4190  -14.3110 O.3    47  TYR47      -0.2866
     70  N         32.3690  -29.6800  -13.3370 N.am   48  THR48      -0.1937
     71  CA        31.1650  -28.8620  -13.4920 C.3    48  THR48       0.2028
     72  C         30.3720  -29.5650  -14.5730 C.2    48  THR48       0.2642
     73  O         30.9180  -30.4190  -15.2690 O.2    48  THR48      -0.2714
     74  CB        31.4720  -27.4140  -13.9640 C.3    48  THR48       0.1808
     75  OG1       31.0170  -27.2390  -15.3130 O.3    48  THR48      -0.2208
     76  CG2       32.9640  -27.1180  -13.8840 C.3    48  THR48       0.0379
     77  N         29.0930  -29.2400  -14.7170 N.am   49  MET49      -0.1976
     78  CA        28.3200  -29.8940  -15.7520 C.3    49  MET49       0.1605
     79  C         29.1120  -29.8440  -17.0490 C.2    49  MET49       0.2287
     80  O         29.3660  -30.8750  -17.6810 O.2    49  MET49      -0.2864
     81  CB        26.9820  -29.1990  -15.9480 C.3    49  MET49       0.0413
     82  CG        25.9310  -29.6300  -14.9730 C.3    49  MET49       0.0598
     83  SD        25.8950  -31.4110  -14.7300 S.3    49  MET49      -0.1393
     84  CE        25.8810  -31.9380  -16.3340 C.3    49  MET49       0.0692
     85  N         31.7190  -32.0360  -18.2040 N.3    52  MET52      -0.1230
     86  CA        31.2110  -33.3410  -18.5980 C.3    52  MET52       0.1702
     87  C         30.9270  -33.3020  -20.0870 C.2    52  MET52       0.2592
     88  O         31.3730  -34.1770  -20.8300 O.2    52  MET52      -0.2718
     89  CB        29.9330  -33.6880  -17.8300 C.3    52  MET52       0.0401
     90  CG        30.1750  -34.3030  -16.4590 C.3    52  MET52       0.0596
     91  SD        28.6720  -34.4830  -15.4800 S.3    52  MET52      -0.1393
     92  CE        28.5350  -32.8440  -14.8900 C.3    52  MET52       0.0692
     93  N         30.1810  -32.2840  -20.5170 N.am   53  GLU53      -0.1979
     94  CA        29.8560  -32.1160  -21.9290 C.3    53  GLU53       0.1602
     95  C         31.1720  -32.2620  -22.6610 C.2    53  GLU53       0.2287
     96  O         31.2560  -32.9820  -23.6510 O.2    53  GLU53      -0.2864
     97  CB        29.2670  -30.7250  -22.2010 C.3    53  GLU53       0.0415
     98  CG        28.0740  -30.3730  -21.3170 C.3    53  GLU53       0.1163
     99  CD        27.4310  -29.0250  -21.6550 C.2    53  GLU53       0.3649
    100  OE1       28.1630  -28.0330  -21.8860 O.co2  53  GLU53      -0.2457
    101  OE2       26.1810  -28.9590  -21.6650 O.co2  53  GLU53      -0.2457
    102  N         34.2390  -36.9960  -16.8090 N.3    57  SER57      -0.1202
    103  CA        33.2120  -37.5010  -15.8940 C.3    57  SER57       0.2020
    104  C         32.1120  -38.3120  -16.5620 C.2    57  SER57       0.2619
    105  O         32.3640  -39.2000  -17.3740 O.2    57  SER57      -0.2717
    106  CB        32.5610  -36.3410  -15.1230 C.3    57  SER57       0.2103
    107  OG        31.4710  -36.7760  -14.3130 O.3    57  SER57      -0.2182
    108  N         30.8840  -37.9950  -16.1790 N.am   58  CYS58      -0.1969
    109  CA        29.6970  -38.6430  -16.6970 C.3    58  CYS58       0.1712
    110  C         29.5020  -38.1420  -18.1280 C.2    58  CYS58       0.2296
    111  O         28.7210  -38.7080  -18.9030 O.2    58  CYS58      -0.2864
    112  CB        28.4860  -38.2510  -15.8400 C.3    58  CYS58       0.0983
    113  SG        28.7810  -38.1560  -14.0410 S.3    58  CYS58      -0.0798
    114  N         27.4350  -40.0300  -21.1160 N.3    62  HIS62      -0.1241
    115  CA        26.0720  -39.5070  -21.0870 C.3    62  HIS62       0.1621
    116  C         25.9240  -38.3570  -22.0780 C.2    62  HIS62       0.2264
    117  O         25.4780  -37.2590  -21.7370 O.2    62  HIS62      -0.2867
    118  CB        25.6990  -39.0840  -19.6590 C.3    62  HIS62       0.0745
    119  CG        25.2650  -40.2270  -18.7890 C.ar   62  HIS62       0.0817
    120  ND1       23.9560  -40.6420  -18.6500 N.ar   62  HIS62      -0.2268
    121  CD2       26.0050  -41.1020  -18.0610 C.ar   62  HIS62       0.1154
    122  CE1       23.9450  -41.7340  -17.8660 C.ar   62  HIS62       0.1986
    123  NE2       25.1660  -42.0610  -17.4760 N.ar   62  HIS62      -0.2212
    124  N         21.6720  -41.2020  -22.3940 N.3    68  PHE68      -0.1227
    125  CA        21.2040  -39.8130  -22.4950 C.3    68  PHE68       0.1736
    126  C         22.2050  -38.7130  -22.0910 C.2    68  PHE68       0.2596
    127  O         23.1870  -38.9690  -21.4000 O.2    68  PHE68      -0.2718
    128  CB        19.8700  -39.6430  -21.7530 C.3    68  PHE68       0.0547
    129  CG        19.9900  -39.6830  -20.2690 C.ar   68  PHE68      -0.0202
    130  CD1       20.4740  -38.5810  -19.5730 C.ar   68  PHE68      -0.0042
    131  CD2       19.6320  -40.8280  -19.5620 C.ar   68  PHE68      -0.0042
    132  CE1       20.6070  -38.6170  -18.1950 C.ar   68  PHE68      -0.0003
    133  CE2       19.7610  -40.8760  -18.1830 C.ar   68  PHE68      -0.0003
    134  CZ        20.2490  -39.7670  -17.4970 C.ar   68  PHE68      -0.0000
    135  N         21.9300  -37.4830  -22.5250 N.am   69  SER69      -0.1938
    136  CA        22.8250  -36.3360  -22.2980 C.3    69  SER69       0.2055
    137  C         22.7430  -35.4950  -21.0140 C.2    69  SER69       0.2643
    138  O         21.7070  -35.3910  -20.3460 O.2    69  SER69      -0.2714
    139  CB        22.7370  -35.3780  -23.5060 C.3    69  SER69       0.2130
    140  OG        23.8070  -34.4370  -23.5360 O.3    69  SER69      -0.2179
    141  N         23.8770  -34.8800  -20.7060 N.am   70  VAL70      -0.1963
    142  CA        24.0240  -34.0150  -19.5620 C.3    70  VAL70       0.1727
    143  C         23.7500  -32.6220  -20.0850 C.2    70  VAL70       0.2616
    144  O         24.1330  -31.6260  -19.4790 O.2    70  VAL70      -0.2715
    145  CB        25.4590  -34.0640  -19.0420 C.3    70  VAL70       0.0290
    146  CG1       25.8720  -35.4950  -18.8400 C.3    70  VAL70       0.0023
    147  CG2       26.4000  -33.3900  -20.0210 C.3    70  VAL70       0.0023
    148  N         23.0970  -32.5540  -21.2360 N.am   71  ALA71      -0.1963
    149  CA        22.8070  -31.2650  -21.8380 C.3    71  ALA71       0.1728
    150  C         21.3420  -31.1080  -22.1600 C.2    71  ALA71       0.2616
    151  O         20.8830  -30.0050  -22.4480 O.2    71  ALA71      -0.2715
    152  CB        23.6330  -31.0840  -23.0870 C.3    71  ALA71       0.0334
    153  N         20.6010  -32.2070  -22.1050 N.am   72  ASP72      -0.1971
    154  CA        19.1870  -32.1140  -22.4000 C.3    72  ASP72       0.1709
    155  C         18.4490  -31.3100  -21.3330 C.2    72  ASP72       0.2293
    156  O         18.0200  -31.8240  -20.2970 O.2    72  ASP72      -0.2864
    157  CB        18.5580  -33.5000  -22.5670 C.3    72  ASP72       0.1436
    158  CG        17.1420  -33.4300  -23.1410 C.2    72  ASP72       0.3671
    159  OD1       16.8520  -32.4870  -23.9150 O.co2  72  ASP72      -0.2456
    160  OD2       16.3220  -34.3230  -22.8330 O.co2  72  ASP72      -0.2456
    161  N         16.1110  -33.0830  -19.1500 N.3    75  GLN75      -0.1231
    162  CA        16.4410  -34.4220  -18.7330 C.3    75  GLN75       0.1698
    163  C         17.6320  -34.3380  -17.7890 C.2    75  GLN75       0.2592
    164  O         18.5980  -35.0930  -17.9070 O.2    75  GLN75      -0.2718
    165  CB        16.7530  -35.2840  -19.9610 C.3    75  GLN75       0.0381
    166  CG        16.9200  -36.7730  -19.6800 C.3    75  GLN75       0.0905
    167  CD        16.2990  -37.6600  -20.7560 C.2    75  GLN75       0.2608
    168  OE1       16.5410  -38.8690  -20.7930 O.2    75  GLN75      -0.2717
    169  NE2       15.4830  -37.0630  -21.6270 N.am   75  GLN75      -0.0878
    170  N         17.5530  -33.3790  -16.8670 N.am   76  CYS76      -0.1970
    171  CA        18.5720  -33.1640  -15.8430 C.3    76  CYS76       0.1712
    172  C         18.0870  -33.8860  -14.5870 C.2    76  CYS76       0.2296
    173  O         18.8390  -34.6140  -13.9400 O.2    76  CYS76      -0.2864
    174  CB        18.7160  -31.6800  -15.5300 C.3    76  CYS76       0.0983
    175  SG        19.5940  -30.7410  -16.7990 S.3    76  CYS76      -0.0798
    176  N         19.0920  -37.2130  -12.8790 N.3    79  CYS79      -0.1221
    177  CA        20.1430  -37.3890  -11.8990 C.3    79  CYS79       0.1808
    178  C         19.8550  -36.4680  -10.7310 C.2    79  CYS79       0.2601
    179  O         19.8120  -36.8830   -9.5710 O.2    79  CYS79      -0.2717
    180  CB        21.4910  -37.0480  -12.5000 C.3    79  CYS79       0.0970
    181  SG        22.0800  -38.2990  -13.6690 S.3    79  CYS79      -0.0800
    182  N         19.6620  -35.2010  -11.0540 N.am   80  HIS80      -0.1975
    183  CA        19.3400  -34.2280  -10.0470 C.3    80  HIS80       0.1656
    184  C         17.8990  -34.5060   -9.6320 C.2    80  HIS80       0.2291
    185  O         17.0080  -33.6880   -9.8190 O.2    80  HIS80      -0.2864
    186  CB        19.5430  -32.8330  -10.6190 C.3    80  HIS80       0.0771
    187  CG        20.9850  -32.4940  -10.8110 C.ar   80  HIS80       0.0820
    188  ND1       21.8230  -32.0860   -9.8000 N.ar   80  HIS80      -0.2267
    189  CD2       21.7740  -32.6140  -11.9080 C.ar   80  HIS80       0.1154
    190  CE1       23.0690  -31.9810  -10.3030 C.ar   80  HIS80       0.1986
    191  NE2       23.0950  -32.2920  -11.5830 N.ar   80  HIS80      -0.2212
    192  N         15.8610  -24.7300  -16.9400 N.3   112  CYS112     -0.1221
    193  CA        17.1910  -24.7910  -16.3350 C.3   112  CYS112      0.1808
    194  C         18.3010  -24.0230  -17.0520 C.2   112  CYS112      0.2601
    195  O         18.5870  -22.8570  -16.7550 O.2   112  CYS112     -0.2717
    196  CB        17.5950  -26.2360  -16.2290 C.3   112  CYS112      0.0970
    197  SG        16.1010  -27.1470  -15.8190 S.3   112  CYS112     -0.0800
    198  N         18.9220  -24.7080  -18.0040 N.am  113  ARG113     -0.1979
    199  CA        20.0140  -24.1720  -18.8060 C.3   113  ARG113      0.1597
    200  C         20.0020  -22.6780  -19.0910 C.2   113  ARG113      0.2287
    201  O         21.0620  -22.0700  -19.1990 O.2   113  ARG113     -0.2864
    202  CB        20.0960  -24.9340  -20.1300 C.3   113  ARG113      0.0334
    203  CG        21.0400  -26.1300  -20.1400 C.3   113  ARG113      0.0492
    204  CD        20.8090  -26.9820  -21.3870 C.3   113  ARG113      0.2205
    205  NE        21.9700  -27.7880  -21.7570 N.pl3 113  ARG113     -0.0865
    206  CZ        23.0800  -27.2980  -22.3080 C.cat 113  ARG113      0.5346
    207  NH1       23.1990  -25.9970  -22.5640 N.pl3 113  ARG113      0.1354
    208  NH2       24.0790  -28.1120  -22.6090 N.pl3 113  ARG113      0.1354
    209  N         21.7880  -22.0840  -16.0180 N.3   116  HIS116     -0.1241
    210  CA        22.9990  -22.8610  -15.8290 C.3   116  HIS116      0.1621
    211  C         23.9410  -22.9530  -17.0060 C.2   116  HIS116      0.2264
    212  O         24.9230  -23.7040  -16.9700 O.2   116  HIS116     -0.2867
    213  CB        22.6490  -24.2450  -15.3050 C.3   116  HIS116      0.0745
    214  CG        22.2430  -24.2220  -13.8680 C.ar  116  HIS116      0.0817
    215  ND1       22.9730  -23.5860  -12.8900 N.ar  116  HIS116     -0.2268
    216  CD2       21.1160  -24.6650  -13.2590 C.ar  116  HIS116      0.1154
    217  CE1       22.2760  -23.6470  -11.7510 C.ar  116  HIS116      0.1986
    218  NE2       21.1360  -24.2920  -11.9100 N.ar  116  HIS116     -0.2212
    219  N         26.6850  -18.1520  -18.6380 N.3   119  ARG119     -0.1245
    220  CA        27.8800  -17.8260  -17.8670 C.3   119  ARG119      0.1563
    221  C         27.8110  -16.5130  -17.0770 C.2   119  ARG119      0.2260
    222  O         28.5760  -16.3270  -16.1240 O.2   119  ARG119     -0.2867
    223  CB        29.1050  -17.8160  -18.7940 C.3   119  ARG119      0.0307
    224  CG        29.3240  -19.1610  -19.4790 C.3   119  ARG119      0.0489
    225  CD        30.2480  -20.0840  -18.6900 C.3   119  ARG119      0.2205
    226  NE        29.8190  -20.2850  -17.3160 N.pl3 119  ARG119     -0.0865
    227  CZ        28.8210  -21.1130  -17.0100 C.cat 119  ARG119      0.5346
    228  NH1       28.1720  -21.7820  -17.9620 N.pl3 119  ARG119      0.1354
    229  NH2       28.5030  -21.3040  -15.7340 N.pl3 119  ARG119      0.1354
    230  N         25.3990  -17.9630  -13.6590 N.3   122  THR122     -0.1218
    231  CA        26.0380  -18.9360  -12.7860 C.3   122  THR122      0.1862
    232  C         27.5550  -18.9210  -12.8670 C.2   122  THR122      0.2287
    233  O         28.2070  -19.9220  -12.5670 O.2   122  THR122     -0.2866
    234  CB        25.5930  -20.3440  -13.1310 C.3   122  THR122      0.1770
    235  OG1       26.1320  -20.7040  -14.4070 O.3   122  THR122     -0.2211
    236  CG2       24.0820  -20.4300  -13.1770 C.3   122  THR122      0.0375
    237  N         31.7950  -16.1150   -8.4530 N.3   125  ARG125     -0.1245
    238  CA        31.6260  -16.6150   -7.0940 C.3   125  ARG125      0.1563
    239  C         31.7120  -15.3890   -6.1900 C.2   125  ARG125      0.2260
    240  O         32.5360  -14.4960   -6.4160 O.2   125  ARG125     -0.2867
    241  CB        32.7360  -17.6130   -6.7480 C.3   125  ARG125      0.0307
    242  CG        32.7130  -18.9330   -7.5330 C.3   125  ARG125      0.0489
    243  CD        31.5020  -19.7240   -7.1280 C.3   125  ARG125      0.2205
    244  NE        31.4490  -21.0130   -7.8300 N.pl3 125  ARG125     -0.0865
    245  CZ        30.6010  -21.2200   -8.8490 C.cat 125  ARG125      0.5346
    246  NH1       29.6870  -20.3040   -9.2670 N.pl3 125  ARG125      0.1354
    247  NH2       30.6190  -22.4240   -9.4150 N.pl3 125  ARG125      0.1354
@<TRIPOS>BOND
     1   159   158   ar
     2    96    95    2
     3   140   139    1
     4   139   136    1
     5   158   160   ar
     6   158   157    1
     7   152   149    1
     8    95    94    1
     9   208   206    1
    10   157   154    1
    11   207   206    1
    12   135   136    1
    13   135   126   am
    14   125   124    1
    15   125   126    1
    16   125   128    1
    17   151   150    2
    18   154   153    1
    19   154   155    1
    20   206   205    2
    21   136   137    1
    22    97    94    1
    23    97    98    1
    24   150   153   am
    25   150   149    1
    26   126   127    2
    27   116   117    2
    28   116   115    1
    29    94    93    1
    30   100    99   ar
    31   149   148    1
    32   205   204    1
    33   128   129    1
    34   101    99   ar
    35    99    98    1
    36   169   167   am
    37   204   203    1
    38   155   156    2
    39   148   143   am
    40   114   115    1
    41   115   118    1
    42   137   141   am
    43   137   138    2
    44    88    87    2
    45   168   167    2
    46   167   166    1
    47   141   142    1
    48    93    87   am
    49   129   130   ar
    50   129   131   ar
    51   203   202    1
    52   202   199    1
    53    87    86    1
    54   143   142    1
    55   143   144    2
    56   147   145    1
    57   165   166    1
    58   165   162    1
    59   118   119    1
    60   130   132   ar
    61   142   145    1
    62   131   133   ar
    63   224   223    1
    64   224   225    1
    65   201   200    2
    66   161   162    1
    67   200   199    1
    68   145   146    1
    69   111   110    2
    70   199   198    1
    71   223   220    1
    72   119   120   ar
    73   119   121   ar
    74   162   163    1
    75   225   226    1
    76   120   122   ar
    77   219   220    1
    78    86    85    1
    79    86    89    1
    80   132   134   ar
    81   133   134   ar
    82   110   109    1
    83   121   123   ar
    84   198   194   am
    85   228   227    1
    86   164   163    2
    87   220   221    1
    88   122   123   ar
    89    89    90    1
    90   163   170   am
    91    80    79    2
    92   105   104    2
    93   226   227    2
    94   221   222    2
    95   194   195    2
    96   194   193    1
    97    79    78    1
    98   227   229    1
    99   211   212    2
   100   211   210    1
   101   192   193    1
   102   170   171    1
   103   102   103    1
   104   175   174    1
   105   109   108    1
   106   109   112    1
   107   104   108   am
   108   104   103    1
   109    90    91    1
   110   193   196    1
   111    84    83    1
   112   196   197    1
   113   209   210    1
   114    81    78    1
   115    81    82    1
   116   103   106    1
   117   171   174    1
   118   171   172    1
   119   112   113    1
   120   210   213    1
   121    78    77    1
   122    91    92    1
   123    75    74    1
   124   213   214    1
   125    73    72    2
   126   106   107    1
   127    82    83    1
   128    77    72   am
   129   172   173    2
   130    72    71    1
   131   235   234    1
   132    69    68    1
   133    68    66   ar
   134    68    67   ar
   135    66    64   ar
   136    74    76    1
   137    74    71    1
   138   214   216   ar
   139   214   215   ar
   140    64    63   ar
   141    67    65   ar
   142   181   180    1
   143   230   231    1
   144    35    37   ar
   145    35    33   ar
   146    27    28    1
   147    71    70    1
   148    63    65   ar
   149    63    62    1
   150    70    60   am
   151   216   218   ar
   152    62    59    1
   153    37    36   ar
   154   236   234    1
   155   234   231    1
   156    33    32   ar
   157   215   217   ar
   158   176   177    1
   159   232   231    1
   160   232   233    2
   161   180   177    1
   162    60    59    1
   163    60    61    2
   164    59    58    1
   165    36    34   ar
   166    28    31    1
   167    28    29    1
   168    32    34   ar
   169    32    31    1
   170   218   217   ar
   171   189   191   ar
   172   189   187   ar
   173   177   178    1
   174   191   190   ar
   175    29    30    2
   176    46    45    1
   177   182   178   am
   178   182   183    1
   179    58    49   am
   180    44    45    1
   181    44    43    1
   182   187   186    1
   183   187   188   ar
   184   178   179    2
   185    50    49    2
   186   186   183    1
   187   190   188   ar
   188    49    48    1
   189   183   184    1
   190    43    42    1
   191    42    39    1
   192   185   184    2
   193   247   245    1
   194   246   245    1
   195    25    24    1
   196    41    40    2
   197    48    47    1
   198    48    51    1
   199   245   244    2
   200    40    47   am
   201    40    39    1
   202    26    24    1
   203    39    38    1
   204    11     9   ar
   205    11    10   ar
   206   237   238    1
   207     9     7   ar
   208    24    21    1
   209    52    51    1
   210    52    53    1
   211    10     8   ar
   212   244   243    1
   213    57    55    1
   214    54    55    2
   215    54    53    1
   216     7     6   ar
   217   242   243    1
   218   242   241    1
   219     8     6   ar
   220    55    56    1
   221     6     5    1
   222    18    17    1
   223   238   241    1
   224   238   239    1
   225    19    17    1
   226    21    22    1
   227    21    20    1
   228    22    23    2
   229   240   239    2
   230     5     2    1
   231    17    16    1
   232    16    13    1
   233     2     1    1
   234     2     3    1
   235     4     3    2
   236    13    12    1
   237    13    14    1
   238    14    15    2
