@<TRIPOS>MOLECULE
tmp/3ov0A09.pdb
 180 178 0 0 0
SMALL
GASTEIGER

@<TRIPOS>ATOM
      1  N         14.9910    5.9890   18.9370 N.3   169  PHE169     -0.1241
      2  CA        16.0730    5.6690   19.8560 C.3   169  PHE169      0.1605
      3  C         15.5450    5.9810   21.2520 C.2   169  PHE169      0.2264
      4  O         15.1350    7.1110   21.5340 O.2   169  PHE169     -0.2867
      5  CB        17.3300    6.4990   19.5580 C.3   169  PHE169      0.0534
      6  CG        17.9870    6.1650   18.2480 C.ar  169  PHE169     -0.0203
      7  CD1       17.5760    6.7790   17.0710 C.ar  169  PHE169     -0.0042
      8  CD2       19.0120    5.2230   18.1910 C.ar  169  PHE169     -0.0042
      9  CE1       18.1830    6.4650   15.8570 C.ar  169  PHE169     -0.0003
     10  CE2       19.6260    4.9000   16.9820 C.ar  169  PHE169     -0.0003
     11  CZ        19.2090    5.5210   15.8140 C.ar  169  PHE169     -0.0000
     12  N         15.0440    9.9940   20.4810 N.3   177  ALA177     -0.1231
     13  CA        15.7980   10.3490   19.2730 C.3   177  ALA177      0.1694
     14  C         15.1360    9.8010   18.0030 C.2   177  ALA177      0.2592
     15  O         15.1320    8.5920   17.7500 O.2   177  ALA177     -0.2718
     16  CB        17.2420    9.8280   19.3780 C.3   177  ALA177      0.0304
     17  N         14.5820   10.7100   17.2100 N.am  178  ALA178     -0.1966
     18  CA        13.9140   10.3620   15.9650 C.3   178  ALA178      0.1728
     19  C         14.8030   10.6220   14.7510 C.2   178  ALA178      0.2616
     20  O         15.3930   11.6890   14.6060 O.2   178  ALA178     -0.2715
     21  CB        12.6230   11.1600   15.8310 C.3   178  ALA178      0.0334
     22  N         14.8840    9.6360   13.8720 N.am  179  PHE179     -0.1960
     23  CA        15.6760    9.7420   12.6560 C.3   179  PHE179      0.1771
     24  C         14.8110    9.2000   11.5370 C.2   179  PHE179      0.2620
     25  O         14.1680    8.1760   11.7190 O.2   179  PHE179     -0.2715
     26  CB        16.9260    8.8950   12.7920 C.3   179  PHE179      0.0574
     27  CG        17.4170    8.3420   11.5030 C.ar  179  PHE179     -0.0200
     28  CD1       17.9490    9.1720   10.5320 C.ar  179  PHE179     -0.0042
     29  CD2       17.3370    6.9880   11.2580 C.ar  179  PHE179     -0.0042
     30  CE1       18.4010    8.6560    9.3430 C.ar  179  PHE179     -0.0003
     31  CE2       17.7830    6.4650   10.0760 C.ar  179  PHE179     -0.0003
     32  CZ        18.3150    7.2960    9.1130 C.ar  179  PHE179     -0.0000
     33  N         14.7840    9.8680   10.3880 N.am  180  SER180     -0.1950
     34  CA        13.9480    9.3970    9.2710 C.3   180  SER180      0.1924
     35  C         14.6870    8.7300    8.0920 C.2   180  SER180      0.2314
     36  O         15.4620    9.3760    7.3840 O.2   180  SER180     -0.2863
     37  CB        13.0640   10.5510    8.7590 C.3   180  SER180      0.2116
     38  OG        13.6400   11.8200    9.0530 O.3   180  SER180     -0.2180
     39  N         13.3360    9.9440    4.2680 N.3   183  PHE183     -0.1227
     40  CA        14.0530   11.1510    3.9120 C.3   183  PHE183      0.1736
     41  C         15.5650   11.0360    3.8010 C.2   183  PHE183      0.2595
     42  O         16.1850   11.7970    3.0640 O.2   183  PHE183     -0.2718
     43  CB        13.7160   12.2450    4.8940 C.3   183  PHE183      0.0547
     44  CG        14.4980   13.4880    4.6970 C.ar  183  PHE183     -0.0202
     45  CD1       13.8990   14.6030    4.1490 C.ar  183  PHE183     -0.0042
     46  CD2       15.8000   13.5790    5.1510 C.ar  183  PHE183     -0.0042
     47  CE1       14.5780   15.8090    4.0660 C.ar  183  PHE183     -0.0003
     48  CE2       16.4960   14.7740    5.0770 C.ar  183  PHE183     -0.0003
     49  CZ        15.8850   15.9020    4.5350 C.ar  183  PHE183     -0.0000
     50  N         16.1810   10.1210    4.5350 N.am  184  HIS184     -0.1975
     51  CA        17.6350   10.0020    4.4350 C.3   184  HIS184      0.1656
     52  C         18.0390    9.1230    3.2600 C.2   184  HIS184      0.2291
     53  O         19.2170    9.0240    2.9360 O.2   184  HIS184     -0.2864
     54  CB        18.2600    9.4660    5.7400 C.3   184  HIS184      0.0771
     55  CG        18.7710   10.5420    6.6580 C.ar  184  HIS184      0.0820
     56  ND1       17.9680   11.3270    7.4540 N.ar  184  HIS184     -0.2267
     57  CD2       20.0340   10.9900    6.8650 C.ar  184  HIS184      0.1154
     58  CE1       18.7550   12.2110    8.0990 C.ar  184  HIS184      0.1986
     59  NE2       20.0230   12.0510    7.7780 N.ar  184  HIS184     -0.2212
     60  N         18.5660   10.6260   -0.6610 N.3   187  MET187     -0.1230
     61  CA        19.6720   11.5220   -0.4640 C.3   187  MET187      0.1702
     62  C         20.9380   10.6920   -0.3990 C.2   187  MET187      0.2592
     63  O         22.0290   11.2240   -0.5880 O.2   187  MET187     -0.2718
     64  CB        19.4470   12.2640    0.8540 C.3   187  MET187      0.0401
     65  CG        20.4010   13.3930    1.1510 C.3   187  MET187      0.0596
     66  SD        20.3870   13.7800    2.9180 S.3   187  MET187     -0.1393
     67  CE        19.1550   14.9920    2.9740 C.3   187  MET187      0.0692
     68  N         20.7880    9.3910   -0.1410 N.am  188  TYR188     -0.1976
     69  CA        21.9360    8.4740   -0.0260 C.3   188  TYR188      0.1639
     70  C         21.6760    7.0360   -0.4590 C.2   188  TYR188      0.2290
     71  O         20.5320    6.6270   -0.6700 O.2   188  TYR188     -0.2864
     72  CB        22.4430    8.4050    1.4140 C.3   188  TYR188      0.0560
     73  CG        23.2070    9.6060    1.9020 C.ar  188  TYR188     -0.0198
     74  CD1       22.5530   10.7910    2.2270 C.ar  188  TYR188     -0.0009
     75  CD2       24.5840    9.5390    2.0880 C.ar  188  TYR188     -0.0009
     76  CE1       23.2470   11.8700    2.7290 C.ar  188  TYR188      0.0417
     77  CE2       25.2820   10.6140    2.5890 C.ar  188  TYR188      0.0417
     78  CZ        24.6090   11.7730    2.9130 C.ar  188  TYR188      0.1957
     79  OH        25.2960   12.8280    3.4580 O.3   188  TYR188     -0.2866
     80  N         26.3600    3.8090    1.7960 N.3   192  GLU192     -0.1231
     81  CA        26.9910    5.0800    2.1610 C.3   192  GLU192      0.1699
     82  C         27.1290    5.0190    3.6570 C.2   192  GLU192      0.2592
     83  O         28.0860    5.5320    4.2320 O.2   192  GLU192     -0.2718
     84  CB        26.1110    6.2580    1.7730 C.3   192  GLU192      0.0402
     85  CG        26.1020    6.5730    0.2920 C.3   192  GLU192      0.1161
     86  CD        27.4160    6.9970   -0.2990 C.2   192  GLU192      0.3649
     87  OE1       28.3260    7.2880    0.5470 O.co2 192  GLU192     -0.2457
     88  OE2       27.5450    7.0800   -1.5230 O.co2 192  GLU192     -0.2457
     89  N         26.1310    4.3680    4.2550 N.am  193  CYS193     -0.1970
     90  CA        26.0070    4.1430    5.6890 C.3   193  CYS193      0.1712
     91  C         26.3080    2.6700    5.9390 C.2   193  CYS193      0.2296
     92  O         27.4750    2.2920    6.0150 O.2   193  CYS193     -0.2864
     93  CB        24.5880    4.4650    6.1500 C.3   193  CYS193      0.0983
     94  SG        24.0570    6.1570    5.7640 S.3   193  CYS193     -0.0798
     95  N         28.9300    2.8730    9.1740 N.3   197  LEU197     -0.1231
     96  CA        28.2220    3.8370   10.0060 C.3   197  LEU197      0.1693
     97  C         27.1800    3.1720   10.9080 C.2   197  LEU197      0.2592
     98  O         27.0790    3.5030   12.0840 O.2   197  LEU197     -0.2718
     99  CB        27.5680    4.9030    9.1290 C.3   197  LEU197      0.0284
    100  CG        28.4810    5.9400    8.5510 C.3   197  LEU197      0.0019
    101  CD1       29.5930    5.3930    7.7480 C.3   197  LEU197      0.0001
    102  CD2       27.6760    6.9910    7.7700 C.3   197  LEU197      0.0001
    103  N         26.3960    2.2470   10.3610 N.am  198  PHE198     -0.1976
    104  CA        25.3790    1.5520   11.1520 C.3   198  PHE198      0.1639
    105  C         25.2280    0.1110   10.6770 C.2   198  PHE198      0.2290
    106  O         25.6620   -0.2370    9.5800 O.2   198  PHE198     -0.2864
    107  CB        24.0290    2.2700   11.0580 C.3   198  PHE198      0.0560
    108  CG        24.0910    3.7370   11.3930 C.ar  198  PHE198     -0.0200
    109  CD1       24.6190    4.6510   10.4880 C.ar  198  PHE198     -0.0042
    110  CD2       23.6280    4.2060   12.6130 C.ar  198  PHE198     -0.0042
    111  CE1       24.6840    6.0110   10.7870 C.ar  198  PHE198     -0.0003
    112  CE2       23.6870    5.5670   12.9240 C.ar  198  PHE198     -0.0003
    113  CZ        24.2180    6.4690   12.0070 C.ar  198  PHE198     -0.0000
    114  N         28.5640    7.2440   13.9020 N.3   217  SER217     -0.1202
    115  CA        27.1190    7.4760   13.9450 C.3   217  SER217      0.2020
    116  C         26.7590    8.8000   13.2880 C.2   217  SER217      0.2619
    117  O         27.5020    9.3040   12.4480 O.2   217  SER217     -0.2717
    118  CB        26.5980    7.4640   15.3780 C.3   217  SER217      0.2103
    119  OG        25.1870    7.5810   15.3850 O.3   217  SER217     -0.2182
    120  N         25.6240    9.3660   13.6670 N.am  218  CYS218     -0.1969
    121  CA        25.1960   10.6250   13.0880 C.3   218  CYS218      0.1712
    122  C         26.3320   11.6160   12.8670 C.2   218  CYS218      0.2296
    123  O         26.3340   12.3690   11.8880 O.2   218  CYS218     -0.2864
    124  CB        24.1290   11.2400   13.9660 C.3   218  CYS218      0.0983
    125  SG        22.7300   10.1070   14.1130 S.3   218  CYS218     -0.0798
    126  N         28.4940   12.3300    9.5940 N.3   221  CYS221     -0.1221
    127  CA        28.0800   13.3190    8.6090 C.3   221  CYS221      0.1808
    128  C         27.7030   14.6140    9.3080 C.2   221  CYS221      0.2601
    129  O         28.1710   15.6910    8.9360 O.2   221  CYS221     -0.2717
    130  CB        26.8830   12.8030    7.8110 C.3   221  CYS221      0.0970
    131  SG        27.2120   11.2650    6.9000 S.3   221  CYS221     -0.0800
    132  N         26.8430   14.5080   10.3130 N.am  222  HIS222     -0.1975
    133  CA        26.4290   15.6810   11.0600 C.3   222  HIS222      0.1656
    134  C         27.6090   16.1290   11.9070 C.2   222  HIS222      0.2291
    135  O         27.9610   15.4860   12.8960 O.2   222  HIS222     -0.2864
    136  CB        25.2400   15.3340   11.9360 C.3   222  HIS222      0.0771
    137  CG        23.9720   15.1310   11.1720 C.ar  222  HIS222      0.0820
    138  ND1       23.1400   16.1550   10.7720 N.ar  222  HIS222     -0.2267
    139  CD2       23.3820   13.9870   10.7380 C.ar  222  HIS222      0.1154
    140  CE1       22.0940   15.6100   10.1320 C.ar  222  HIS222      0.1986
    141  NE2       22.1920   14.2980   10.0820 N.ar  222  HIS222     -0.2212
    142  N         29.5590   18.4460    6.3690 N.3   226  ASP226     -0.1225
    143  CA        28.7960   17.6680    5.3850 C.3   226  ASP226      0.1805
    144  C         27.2880   17.8240    5.5970 C.2   226  ASP226      0.2598
    145  O         26.5340   18.0500    4.6460 O.2   226  ASP226     -0.2718
    146  CB        29.1730   16.1860    5.4860 C.3   226  ASP226      0.1424
    147  CG        30.6780   15.9610    5.4640 C.2   226  ASP226      0.3668
    148  OD1       31.3200   16.3410    4.4590 O.co2 226  ASP226     -0.2456
    149  OD2       31.2160   15.4060    6.4510 O.co2 226  ASP226     -0.2456
    150  N         26.8690   17.6820    6.8540 N.am  227  ALA227     -0.1966
    151  CA        25.4720   17.8180    7.2610 C.3   227  ALA227      0.1728
    152  C         25.4610   18.7650    8.4580 C.2   227  ALA227      0.2616
    153  O         26.5200   19.2040    8.8990 O.2   227  ALA227     -0.2715
    154  CB        24.9160   16.4740    7.6520 C.3   227  ALA227      0.0334
    155  N         24.2910   19.0720    9.0060 N.am  228  PHE228     -0.1974
    156  CA        24.2410   20.0060   10.1270 C.3   228  PHE228      0.1639
    157  C         24.8840   19.5070   11.4180 C.2   228  PHE228      0.2290
    158  O         24.8560   18.3180   11.7330 O.2   228  PHE228     -0.2864
    159  CB        22.8020   20.4620   10.3780 C.3   228  PHE228      0.0560
    160  CG        22.0610   19.6410   11.3780 C.ar  228  PHE228     -0.0200
    161  CD1       22.1420   19.9350   12.7240 C.ar  228  PHE228     -0.0042
    162  CD2       21.2640   18.5840   10.9700 C.ar  228  PHE228     -0.0042
    163  CE1       21.4310   19.1930   13.6480 C.ar  228  PHE228     -0.0003
    164  CE2       20.5500   17.8360   11.8870 C.ar  228  PHE228     -0.0003
    165  CZ        20.6330   18.1390   13.2300 C.ar  228  PHE228     -0.0000
    166  N         16.2020   19.1170   16.6460 N.3   236  LYS236     -0.1231
    167  CA        16.0310   18.3710   15.4020 C.3   236  LYS236      0.1693
    168  C         15.9080   16.8740   15.6540 C.2   236  LYS236      0.2592
    169  O         14.8140   16.3170   15.5860 O.2   236  LYS236     -0.2718
    170  CB        17.2080   18.6310   14.4590 C.3   236  LYS236      0.0285
    171  CG        17.4650   20.1070   14.1630 C.3   236  LYS236      0.0035
    172  CD        16.2670   20.7980   13.5200 C.3   236  LYS236      0.0206
    173  CE        16.5590   22.2770   13.2850 C.3   236  LYS236      0.1093
    174  NZ        17.8140   22.4970   12.5000 N.3   236  LYS236     -0.1314
    175  N         17.0280   16.2230   15.9420 N.am  237  CYS237     -0.1970
    176  CA        17.0120   14.7920   16.1910 C.3   237  CYS237      0.1712
    177  C         16.1730   14.4240   17.4130 C.2   237  CYS237      0.2296
    178  O         15.4740   13.4080   17.4090 O.2   237  CYS237     -0.2864
    179  CB        18.4300   14.2900   16.3750 C.3   237  CYS237      0.0983
    180  SG        19.5520   14.9070   15.0930 S.3   237  CYS237     -0.0798
@<TRIPOS>BOND
     1    88    86   ar
     2    71    70    2
     3    60    61    1
     4    63    62    2
     5    61    62    1
     6    61    64    1
     7    70    69    1
     8    62    68   am
     9    86    85    1
    10    86    87   ar
    11    68    69    1
    12    69    72    1
    13    85    84    1
    14    64    65    1
    15    65    66    1
    16    72    73    1
    17    84    81    1
    18    80    81    1
    19    73    75   ar
    20    73    74   ar
    21    75    77   ar
    22    81    82    1
    23    74    76   ar
    24    77    78   ar
    25    76    78   ar
    26    78    79    1
    27    66    67    1
    28    53    52    2
    29    42    41    2
    30    52    51    1
    31    82    83    2
    32    82    89   am
    33    41    40    1
    34    41    50   am
    35    40    39    1
    36    40    43    1
    37    47    45   ar
    38    47    49   ar
    39    45    44   ar
    40    89    90    1
    41    51    50    1
    42    51    54    1
    43   148   147   ar
    44    49    48   ar
    45   145   144    2
    46    44    43    1
    47    44    46   ar
    48    48    46   ar
    49   143   146    1
    50   143   144    1
    51   143   142    1
    52   147   146    1
    53   147   149   ar
    54   144   150   am
    55    90    91    1
    56    90    93    1
    57    54    55    1
    58    94    93    1
    59    91    92    2
    60    55    57   ar
    61    55    56   ar
    62   150   151    1
    63    57    59   ar
    64   131   130    1
    65   151   154    1
    66   151   152    1
    67    36    35    2
    68    56    58   ar
    69   101   100    1
    70   102   100    1
    71    59    58   ar
    72   130   127    1
    73    35    34    1
    74   152   153    2
    75   152   155   am
    76   100    99    1
    77   127   128    1
    78   127   126    1
    79    37    38    1
    80    37    34    1
    81   129   128    2
    82   155   156    1
    83    32    30   ar
    84    32    31   ar
    85    99    96    1
    86    95    96    1
    87    34    33    1
    88   128   132   am
    89    30    28   ar
    90   106   105    2
    91    96    97    1
    92    31    29   ar
    93   141   140   ar
    94   141   139   ar
    95   156   159    1
    96   156   157    1
    97   140   138   ar
    98   132   133    1
    99   103    97   am
   100   103   104    1
   101   159   160    1
   102    33    24   am
   103   109   111   ar
   104   109   108   ar
   105    28    27   ar
   106   105   104    1
   107   139   137   ar
   108   138   137   ar
   109   111   113   ar
   110    97    98    2
   111   162   160   ar
   112   162   164   ar
   113   107   104    1
   114   107   108    1
   115   133   134    1
   116   133   136    1
   117   137   136    1
   118    29    27   ar
   119   160   161   ar
   120   108   110   ar
   121   157   158    2
   122    27    26    1
   123    24    25    2
   124    24    23    1
   125   164   165   ar
   126   123   122    2
   127   134   135    2
   128   113   112   ar
   129   117   116    2
   130   174   173    1
   131   110   112   ar
   132    23    26    1
   133    23    22    1
   134   161   163   ar
   135   122   121    1
   136   121   120    1
   137   121   124    1
   138   165   163   ar
   139   173   172    1
   140   116   120   am
   141   116   115    1
   142   172   171    1
   143    22    19   am
   144   114   115    1
   145   115   118    1
   146   124   125    1
   147   171   170    1
   148   170   167    1
   149    20    19    2
   150    19    18    1
   151   180   179    1
   152   118   119    1
   153   167   168    1
   154   167   166    1
   155   169   168    2
   156   168   175   am
   157    11     9   ar
   158    11    10   ar
   159    21    18    1
   160     9     7   ar
   161   175   176    1
   162    18    17    1
   163   176   179    1
   164   176   177    1
   165    10     8   ar
   166     7     6   ar
   167    17    14   am
   168   178   177    2
   169    15    14    2
   170    14    13    1
   171     8     6   ar
   172     6     5    1
   173     1     2    1
   174    13    16    1
   175    13    12    1
   176     5     2    1
   177     2     3    1
   178     3     4    2
