@<TRIPOS>MOLECULE
tmp/3ov2C00.pdb
 100 94 0 0 0
SMALL
GASTEIGER

@<TRIPOS>ATOM
      1  N         16.5830   17.6190  -23.7430 N.3   163  CYS163     -0.1235
      2  CA        15.5910   18.5650  -24.2290 C.3   163  CYS163      0.1677
      3  C         14.1730   17.9990  -24.3350 C.2   163  CYS163      0.2270
      4  O         13.2020   18.7540  -24.3260 O.2   163  CYS163     -0.2867
      5  CB        16.0520   19.1260  -25.5730 C.3   163  CYS163      0.0956
      6  SG        17.6610   19.9190  -25.4620 S.3   163  CYS163     -0.0801
      7  N         21.9800   27.8230  -27.5540 N.3   214  PHE214     -0.1241
      8  CA        21.2630   27.6160  -26.3060 C.3   214  PHE214      0.1605
      9  C         20.9870   28.9310  -25.5880 C.2   214  PHE214      0.2264
     10  O         21.8890   29.7740  -25.4520 O.2   214  PHE214     -0.2867
     11  CB        22.0210   26.6640  -25.3670 C.3   214  PHE214      0.0534
     12  CG        22.1010   25.2280  -25.8610 C.ar  214  PHE214     -0.0203
     13  CD1       20.9420   24.5030  -26.1620 C.ar  214  PHE214     -0.0042
     14  CD2       23.3420   24.5860  -25.9810 C.ar  214  PHE214     -0.0042
     15  CE1       21.0160   23.1880  -26.5970 C.ar  214  PHE214     -0.0003
     16  CE2       23.4390   23.2470  -26.4300 C.ar  214  PHE214     -0.0003
     17  CZ        22.2780   22.5440  -26.7380 C.ar  214  PHE214     -0.0000
     18  N         23.4230   12.5120  -30.5060 N.3   253  VAL253     -0.1245
     19  CA        23.3430   13.7100  -29.6900 C.3   253  VAL253      0.1561
     20  C         23.3580   13.2330  -28.2580 C.2   253  VAL253      0.2260
     21  O         22.8600   12.1480  -27.9490 O.2   253  VAL253     -0.2867
     22  CB        22.0500   14.5430  -29.9840 C.3   253  VAL253      0.0252
     23  CG1       20.7370   13.7500  -29.6430 C.3   253  VAL253      0.0019
     24  CG2       22.0980   15.9630  -29.3210 C.3   253  VAL253      0.0019
     25  N         21.9990   14.3500  -37.4180 N.3   270  LEU270     -0.1245
     26  CA        20.9360   14.3980  -36.4200 C.3   270  LEU270      0.1561
     27  C         19.5600   14.8510  -36.9730 C.2   270  LEU270      0.2260
     28  O         18.5330   14.2390  -36.6480 O.2   270  LEU270     -0.2867
     29  CB        21.3590   15.2560  -35.2310 C.3   270  LEU270      0.0270
     30  CG        20.3320   15.5440  -34.1230 C.3   270  LEU270      0.0019
     31  CD1       19.8030   14.2680  -33.4610 C.3   270  LEU270      0.0001
     32  CD2       20.9380   16.4730  -33.0920 C.3   270  LEU270      0.0001
     33  N         16.2500   12.3970  -36.4780 N.3   274  ILE274     -0.1245
     34  CA        14.9890   12.8000  -35.8410 C.3   274  ILE274      0.1561
     35  C         13.7780   12.7360  -36.7890 C.2   274  ILE274      0.2260
     36  O         12.7420   12.1540  -36.4530 O.2   274  ILE274     -0.2867
     37  CB        15.0810   14.2160  -35.2020 C.3   274  ILE274      0.0252
     38  CG1       16.0240   14.1990  -33.9980 C.3   274  ILE274      0.0019
     39  CG2       13.6940   14.7430  -34.7770 C.3   274  ILE274      0.0019
     40  CD1       16.6490   15.5550  -33.6890 C.3   274  ILE274      0.0001
     41  N          9.2870   20.9990  -30.1470 N.3   302  HIS302     -0.1241
     42  CA        10.5920   21.3970  -29.6430 C.3   302  HIS302      0.1621
     43  C         11.4540   21.6850  -30.8720 C.2   302  HIS302      0.2264
     44  O         11.5870   20.8300  -31.7400 O.2   302  HIS302     -0.2867
     45  CB        11.2380   20.3220  -28.7760 C.3   302  HIS302      0.0745
     46  CG        12.6470   20.6510  -28.4080 C.ar  302  HIS302      0.0817
     47  ND1       12.9640   21.6680  -27.5310 N.ar  302  HIS302     -0.2268
     48  CD2       13.8240   20.1560  -28.8540 C.ar  302  HIS302      0.1154
     49  CE1       14.2770   21.7670  -27.4340 C.ar  302  HIS302      0.1986
     50  NE2       14.8210   20.8700  -28.2360 N.ar  302  HIS302     -0.2212
     51  N         14.8230   22.4070  -31.3250 N.3   304  GLY304     -0.1210
     52  CA        16.1130   21.7410  -31.4370 C.3   304  GLY304      0.1956
     53  C         17.1330   22.6820  -32.0460 C.2   304  GLY304      0.2611
     54  O         17.9700   23.2250  -31.3400 O.2   304  GLY304     -0.2717
     55  N         17.0740   22.8330  -33.3700 N.am  305  ASN305     -0.1974
     56  CA        17.8020   23.8680  -34.1130 C.3   305  ASN305      0.1688
     57  C         17.1530   24.0450  -35.4750 C.2   305  ASN305      0.2292
     58  O         16.2410   23.2910  -35.8180 O.2   305  ASN305     -0.2864
     59  CB        19.3330   23.5880  -34.2240 C.3   305  ASN305      0.1181
     60  CG        19.6690   22.3170  -34.9940 C.2   305  ASN305      0.2629
     61  OD1       20.5690   21.5580  -34.5930 O.2   305  ASN305     -0.2716
     62  ND2       18.9840   22.0850  -36.1100 N.am  305  ASN305     -0.0877
     63  N         16.9540   21.0740  -37.8500 N.3   308  ILE308     -0.1245
     64  CA        16.0510   20.0370  -37.3670 C.3   308  ILE308      0.1561
     65  C         14.6270   20.3960  -37.7830 C.2   308  ILE308      0.2260
     66  O         13.9260   19.5470  -38.3010 O.2   308  ILE308     -0.2867
     67  CB        16.2040   19.7720  -35.8190 C.3   308  ILE308      0.0252
     68  CG1       17.5500   19.0790  -35.5150 C.3   308  ILE308      0.0019
     69  CG2       15.0570   18.9010  -35.2770 C.3   308  ILE308      0.0019
     70  CD1       17.9730   19.0630  -34.0120 C.3   308  ILE308      0.0001
     71  N         17.4290   27.8990  -28.3420 N.3   335  ASN335     -0.1240
     72  CA        17.0500   26.6210  -27.7840 C.3   335  ASN335      0.1653
     73  C         17.1340   26.6770  -26.2430 C.2   335  ASN335      0.2266
     74  O         18.2390   26.7810  -25.6850 O.2   335  ASN335     -0.2867
     75  CB        17.9490   25.5360  -28.3720 C.3   335  ASN335      0.1155
     76  CG        17.5910   24.1420  -27.9030 C.2   335  ASN335      0.2627
     77  OD1       17.1900   23.9280  -26.7490 O.2   335  ASN335     -0.2716
     78  ND2       17.7840   23.1720  -28.7840 N.am  335  ASN335     -0.0877
     79  N         12.3570   15.8730  -28.3520 N.3   372  PHE372     -0.1227
     80  CA        13.3960   14.9100  -28.6960 C.3   372  PHE372      0.1736
     81  C         14.7040   15.2850  -28.0230 C.2   372  PHE372      0.2596
     82  O         14.9740   16.4600  -27.7700 O.2   372  PHE372     -0.2718
     83  CB        13.5690   14.7570  -30.2210 C.3   372  PHE372      0.0547
     84  CG        13.3720   16.0180  -30.9800 C.ar  372  PHE372     -0.0202
     85  CD1       12.1320   16.3240  -31.5340 C.ar  372  PHE372     -0.0042
     86  CD2       14.4140   16.9170  -31.1280 C.ar  372  PHE372     -0.0042
     87  CE1       11.9320   17.5060  -32.2280 C.ar  372  PHE372     -0.0003
     88  CE2       14.2310   18.1140  -31.8330 C.ar  372  PHE372     -0.0003
     89  CZ        12.9830   18.4040  -32.3800 C.ar  372  PHE372     -0.0000
     90  N         15.4970   14.2700  -27.6980 N.am  373  GLY373     -0.1943
     91  CA        16.8120   14.4680  -27.0780 C.3   373  GLY373      0.1998
     92  C         17.5660   13.1570  -27.1300 C.2   373  GLY373      0.2480
     93  O         17.1230   12.2230  -27.8170 O.2   373  GLY373     -0.2729
     94  N         18.7030   13.0760  -26.4100 N.am  374  PRO374     -0.2726
     95  CA        19.5660   11.9080  -26.2860 C.3   374  PRO374      0.1402
     96  C         18.8360   10.6080  -25.9990 C.2   374  PRO374      0.2269
     97  O         17.9320   10.5440  -25.1600 O.2   374  PRO374     -0.2865
     98  CB        20.4870   12.2540  -25.1040 C.3   374  PRO374      0.0296
     99  CG        20.2930   13.6810  -24.8130 C.3   374  PRO374      0.0237
    100  CD        19.3530   14.2660  -25.8270 C.3   374  PRO374      0.0939
@<TRIPOS>BOND
     1    66    65    2
     2    63    64    1
     3    65    64    1
     4    25    26    1
     5    64    67    1
     6    27    28    2
     7    27    26    1
     8    35    36    2
     9    35    34    1
    10    33    34    1
    11    26    29    1
    12    62    60   am
    13    34    37    1
    14    67    68    1
    15    67    69    1
    16    58    57    2
    17    68    70    1
    18    57    56    1
    19    29    30    1
    20    37    39    1
    21    37    38    1
    22    60    61    2
    23    60    59    1
    24    59    56    1
    25    30    31    1
    26    30    32    1
    27    56    55    1
    28    38    40    1
    29    55    53   am
    30    89    87   ar
    31    89    88   ar
    32    87    85   ar
    33    53    52    1
    34    53    54    2
    35    88    86   ar
    36    44    43    2
    37    85    84   ar
    38    52    51    1
    39    86    84   ar
    40    84    83    1
    41    43    42    1
    42    18    19    1
    43    83    80    1
    44    41    42    1
    45    22    19    1
    46    22    23    1
    47    22    24    1
    48    19    20    1
    49    42    45    1
    50    48    46   ar
    51    48    50   ar
    52    78    76   am
    53    45    46    1
    54    80    79    1
    55    80    81    1
    56    46    47   ar
    57    75    76    1
    58    75    72    1
    59    71    72    1
    60    20    21    2
    61    50    49   ar
    62    81    82    2
    63    81    90   am
    64    76    77    2
    65    93    92    2
    66    72    73    1
    67    90    91    1
    68     7     8    1
    69    47    49   ar
    70    92    91    1
    71    92    94   am
    72    17    15   ar
    73    17    16   ar
    74    15    13   ar
    75    16    14   ar
    76    94    95    1
    77    94   100    1
    78     8     9    1
    79     8    11    1
    80    95    96    1
    81    95    98    1
    82    73    74    2
    83    13    12   ar
    84    96    97    2
    85    14    12   ar
    86    12    11    1
    87   100    99    1
    88     9    10    2
    89     5     6    1
    90     5     2    1
    91    98    99    1
    92     3     4    2
    93     3     2    1
    94     2     1    1
