@<TRIPOS>MOLECULE
tmp/3ov2B00.pdb
 83 76 0 0 0
SMALL
GASTEIGER

@<TRIPOS>ATOM
      1  N         32.2270  -23.4230  -41.5490 N.3   157  ILE157     -0.1245
      2  CA        31.4680  -22.7820  -40.4780 C.3   157  ILE157      0.1561
      3  C         32.2960  -21.6680  -39.8170 C.2   157  ILE157      0.2260
      4  O         33.1430  -21.9300  -38.9450 O.2   157  ILE157     -0.2867
      5  CB        31.0110  -23.7820  -39.3910 C.3   157  ILE157      0.0252
      6  CG1       30.1990  -24.9240  -39.9990 C.3   157  ILE157      0.0019
      7  CG2       30.1690  -23.0870  -38.3650 C.3   157  ILE157      0.0019
      8  CD1       30.8670  -26.2270  -39.8840 C.3   157  ILE157      0.0001
      9  N         31.5050  -19.0410  -35.2970 N.3   160  GLN160     -0.1245
     10  CA        30.7710  -19.5870  -34.1580 C.3   160  GLN160      0.1566
     11  C         31.7950  -19.6480  -33.0470 C.2   160  GLN160      0.2260
     12  O         32.9940  -19.7480  -33.3140 O.2   160  GLN160     -0.2867
     13  CB        30.1990  -20.9630  -34.4770 C.3   160  GLN160      0.0367
     14  CG        29.2720  -20.9740  -35.6840 C.3   160  GLN160      0.0905
     15  CD        28.1050  -19.9890  -35.5470 C.2   160  GLN160      0.2608
     16  OE1       27.4060  -19.9600  -34.5320 O.2   160  GLN160     -0.2717
     17  NE2       27.9160  -19.1630  -36.5600 N.am  160  GLN160     -0.0878
     18  N         32.1880  -23.4750  -28.6220 N.3   163  HIS163     -0.1226
     19  CA        31.4830  -24.7520  -28.6070 C.3   163  HIS163      0.1752
     20  C         31.4130  -25.3820  -29.9890 C.2   163  HIS163      0.2595
     21  O         30.9740  -26.5300  -30.1330 O.2   163  HIS163     -0.2718
     22  CB        30.0690  -24.5480  -28.0700 C.3   163  HIS163      0.0759
     23  CG        29.2470  -23.6120  -28.9020 C.ar  163  HIS163      0.0818
     24  ND1       29.3690  -22.2420  -28.8150 N.ar  163  HIS163     -0.2268
     25  CD2       28.3300  -23.8490  -29.8730 C.ar  163  HIS163      0.1154
     26  CE1       28.5410  -21.6740  -29.6730 C.ar  163  HIS163      0.1986
     27  NE2       27.9030  -22.6270  -30.3270 N.ar  163  HIS163     -0.2212
     28  N         31.8420  -24.6420  -31.0120 N.am  164  MET164     -0.1979
     29  CA        31.7700  -25.1490  -32.3790 C.3   164  MET164      0.1605
     30  C         32.6330  -26.3980  -32.5580 C.2   164  MET164      0.2287
     31  O         32.2850  -27.2690  -33.3450 O.2   164  MET164     -0.2864
     32  CB        32.0690  -24.0640  -33.4430 C.3   164  MET164      0.0413
     33  CG        31.6840  -24.4880  -34.8860 C.3   164  MET164      0.0598
     34  SD        29.8840  -24.7060  -35.0430 S.3   164  MET164     -0.1393
     35  CE        29.7340  -26.2520  -35.9400 C.3   164  MET164      0.0692
     36  N         30.4190  -29.0850  -31.6140 N.3   167  ALA167     -0.1245
     37  CA        29.3420  -29.0730  -32.6110 C.3   167  ALA167      0.1562
     38  C         29.7200  -29.7800  -33.9180 C.2   167  ALA167      0.2260
     39  O         28.8800  -30.4200  -34.5550 O.2   167  ALA167     -0.2867
     40  CB        28.8430  -27.6430  -32.8870 C.3   167  ALA167      0.0290
     41  N         28.8860  -33.3270  -33.8430 N.3   170  ARG170     -0.1231
     42  CA        27.4450  -33.4930  -34.0470 C.3   170  ARG170      0.1694
     43  C         27.1010  -33.5050  -35.5270 C.2   170  ARG170      0.2591
     44  O         26.2820  -34.3140  -35.9520 O.2   170  ARG170     -0.2718
     45  CB        26.6390  -32.4160  -33.2990 C.3   170  ARG170      0.0321
     46  CG        25.1040  -32.5540  -33.4550 C.3   170  ARG170      0.0489
     47  CD        24.3270  -31.6580  -32.4880 C.3   170  ARG170      0.2205
     48  NE        24.9050  -30.3130  -32.3460 N.pl3 170  ARG170     -0.0865
     49  CZ        24.5660  -29.2390  -33.0640 C.cat 170  ARG170      0.5346
     50  NH1       23.6380  -29.3110  -34.0240 N.pl3 170  ARG170      0.1354
     51  NH2       25.1730  -28.0810  -32.8230 N.pl3 170  ARG170      0.1354
     52  N         27.7150  -32.6160  -36.3120 N.am  171  ILE171     -0.1980
     53  CA        27.5010  -32.6080  -37.7680 C.3   171  ILE171      0.1595
     54  C         28.1010  -33.8630  -38.4410 C.2   171  ILE171      0.2287
     55  O         27.4090  -34.5800  -39.1610 O.2   171  ILE171     -0.2864
     56  CB        28.0510  -31.3090  -38.4300 C.3   171  ILE171      0.0276
     57  CG1       27.3420  -30.0850  -37.8510 C.3   171  ILE171      0.0022
     58  CG2       27.8480  -31.3350  -39.9640 C.3   171  ILE171      0.0022
     59  CD1       28.0650  -28.7780  -38.1030 C.3   171  ILE171      0.0001
     60  N         22.4480  -30.5770  -28.6380 N.3   242  GLN242     -0.1245
     61  CA        22.6630  -29.1760  -28.3010 C.3   242  GLN242      0.1566
     62  C         21.5630  -28.6960  -27.3780 C.2   242  GLN242      0.2260
     63  O         20.4130  -29.1090  -27.5080 O.2   242  GLN242     -0.2867
     64  CB        22.6740  -28.3260  -29.5610 C.3   242  GLN242      0.0367
     65  CG        23.0120  -26.8780  -29.3040 C.3   242  GLN242      0.0905
     66  CD        22.8240  -26.0100  -30.5250 C.2   242  GLN242      0.2608
     67  OE1       21.7340  -25.9420  -31.1080 O.2   242  GLN242     -0.2717
     68  NE2       23.8840  -25.3160  -30.9080 N.am  242  GLN242     -0.0878
     69  N         25.3410  -21.7140  -25.2330 N.3   376  SER376     -0.1217
     70  CA        25.1770  -22.9520  -25.9970 C.3   376  SER376      0.1889
     71  C         25.9430  -24.0830  -25.3310 C.2   376  SER376      0.2288
     72  O         27.1120  -23.9090  -24.9760 O.2   376  SER376     -0.2866
     73  CB        25.6950  -22.7870  -27.4310 C.3   376  SER376      0.2089
     74  OG        25.0790  -21.6890  -28.0730 O.3   376  SER376     -0.2183
     75  N         27.1200  -28.0270  -25.8930 N.3   378  GLU378     -0.1245
     76  CA        27.2690  -29.1620  -26.7960 C.3   378  GLU378      0.1567
     77  C         27.7240  -30.3850  -26.0010 C.2   378  GLU378      0.2260
     78  O         28.7700  -30.3620  -25.3550 O.2   378  GLU378     -0.2867
     79  CB        28.2470  -28.8270  -27.9290 C.3   378  GLU378      0.0388
     80  CG        27.8420  -27.6060  -28.7850 C.3   378  GLU378      0.1160
     81  CD        26.8000  -27.9150  -29.8670 C.2   378  GLU378      0.3649
     82  OE1       26.5530  -29.1000  -30.1660 O.co2 378  GLU378     -0.2457
     83  OE2       26.2250  -26.9530  -30.4360 O.co2 378  GLU378     -0.2457
@<TRIPOS>BOND
     1     1     2    1
     2     2     3    1
     3     2     5    1
     4     6     8    1
     5     6     5    1
     6    58    56    1
     7     3     4    2
     8     5     7    1
     9    55    54    2
    10    54    53    1
    11    56    57    1
    12    56    53    1
    13    59    57    1
    14    53    52    1
    15    17    15   am
    16    52    43   am
    17    44    43    2
    18    35    34    1
    19    14    15    1
    20    14    13    1
    21    15    16    2
    22    43    42    1
    23     9    10    1
    24    34    33    1
    25    33    32    1
    26    39    38    2
    27    13    10    1
    28    10    11    1
    29    42    41    1
    30    42    45    1
    31    50    49    1
    32    38    37    1
    33    46    45    1
    34    46    47    1
    35    32    29    1
    36    31    30    2
    37    12    11    2
    38    49    51    1
    39    49    48    2
    40    40    37    1
    41    37    36    1
    42    30    29    1
    43    47    48    1
    44    29    28    1
    45    67    66    2
    46    28    20   am
    47    68    66   am
    48    66    65    1
    49    83    81   ar
    50    27    25   ar
    51    27    26   ar
    52    82    81   ar
    53    21    20    2
    54    20    19    1
    55    25    23   ar
    56    81    80    1
    57    26    24   ar
    58    64    65    1
    59    64    61    1
    60    23    24   ar
    61    23    22    1
    62    80    79    1
    63    60    61    1
    64    18    19    1
    65    19    22    1
    66    61    62    1
    67    74    73    1
    68    79    76    1
    69    63    62    2
    70    73    70    1
    71    76    77    1
    72    76    75    1
    73    77    78    2
    74    70    71    1
    75    70    69    1
    76    71    72    2
