@<TRIPOS>MOLECULE
tmp/3ov2A03.pdb
 86 83 0 0 0
SMALL
GASTEIGER

@<TRIPOS>ATOM
      1  N         25.1280  -14.4630  -45.8470 N.3   130  ILE130     -0.1231
      2  CA        26.4120  -13.7980  -45.9590 C.3   130  ILE130      0.1692
      3  C         26.6470  -12.9000  -44.7400 C.2   130  ILE130      0.2592
      4  O         27.7880  -12.7600  -44.2790 O.2   130  ILE130     -0.2718
      5  CB        26.5120  -13.0090  -47.2720 C.3   130  ILE130      0.0266
      6  CG1       26.4120  -13.9810  -48.4650 C.3   130  ILE130      0.0019
      7  CG2       27.8200  -12.1750  -47.3040 C.3   130  ILE130      0.0020
      8  CD1       26.2220  -13.3110  -49.8470 C.3   130  ILE130      0.0001
      9  N         25.5610  -12.3480  -44.1940 N.am  131  SER131     -0.1952
     10  CA        25.6450  -11.2160  -43.2640 C.3   131  SER131      0.1924
     11  C         25.1850  -11.5260  -41.8440 C.2   131  SER131      0.2314
     12  O         24.5250  -12.5380  -41.5900 O.2   131  SER131     -0.2863
     13  CB        24.7920  -10.0420  -43.7870 C.3   131  SER131      0.2116
     14  OG        24.9130   -9.8930  -45.1880 O.3   131  SER131     -0.2180
     15  N         19.3000  -13.0610  -47.1380 N.3   190  GLU190     -0.1231
     16  CA        20.3350  -12.1860  -47.6320 C.3   190  GLU190      0.1699
     17  C         19.8060  -10.7760  -47.6810 C.2   190  GLU190      0.2592
     18  O         18.6760  -10.5320  -48.1370 O.2   190  GLU190     -0.2718
     19  CB        20.7660  -12.6330  -49.0330 C.3   190  GLU190      0.0402
     20  CG        21.2200  -14.0910  -49.1190 C.3   190  GLU190      0.1161
     21  CD        22.6010  -14.3520  -48.4850 C.2   190  GLU190      0.3649
     22  OE1       23.1680  -13.4530  -47.8050 O.co2 190  GLU190     -0.2457
     23  OE2       23.1170  -15.4770  -48.6680 O.co2 190  GLU190     -0.2457
     24  N         20.6310   -9.8520  -47.1960 N.am  191  ILE191     -0.1966
     25  CA        20.3450   -8.4190  -47.2160 C.3   191  ILE191      0.1727
     26  C         21.6560   -7.6660  -47.5830 C.2   191  ILE191      0.2616
     27  O         22.6620   -7.7760  -46.8850 O.2   191  ILE191     -0.2715
     28  CB        19.7550   -7.9360  -45.8480 C.3   191  ILE191      0.0290
     29  CG1       18.3490   -8.5240  -45.6140 C.3   191  ILE191      0.0022
     30  CG2       19.7070   -6.4230  -45.7850 C.3   191  ILE191      0.0023
     31  CD1       17.7710   -8.3170  -44.1770 C.3   191  ILE191      0.0001
     32  N         21.5990   -6.9170  -48.6840 N.am  192  THR192     -0.1951
     33  CA        22.7470   -6.3000  -49.3560 C.3   192  THR192      0.1897
     34  C         23.2730   -4.9990  -48.7280 C.2   192  THR192      0.2313
     35  O         23.9580   -4.2310  -49.3830 O.2   192  THR192     -0.2863
     36  CB        22.3910   -6.0210  -50.8560 C.3   192  THR192      0.1794
     37  OG1       21.1260   -5.3470  -50.9150 O.3   192  THR192     -0.2208
     38  CG2       22.2710   -7.3310  -51.6240 C.3   192  THR192      0.0378
     39  N         25.6030   -4.7240  -46.7050 N.3   194  LEU194     -0.1231
     40  CA        27.0440   -4.8560  -46.5340 C.3   194  LEU194      0.1693
     41  C         27.8360   -4.7020  -47.8240 C.2   194  LEU194      0.2592
     42  O         29.0520   -4.5630  -47.7890 O.2   194  LEU194     -0.2718
     43  CB        27.3810   -6.2060  -45.8800 C.3   194  LEU194      0.0284
     44  CG        27.6030   -6.2190  -44.3690 C.3   194  LEU194      0.0019
     45  CD1       27.2730   -7.5930  -43.7800 C.3   194  LEU194      0.0001
     46  CD2       29.0730   -5.8170  -44.0680 C.3   194  LEU194      0.0001
     47  N         27.1610   -4.7550  -48.9610 N.am  195  SER195     -0.1952
     48  CA        27.8400   -4.6080  -50.2520 C.3   195  SER195      0.1924
     49  C         27.3400   -3.3780  -51.0100 C.2   195  SER195      0.2314
     50  O         27.9180   -2.9800  -52.0080 O.2   195  SER195     -0.2863
     51  CB        27.6530   -5.8580  -51.0980 C.3   195  SER195      0.2116
     52  OG        26.2730   -6.0270  -51.3960 O.3   195  SER195     -0.2180
     53  N         31.6080   -5.6850  -47.9490 N.3   261  TRP261     -0.1241
     54  CA        31.8190   -6.7090  -48.9820 C.3   261  TRP261      0.1605
     55  C         31.9120   -6.0910  -50.3590 C.2   261  TRP261      0.2264
     56  O         31.1380   -5.2190  -50.7070 O.2   261  TRP261     -0.2867
     57  CB        30.6360   -7.6910  -49.0280 C.3   261  TRP261      0.0550
     58  CG        30.6870   -8.7470  -48.0120 C.ar  261  TRP261      0.0003
     59  CD1       29.9870   -8.7950  -46.8420 C.ar  261  TRP261      0.0946
     60  CD2       31.4870   -9.9400  -48.0560 C.ar  261  TRP261      0.0152
     61  NE1       30.2980   -9.9400  -46.1500 N.ar  261  TRP261     -0.2442
     62  CE2       31.2280  -10.6560  -46.8640 C.ar  261  TRP261      0.0810
     63  CE3       32.4040  -10.4600  -48.9780 C.ar  261  TRP261      0.0012
     64  CZ2       31.8390  -11.8800  -46.5740 C.ar  261  TRP261      0.0191
     65  CZ3       33.0250  -11.6660  -48.6930 C.ar  261  TRP261      0.0001
     66  CH2       32.7360  -12.3700  -47.4920 C.ar  261  TRP261      0.0015
     67  N         32.5590   -7.6500  -54.5410 N.3   263  PHE263     -0.1241
     68  CA        32.5350   -8.8900  -55.2930 C.3   263  PHE263      0.1605
     69  C         33.2480   -8.7000  -56.6180 C.2   263  PHE263      0.2264
     70  O         33.1490   -7.6310  -57.2610 O.2   263  PHE263     -0.2867
     71  CB        31.0900   -9.3750  -55.5090 C.3   263  PHE263      0.0534
     72  CG        30.3000   -9.5450  -54.2280 C.ar  263  PHE263     -0.0203
     73  CD1       30.7230  -10.4380  -53.2360 C.ar  263  PHE263     -0.0042
     74  CD2       29.1320   -8.8270  -54.0170 C.ar  263  PHE263     -0.0042
     75  CE1       30.0020  -10.5920  -52.0440 C.ar  263  PHE263     -0.0003
     76  CE2       28.3950   -8.9710  -52.8290 C.ar  263  PHE263     -0.0003
     77  CZ        28.8330   -9.8460  -51.8380 C.ar  263  PHE263     -0.0000
     78  N         21.1050  -13.9570  -53.9150 N.3   336  GLN336     -0.1245
     79  CA        22.1490  -14.8430  -53.4410 C.3   336  GLN336      0.1566
     80  C         21.5700  -16.1790  -52.9590 C.2   336  GLN336      0.2260
     81  O         20.8410  -16.8180  -53.7290 O.2   336  GLN336     -0.2867
     82  CB        23.0630  -14.1270  -52.4360 C.3   336  GLN336      0.0367
     83  CG        23.5940  -12.7900  -52.9610 C.3   336  GLN336      0.0905
     84  CD        22.9780  -11.6160  -52.2200 C.2   336  GLN336      0.2608
     85  OE1       23.3030  -11.3870  -51.0490 O.2   336  GLN336     -0.2717
     86  NE2       22.0660  -10.8830  -52.8740 N.am  336  GLN336     -0.0878
@<TRIPOS>BOND
     1    70    69    2
     2    69    68    1
     3    71    68    1
     4    71    72    1
     5    68    67    1
     6    72    74   ar
     7    72    73   ar
     8    74    76   ar
     9    78    79    1
    10    81    80    2
    11    79    80    1
    12    79    82    1
    13    73    75   ar
    14    83    82    1
    15    83    84    1
    16    86    84   am
    17    76    77   ar
    18    84    85    2
    19    75    77   ar
    20    50    49    2
    21    38    36    1
    22    52    51    1
    23    51    48    1
    24    49    48    1
    25    37    36    1
    26    36    33    1
    27    56    55    2
    28    55    54    1
    29    48    47    1
    30     8     6    1
    31    35    34    2
    32    33    34    1
    33    33    32    1
    34    20    19    1
    35    20    21    1
    36    19    16    1
    37    57    54    1
    38    57    58    1
    39    54    53    1
    40    63    65   ar
    41    63    60   ar
    42    47    41   am
    43    65    66   ar
    44    32    26   am
    45    23    21   ar
    46    21    22   ar
    47     6     5    1
    48    18    17    2
    49    60    58   ar
    50    60    62   ar
    51    58    59   ar
    52    41    42    2
    53    41    40    1
    54    17    16    1
    55    17    24   am
    56    16    15    1
    57    26    25    1
    58    26    27    2
    59    66    64   ar
    60     7     5    1
    61     5     2    1
    62    25    24    1
    63    25    28    1
    64    62    64   ar
    65    62    61   ar
    66    59    61   ar
    67    39    40    1
    68    40    43    1
    69     2     1    1
    70     2     3    1
    71    43    44    1
    72    28    30    1
    73    28    29    1
    74    29    31    1
    75    14    13    1
    76     3     4    2
    77     3     9   am
    78    44    46    1
    79    44    45    1
    80     9    10    1
    81    13    10    1
    82    10    11    1
    83    11    12    2
