@<TRIPOS>MOLECULE
tmp/3ov2B03.pdb
 89 83 0 0 0
SMALL
GASTEIGER

@<TRIPOS>ATOM
      1  N         41.5930   -8.7380  -20.4370 N.3   208  ALA208     -0.1231
      2  CA        41.5430  -10.1350  -19.9860 C.3   208  ALA208      0.1694
      3  C         41.6770  -11.0990  -21.1610 C.2   208  ALA208      0.2592
      4  O         42.3580  -12.1250  -21.0620 O.2   208  ALA208     -0.2718
      5  CB        40.2610  -10.4140  -19.2070 C.3   208  ALA208      0.0304
      6  N         41.0280  -10.7560  -22.2720 N.am  209  GLY209     -0.1957
      7  CA        41.1450  -11.5120  -23.5100 C.3   209  GLY209      0.1869
      8  C         42.5740  -11.6120  -24.0180 C.2   209  GLY209      0.2309
      9  O         42.9180  -12.5780  -24.6950 O.2   209  GLY209     -0.2863
     10  N         44.3450  -14.9550  -21.8450 N.3   212  GLY212     -0.1210
     11  CA        43.9330  -16.3650  -21.8530 C.3   212  GLY212      0.1956
     12  C         43.7480  -17.1070  -23.1730 C.2   212  GLY212      0.2611
     13  O         43.5530  -18.3140  -23.1590 O.2   212  GLY212     -0.2717
     14  N         43.8010  -16.4090  -24.3080 N.am  213  PHE213     -0.1976
     15  CA        43.5410  -17.0400  -25.6200 C.3   213  PHE213      0.1639
     16  C         44.8260  -17.4070  -26.3620 C.2   213  PHE213      0.2290
     17  O         45.7460  -16.5950  -26.4760 O.2   213  PHE213     -0.2864
     18  CB        42.7070  -16.1140  -26.5180 C.3   213  PHE213      0.0560
     19  CG        41.2610  -15.9680  -26.0970 C.ar  213  PHE213     -0.0200
     20  CD1       40.4360  -17.0800  -25.9620 C.ar  213  PHE213     -0.0042
     21  CD2       40.7220  -14.7170  -25.8660 C.ar  213  PHE213     -0.0042
     22  CE1       39.0850  -16.9450  -25.5930 C.ar  213  PHE213     -0.0003
     23  CE2       39.3550  -14.5680  -25.4780 C.ar  213  PHE213     -0.0003
     24  CZ        38.5470  -15.6920  -25.3510 C.ar  213  PHE213     -0.0000
     25  N         28.2390  -14.5410  -22.0070 N.3   252  VAL252     -0.1245
     26  CA        29.4610  -14.4990  -22.8110 C.3   252  VAL252      0.1561
     27  C         29.0350  -14.2690  -24.2560 C.2   252  VAL252      0.2260
     28  O         27.8930  -14.5500  -24.6110 O.2   252  VAL252     -0.2867
     29  CB        30.3170  -15.8180  -22.6460 C.3   252  VAL252      0.0252
     30  CG1       29.5740  -17.0450  -23.1730 C.3   252  VAL252      0.0019
     31  CG2       31.6950  -15.6890  -23.2850 C.3   252  VAL252      0.0019
     32  N         31.9650  -10.9580  -21.1650 N.3   265  PHE265     -0.1241
     33  CA        31.5890  -12.0080  -20.2240 C.3   265  PHE265      0.1605
     34  C         31.1370  -11.4440  -18.8730 C.2   265  PHE265      0.2264
     35  O         31.5580  -10.3570  -18.4610 O.2   265  PHE265     -0.2867
     36  CB        32.7530  -13.0030  -20.0030 C.3   265  PHE265      0.0534
     37  CG        34.0040  -12.3680  -19.4560 C.ar  265  PHE265     -0.0203
     38  CD1       34.1400  -12.1230  -18.0770 C.ar  265  PHE265     -0.0042
     39  CD2       35.0540  -12.0180  -20.3100 C.ar  265  PHE265     -0.0042
     40  CE1       35.2990  -11.5360  -17.5650 C.ar  265  PHE265     -0.0003
     41  CE2       36.2110  -11.4310  -19.8150 C.ar  265  PHE265     -0.0003
     42  CZ        36.3360  -11.1870  -18.4340 C.ar  265  PHE265     -0.0000
     43  N         30.0020  -16.3210  -15.1120 N.3   269  LEU269     -0.1245
     44  CA        29.9700  -17.3100  -16.1840 C.3   269  LEU269      0.1561
     45  C         30.3920  -18.7170  -15.7090 C.2   269  LEU269      0.2260
     46  O         29.7500  -19.7020  -16.0990 O.2   269  LEU269     -0.2867
     47  CB        30.7940  -16.8510  -17.3970 C.3   269  LEU269      0.0270
     48  CG        30.9710  -17.8390  -18.5690 C.3   269  LEU269      0.0019
     49  CD1       29.6480  -18.1900  -19.2540 C.3   269  LEU269      0.0001
     50  CD2       31.9910  -17.3430  -19.5800 C.3   269  LEU269      0.0001
     51  N         37.4620  -23.6250  -21.3290 N.3   303  GLY303     -0.1210
     52  CA        36.9100  -22.2680  -21.1780 C.3   303  GLY303      0.1956
     53  C         37.8940  -21.3650  -20.4550 C.2   303  GLY303      0.2611
     54  O         38.5200  -20.4930  -21.0680 O.2   303  GLY303     -0.2717
     55  N         37.9880  -21.5730  -19.1380 N.am  304  ASN304     -0.1974
     56  CA        39.0350  -21.0170  -18.2860 C.3   304  ASN304      0.1688
     57  C         39.1510  -21.8080  -16.9680 C.2   304  ASN304      0.2292
     58  O         38.3270  -22.6950  -16.6890 O.2   304  ASN304     -0.2864
     59  CB        38.8290  -19.5100  -18.0240 C.3   304  ASN304      0.1181
     60  CG        37.6080  -19.2160  -17.1830 C.2   304  ASN304      0.2629
     61  OD1       37.3210  -19.9080  -16.2070 O.2   304  ASN304     -0.2716
     62  ND2       36.8860  -18.1630  -17.5500 N.am  304  ASN304     -0.0877
     63  N         36.1310  -21.9660  -14.7780 N.3   307  ILE307     -0.1245
     64  CA        35.0780  -22.7970  -15.3720 C.3   307  ILE307      0.1561
     65  C         35.2760  -24.2800  -15.0480 C.2   307  ILE307      0.2260
     66  O         34.3260  -24.9790  -14.6770 O.2   307  ILE307     -0.2867
     67  CB        35.0050  -22.5820  -16.9020 C.3   307  ILE307      0.0252
     68  CG1       34.5350  -21.1460  -17.1980 C.3   307  ILE307      0.0019
     69  CG2       34.1010  -23.6310  -17.5580 C.3   307  ILE307      0.0019
     70  CD1       34.6100  -20.7000  -18.6640 C.3   307  ILE307      0.0001
     71  N         44.8830  -26.4260  -21.1300 N.3   329  PHE329     -0.1241
     72  CA        44.6410  -25.0110  -20.8760 C.3   329  PHE329      0.1605
     73  C         45.8730  -24.3340  -20.2780 C.2   329  PHE329      0.2264
     74  O         46.2070  -23.2030  -20.6380 O.2   329  PHE329     -0.2867
     75  CB        43.3940  -24.8050  -20.0150 C.3   329  PHE329      0.0534
     76  CG        43.1630  -23.3750  -19.6370 C.ar  329  PHE329     -0.0203
     77  CD1       42.7950  -22.4340  -20.6000 C.ar  329  PHE329     -0.0042
     78  CD2       43.3400  -22.9510  -18.3240 C.ar  329  PHE329     -0.0042
     79  CE1       42.5910  -21.0930  -20.2570 C.ar  329  PHE329     -0.0003
     80  CE2       43.1400  -21.6030  -17.9770 C.ar  329  PHE329     -0.0003
     81  CZ        42.7630  -20.6820  -18.9420 C.ar  329  PHE329     -0.0000
     82  N         43.3980  -21.0700  -23.9300 N.3   334  ASN334     -0.1240
     83  CA        42.1250  -21.3580  -24.5630 C.3   334  ASN334      0.1653
     84  C         42.2210  -21.0850  -26.0750 C.2   334  ASN334      0.2266
     85  O         42.3270  -19.9380  -26.4990 O.2   334  ASN334     -0.2867
     86  CB        41.0330  -20.5040  -23.9110 C.3   334  ASN334      0.1155
     87  CG        39.6580  -20.6920  -24.5560 C.2   334  ASN334      0.2627
     88  OD1       39.5270  -21.1960  -25.6890 O.2   334  ASN334     -0.2716
     89  ND2       38.6290  -20.2680  -23.8420 N.am  334  ASN334     -0.0877
@<TRIPOS>BOND
     1    18    19    1
     2    18    15    1
     3    85    84    2
     4    17    16    2
     5    16    15    1
     6    19    20   ar
     7    19    21   ar
     8    84    83    1
     9    20    22   ar
    10    21    23   ar
    11    88    87    2
    12    15    14    1
    13    22    24   ar
    14    23    24   ar
    15     9     8    2
    16    28    27    2
    17    83    82    1
    18    83    86    1
    19    87    86    1
    20    87    89   am
    21    14    12   am
    22    27    26    1
    23     8     7    1
    24     7     6    1
    25    31    29    1
    26    12    13    2
    27    12    11    1
    28    30    29    1
    29    26    29    1
    30    26    25    1
    31     6     3   am
    32    11    10    1
    33    51    52    1
    34    52    53    1
    35    32    33    1
    36     3     4    2
    37     3     2    1
    38    71    72    1
    39    54    53    2
    40    72    73    1
    41    72    75    1
    42    74    73    2
    43    77    79   ar
    44    77    76   ar
    45    53    55   am
    46     1     2    1
    47    39    41   ar
    48    39    37   ar
    49    79    81   ar
    50    33    36    1
    51    33    34    1
    52    75    76    1
    53    36    37    1
    54     2     5    1
    55    41    42   ar
    56    76    78   ar
    57    50    48    1
    58    37    38   ar
    59    49    48    1
    60    55    56    1
    61    81    80   ar
    62    34    35    2
    63    70    68    1
    64    48    47    1
    65    42    40   ar
    66    78    80   ar
    67    56    59    1
    68    56    57    1
    69    38    40   ar
    70    59    60    1
    71    69    67    1
    72    62    60   am
    73    47    44    1
    74    68    67    1
    75    60    61    2
    76    57    58    2
    77    67    64    1
    78    44    45    1
    79    44    43    1
    80    46    45    2
    81    64    65    1
    82    64    63    1
    83    65    66    2
