@<TRIPOS>MOLECULE
tmp/3ov6A01.pdb
 143 134 0 0 0
SMALL
GASTEIGER

@<TRIPOS>ATOM
      1  N         -3.8660   30.3290  -35.9060 N.3   172  TYR172     -0.1241
      2  CA        -5.2920   30.0940  -35.7450 C.3   172  TYR172      0.1605
      3  C         -5.9190   31.0440  -34.7230 C.2   172  TYR172      0.2264
      4  O         -7.0340   31.5620  -34.9100 O.2   172  TYR172     -0.2867
      5  CB        -5.4980   28.6570  -35.3060 C.3   172  TYR172      0.0534
      6  CG        -6.8170   28.4170  -34.6410 C.ar  172  TYR172     -0.0201
      7  CD1       -7.9560   28.2030  -35.3940 C.ar  172  TYR172     -0.0009
      8  CD2       -6.9280   28.4030  -33.2460 C.ar  172  TYR172     -0.0009
      9  CE1       -9.1790   27.9760  -34.7850 C.ar  172  TYR172      0.0417
     10  CE2       -8.1400   28.1840  -32.6270 C.ar  172  TYR172      0.0417
     11  CZ        -9.2660   27.9670  -33.3960 C.ar  172  TYR172      0.1957
     12  OH       -10.4710   27.7450  -32.7650 O.3   172  TYR172     -0.2866
     13  N         -6.1680   34.2870  -35.8660 N.3   175  GLY175     -0.1210
     14  CA        -7.3340   34.2590  -36.7300 C.3   175  GLY175      0.1956
     15  C         -8.6320   34.5450  -36.0000 C.2   175  GLY175      0.2611
     16  O         -9.3260   35.5250  -36.2870 O.2   175  GLY175     -0.2717
     17  N         -8.9540   33.6850  -35.0420 N.am  176  LEU176     -0.1979
     18  CA       -10.1660   33.8430  -34.2580 C.3   176  LEU176      0.1596
     19  C        -10.3400   35.2530  -33.7240 C.2   176  LEU176      0.2287
     20  O        -11.3660   35.8790  -33.9590 O.2   176  LEU176     -0.2864
     21  CB       -10.1850   32.8600  -33.0930 C.3   176  LEU176      0.0297
     22  CG       -11.0520   31.6400  -33.3590 C.3   176  LEU176      0.0022
     23  CD1      -12.5030   32.0510  -33.5120 C.3   176  LEU176      0.0001
     24  CD2      -10.5710   30.9680  -34.6200 C.3   176  LEU176      0.0001
     25  N        -10.9100   38.0530  -36.2150 N.3   179  GLU179     -0.1231
     26  CA       -12.2120   37.7680  -36.7940 C.3   179  GLU179      0.1699
     27  C        -13.3150   38.1410  -35.8140 C.2   179  GLU179      0.2592
     28  O        -14.3730   38.6470  -36.1920 O.2   179  GLU179     -0.2718
     29  CB       -12.2910   36.2750  -37.1290 C.3   179  GLU179      0.0402
     30  CG       -13.0190   35.9270  -38.4200 C.3   179  GLU179      0.1161
     31  CD       -12.2790   36.4040  -39.6540 C.2   179  GLU179      0.3649
     32  OE1      -11.1720   36.9550  -39.4910 O.co2 179  GLU179     -0.2457
     33  OE2      -12.7980   36.2260  -40.7800 O.co2 179  GLU179     -0.2457
     34  N        -13.0510   37.8790  -34.5430 N.am  180  ILE180     -0.1980
     35  CA       -14.0460   38.0590  -33.5030 C.3   180  ILE180      0.1595
     36  C        -14.0590   39.4990  -32.9740 C.2   180  ILE180      0.2287
     37  O        -15.0620   39.9560  -32.4220 O.2   180  ILE180     -0.2864
     38  CB       -13.8300   37.0500  -32.3640 C.3   180  ILE180      0.0276
     39  CG1      -13.9650   35.6240  -32.8960 C.3   180  ILE180      0.0022
     40  CG2      -14.8560   37.2550  -31.2820 C.3   180  ILE180      0.0022
     41  CD1      -15.3880   35.2550  -33.2740 C.3   180  ILE180      0.0001
     42  N        -16.9900   32.4890  -25.5360 N.3   192  VAL192     -0.1245
     43  CA       -16.9110   31.5080  -26.5940 C.3   192  VAL192      0.1561
     44  C        -16.1130   30.3140  -26.1170 C.2   192  VAL192      0.2260
     45  O        -15.0740   30.4750  -25.4700 O.2   192  VAL192     -0.2867
     46  CB       -16.2660   32.0780  -27.8860 C.3   192  VAL192      0.0252
     47  CG1      -15.8970   30.9540  -28.8240 C.3   192  VAL192      0.0019
     48  CG2      -17.2050   33.0480  -28.5700 C.3   192  VAL192      0.0019
     49  N        -14.6840   26.4550  -27.4700 N.3   194  VAL194     -0.1245
     50  CA       -14.4130   25.5380  -28.5500 C.3   194  VAL194      0.1561
     51  C        -13.9550   24.2380  -27.9360 C.2   194  VAL194      0.2260
     52  O        -13.1630   24.2250  -27.0010 O.2   194  VAL194     -0.2867
     53  CB       -13.3460   26.0890  -29.4930 C.3   194  VAL194      0.0252
     54  CG1      -12.9020   25.0320  -30.5020 C.3   194  VAL194      0.0019
     55  CG2      -13.8860   27.3190  -30.2130 C.3   194  VAL194      0.0019
     56  N        -15.4880   19.2410  -33.7790 N.3   210  PHE210     -0.1241
     57  CA       -15.0090   20.5800  -33.5770 C.3   210  PHE210      0.1605
     58  C        -16.2460   21.4190  -33.3890 C.2   210  PHE210      0.2264
     59  O        -16.8960   21.7940  -34.3690 O.2   210  PHE210     -0.2867
     60  CB       -14.2510   21.0700  -34.7950 C.3   210  PHE210      0.0534
     61  CG       -13.6110   22.3980  -34.5960 C.ar  210  PHE210     -0.0203
     62  CD1      -12.2450   22.5310  -34.6980 C.ar  210  PHE210     -0.0042
     63  CD2      -14.3790   23.5170  -34.2970 C.ar  210  PHE210     -0.0042
     64  CE1      -11.6530   23.7570  -34.5310 C.ar  210  PHE210     -0.0003
     65  CE2      -13.7960   24.7380  -34.1190 C.ar  210  PHE210     -0.0003
     66  CZ       -12.4300   24.8600  -34.2380 C.ar  210  PHE210     -0.0000
     67  N        -18.5700   24.5200  -31.1750 N.3   212  VAL212     -0.1245
     68  CA       -18.4850   25.8290  -30.5610 C.3   212  VAL212      0.1561
     69  C        -19.7710   26.1040  -29.8140 C.2   212  VAL212      0.2260
     70  O        -20.8460   25.6130  -30.1740 O.2   212  VAL212     -0.2867
     71  CB       -18.2450   26.9330  -31.6050 C.3   212  VAL212      0.0252
     72  CG1      -17.7960   28.2360  -30.9370 C.3   212  VAL212      0.0019
     73  CG2      -17.2040   26.4740  -32.6060 C.3   212  VAL212      0.0019
     74  N        -21.7500   29.4940  -27.8420 N.3   214  PHE214     -0.1241
     75  CA       -21.7170   30.9360  -27.6530 C.3   214  PHE214      0.1605
     76  C        -22.5150   31.3450  -26.4210 C.2   214  PHE214      0.2264
     77  O        -23.7160   31.0510  -26.3070 O.2   214  PHE214     -0.2867
     78  CB       -22.2930   31.6710  -28.8680 C.3   214  PHE214      0.0534
     79  CG       -22.1040   33.1650  -28.8060 C.ar  214  PHE214     -0.0203
     80  CD1      -20.8670   33.7410  -29.1100 C.ar  214  PHE214     -0.0042
     81  CD2      -23.1560   33.9990  -28.4360 C.ar  214  PHE214     -0.0042
     82  CE1      -20.6820   35.1180  -29.0510 C.ar  214  PHE214     -0.0003
     83  CE2      -22.9790   35.3770  -28.3710 C.ar  214  PHE214     -0.0003
     84  CZ       -21.7380   35.9310  -28.6760 C.ar  214  PHE214     -0.0000
     85  N        -23.5550   26.7210  -30.6680 N.3   219  LEU219     -0.1231
     86  CA       -23.5100   27.6420  -31.8010 C.3   219  LEU219      0.1693
     87  C        -23.3970   26.8440  -33.1140 C.2   219  LEU219      0.2591
     88  O        -24.2070   26.9920  -34.0250 O.2   219  LEU219     -0.2718
     89  CB       -22.3250   28.5990  -31.6590 C.3   219  LEU219      0.0284
     90  CG       -22.1680   29.7550  -32.6500 C.3   219  LEU219      0.0019
     91  CD1      -23.3440   30.7370  -32.5800 C.3   219  LEU219      0.0001
     92  CD2      -20.8440   30.4620  -32.4060 C.3   219  LEU219      0.0001
     93  N        -22.4000   25.9750  -33.2020 N.am  220  LEU220     -0.1980
     94  CA       -22.1610   25.2710  -34.4420 C.3   220  LEU220      0.1596
     95  C        -21.2660   24.0720  -34.1930 C.2   220  LEU220      0.2287
     96  O        -20.5970   24.0130  -33.1680 O.2   220  LEU220     -0.2864
     97  CB       -21.5310   26.2270  -35.4650 C.3   220  LEU220      0.0297
     98  CG       -20.1740   26.8470  -35.1120 C.3   220  LEU220      0.0022
     99  CD1      -19.0310   25.9150  -35.4700 C.3   220  LEU220      0.0001
    100  CD2      -19.9850   28.1650  -35.8160 C.3   220  LEU220      0.0001
    101  N        -19.5660   21.9470  -41.7540 N.3   227  TRP227     -0.1241
    102  CA       -19.8460   22.8620  -40.6420 C.3   227  TRP227      0.1605
    103  C        -21.3490   23.0860  -40.5460 C.2   227  TRP227      0.2264
    104  O        -21.9880   23.4170  -41.5430 O.2   227  TRP227     -0.2867
    105  CB       -19.1980   24.2350  -40.8300 C.3   227  TRP227      0.0550
    106  CG       -17.7170   24.3000  -40.7730 C.ar  227  TRP227      0.0003
    107  CD1      -16.8810   24.5700  -41.8120 C.ar  227  TRP227      0.0946
    108  CD2      -16.8780   24.1490  -39.6100 C.ar  227  TRP227      0.0152
    109  NE1      -15.5760   24.5770  -41.3810 N.ar  227  TRP227     -0.2442
    110  CE2      -15.5440   24.3170  -40.0390 C.ar  227  TRP227      0.0810
    111  CE3      -17.1190   23.8810  -38.2610 C.ar  227  TRP227      0.0012
    112  CZ2      -14.4530   24.2200  -39.1540 C.ar  227  TRP227      0.0191
    113  CZ3      -16.0310   23.7900  -37.3850 C.ar  227  TRP227      0.0001
    114  CH2      -14.7190   23.9560  -37.8380 C.ar  227  TRP227      0.0015
    115  N        -21.3120   32.4280  -39.7380 N.3   240  VAL240     -0.1245
    116  CA       -19.9550   31.9460  -39.4290 C.3   240  VAL240      0.1561
    117  C        -19.6920   30.5490  -40.0350 C.2   240  VAL240      0.2260
    118  O        -18.5670   30.2320  -40.4410 O.2   240  VAL240     -0.2867
    119  CB       -19.6440   32.0170  -37.8750 C.3   240  VAL240      0.0252
    120  CG1      -20.4750   31.0220  -37.0970 C.3   240  VAL240      0.0019
    121  CG2      -18.1740   31.8020  -37.5770 C.3   240  VAL240      0.0019
    122  N        -16.7090   29.8670  -42.8380 N.3   244  LEU244     -0.1245
    123  CA       -15.8810   28.6660  -42.7250 C.3   244  LEU244      0.1561
    124  C        -16.1810   27.6340  -43.8320 C.2   244  LEU244      0.2260
    125  O        -15.2940   26.9170  -44.3070 O.2   244  LEU244     -0.2867
    126  CB       -16.0510   28.0380  -41.3260 C.3   244  LEU244      0.0270
    127  CG       -15.3600   28.7430  -40.1440 C.3   244  LEU244      0.0019
    128  CD1      -15.5320   30.2700  -40.1790 C.3   244  LEU244      0.0001
    129  CD2      -15.8000   28.1830  -38.7820 C.3   244  LEU244      0.0001
    130  N         -8.7800   25.5860  -44.4270 N.3   251  VAL251     -0.1245
    131  CA        -8.7470   25.6140  -42.9660 C.3   251  VAL251      0.1561
    132  C         -9.5560   24.4290  -42.4320 C.2   251  VAL251      0.2260
    133  O         -9.1490   23.7790  -41.4650 O.2   251  VAL251     -0.2867
    134  CB        -9.2960   26.9420  -42.3820 C.3   251  VAL251      0.0252
    135  CG1       -8.5690   28.1220  -43.0000 C.3   251  VAL251      0.0019
    136  CG2      -10.8280   27.0570  -42.5810 C.3   251  VAL251      0.0019
    137  N         -8.4880   21.3340  -40.5380 N.3   255  VAL255     -0.1245
    138  CA        -9.2760   20.8730  -39.4140 C.3   255  VAL255      0.1561
    139  C         -9.6560   19.4110  -39.5880 C.2   255  VAL255      0.2260
    140  O         -9.5440   18.6240  -38.6410 O.2   255  VAL255     -0.2867
    141  CB       -10.5340   21.7450  -39.2120 C.3   255  VAL255      0.0252
    142  CG1      -11.6610   20.9410  -38.5710 C.3   255  VAL255      0.0019
    143  CG2      -10.1970   22.9580  -38.3720 C.3   255  VAL255      0.0019
@<TRIPOS>BOND
     1   130   131    1
     2   125   124    2
     3   124   123    1
     4   135   134    1
     5   131   132    1
     6   131   134    1
     7   122   123    1
     8   123   126    1
     9   136   134    1
    10   132   133    2
    11   107   109   ar
    12   107   106   ar
    13   101   102    1
    14   104   103    2
    15   109   110   ar
    16   126   127    1
    17   105   106    1
    18   105   102    1
    19    33    31   ar
    20   106   108   ar
    21   102   103    1
    22   137   138    1
    23   118   117    2
    24   128   127    1
    25   127   129    1
    26   110   108   ar
    27   110   112   ar
    28   117   116    1
    29   115   116    1
    30    31    32   ar
    31    31    30    1
    32   108   111   ar
    33   139   138    1
    34   139   140    2
    35   116   119    1
    36   138   141    1
    37   141   142    1
    38   141   143    1
    39   112   114   ar
    40    30    29    1
    41   111   113   ar
    42   119   121    1
    43   119   120    1
    44   114   113   ar
    45    29    26    1
    46    26    25    1
    47    26    27    1
    48    14    15    1
    49    14    13    1
    50    16    15    2
    51    28    27    2
    52    15    17   am
    53     1     2    1
    54   100    98    1
    55    27    34   am
    56     2     5    1
    57     2     3    1
    58    99    98    1
    59    97    98    1
    60    97    94    1
    61     7     9   ar
    62     7     6   ar
    63     5     6    1
    64    17    18    1
    65     4     3    2
    66    60    61    1
    67    60    57    1
    68     9    11   ar
    69    62    61   ar
    70    62    64   ar
    71     6     8   ar
    72    24    22    1
    73    61    63   ar
    74    34    35    1
    75    64    66   ar
    76    94    95    1
    77    94    93    1
    78    59    58    2
    79    63    65   ar
    80    18    19    1
    81    18    21    1
    82    66    65   ar
    83    95    96    2
    84    88    87    2
    85    20    19    2
    86    56    57    1
    87    57    58    1
    88    23    22    1
    89    35    36    1
    90    35    38    1
    91    11    12    1
    92    11    10   ar
    93    22    21    1
    94    41    39    1
    95     8    10   ar
    96    93    87   am
    97    87    86    1
    98    36    37    2
    99    39    38    1
   100    90    91    1
   101    90    92    1
   102    90    89    1
   103    73    71    1
   104    38    40    1
   105    86    89    1
   106    86    85    1
   107    71    72    1
   108    71    68    1
   109    67    68    1
   110    68    69    1
   111    54    53    1
   112    55    53    1
   113    70    69    2
   114    53    50    1
   115    80    82   ar
   116    80    79   ar
   117    82    84   ar
   118    78    79    1
   119    78    75    1
   120    47    46    1
   121    79    81   ar
   122    84    83   ar
   123    48    46    1
   124    50    51    1
   125    50    49    1
   126    81    83   ar
   127    51    52    2
   128    46    43    1
   129    74    75    1
   130    75    76    1
   131    43    44    1
   132    43    42    1
   133    76    77    2
   134    44    45    2
