@<TRIPOS>MOLECULE
tmp/3ovmA00.pdb
 85 81 0 0 0
SMALL
GASTEIGER

@<TRIPOS>ATOM
      1  N         31.1630   -5.0440  -21.4680 N.3    65  ASN65      -0.1240
      2  CA        30.4710   -6.2520  -21.0630 C.3    65  ASN65       0.1653
      3  C         29.9920   -6.0070  -19.6370 C.2    65  ASN65       0.2266
      4  O         30.8050   -5.8890  -18.7190 O.2    65  ASN65      -0.2867
      5  CB        31.4590   -7.4140  -21.1450 C.3    65  ASN65       0.1155
      6  CG        30.8440   -8.7520  -20.8060 C.2    65  ASN65       0.2627
      7  OD1       29.9610   -8.8720  -19.9470 O.2    65  ASN65      -0.2716
      8  ND2       31.3380   -9.7970  -21.4800 N.am   65  ASN65      -0.0877
      9  N         28.1710   -7.6890  -17.1680 N.3    67  GLY67      -0.1210
     10  CA        28.4340   -8.6940  -16.1480 C.3    67  GLY67       0.1956
     11  C         29.8950   -8.7660  -15.7220 C.2    67  GLY67       0.2611
     12  O         30.2010   -8.9830  -14.5310 O.2    67  GLY67      -0.2717
     13  N         30.7920   -8.5650  -16.6860 N.am   68  VAL68      -0.1979
     14  CA        32.2160   -8.6940  -16.4340 C.3    68  VAL68       0.1595
     15  C         32.7510   -7.4560  -15.7350 C.2    68  VAL68       0.2287
     16  O         33.4780   -7.5680  -14.7400 O.2    68  VAL68      -0.2864
     17  CB        33.0190   -8.9960  -17.7310 C.3    68  VAL68       0.0276
     18  CG1       34.4760   -8.5730  -17.5860 C.3    68  VAL68       0.0022
     19  CG2       32.9060  -10.4700  -18.0860 C.3    68  VAL68       0.0022
     20  N         27.5660  -10.2370   -9.8340 N.3   121  GLN121     -0.1245
     21  CA        28.5000  -11.3580   -9.7000 C.3   121  GLN121      0.1566
     22  C         29.5630  -11.0090   -8.6750 C.2   121  GLN121      0.2260
     23  O         30.1710   -9.9480   -8.7450 O.2   121  GLN121     -0.2867
     24  CB        29.1760  -11.6590  -11.0390 C.3   121  GLN121      0.0367
     25  CG        29.6750  -13.0860  -11.1670 C.3   121  GLN121      0.0905
     26  CD        30.1700  -13.4050  -12.5890 C.2   121  GLN121      0.2608
     27  OE1       29.9770  -12.6170  -13.5450 O.2   121  GLN121     -0.2717
     28  NE2       30.8110  -14.5620  -12.7300 N.am  121  GLN121     -0.0878
     29  N         26.3990  -14.1390   -6.0700 N.3   125  PHE125     -0.1241
     30  CA        26.7260  -15.4560   -6.6410 C.3   125  PHE125      0.1605
     31  C         28.0600  -15.3230   -7.3590 C.2   125  PHE125      0.2264
     32  O         28.4900  -14.2180   -7.6480 O.2   125  PHE125     -0.2867
     33  CB        25.6650  -15.8660   -7.6730 C.3   125  PHE125      0.0534
     34  CG        25.6950  -15.0100   -8.9140 C.ar  125  PHE125     -0.0203
     35  CD1       25.0090  -13.7910   -8.9530 C.ar  125  PHE125     -0.0042
     36  CD2       26.4570  -15.3940  -10.0270 C.ar  125  PHE125     -0.0042
     37  CE1       25.0620  -12.9760  -10.0860 C.ar  125  PHE125     -0.0003
     38  CE2       26.5110  -14.5910  -11.1540 C.ar  125  PHE125     -0.0003
     39  CZ        25.8190  -13.3720  -11.1820 C.ar  125  PHE125     -0.0000
     40  N         30.3710  -17.4250  -10.7700 N.3   127  ILE127     -0.1245
     41  CA        30.1730  -18.4110  -11.8670 C.3   127  ILE127      0.1561
     42  C         31.4200  -19.2720  -12.0530 C.2   127  ILE127      0.2260
     43  O         32.4310  -18.7940  -12.5790 O.2   127  ILE127     -0.2867
     44  CB        29.7800  -17.7810  -13.2340 C.3   127  ILE127      0.0252
     45  CG1       28.4950  -16.9530  -13.1150 C.3   127  ILE127      0.0019
     46  CG2       29.5920  -18.8900  -14.3040 C.3   127  ILE127      0.0019
     47  CD1       28.2220  -16.1040  -14.3410 C.3   127  ILE127      0.0001
     48  N         26.5380  -20.7240   -7.4990 N.3   130  PHE130     -0.1227
     49  CA        25.1460  -20.2630   -7.4400 C.3   130  PHE130      0.1736
     50  C         24.1820  -21.3000   -6.8710 C.2   130  PHE130      0.2595
     51  O         24.6250  -22.3230   -6.3360 O.2   130  PHE130     -0.2718
     52  CB        24.6550  -19.7430   -8.8010 C.3   130  PHE130      0.0547
     53  CG        25.0640  -20.5870  -10.0020 C.ar  130  PHE130     -0.0202
     54  CD1       24.4030  -21.7770  -10.3020 C.ar  130  PHE130     -0.0042
     55  CD2       26.0720  -20.1360  -10.8730 C.ar  130  PHE130     -0.0042
     56  CE1       24.7640  -22.5330  -11.4330 C.ar  130  PHE130     -0.0003
     57  CE2       26.4430  -20.8760  -12.0080 C.ar  130  PHE130     -0.0003
     58  CZ        25.7930  -22.0750  -12.2890 C.ar  130  PHE130     -0.0000
     59  N         22.8760  -21.0440   -7.0230 N.am  131  TYR131     -0.1976
     60  CA        21.8180  -21.7170   -6.2540 C.3   131  TYR131      0.1639
     61  C         22.2980  -21.9970   -4.8310 C.2   131  TYR131      0.2290
     62  O         22.3620  -21.0830   -4.0050 O.2   131  TYR131     -0.2864
     63  CB        21.2540  -22.9740   -6.9510 C.3   131  TYR131      0.0560
     64  CG        20.4120  -22.6630   -8.1810 C.ar  131  TYR131     -0.0198
     65  CD1       19.1310  -22.1090   -8.0610 C.ar  131  TYR131     -0.0009
     66  CD2       20.9090  -22.9000   -9.4650 C.ar  131  TYR131     -0.0009
     67  CE1       18.3630  -21.8010   -9.1970 C.ar  131  TYR131      0.0417
     68  CE2       20.1510  -22.6030  -10.6070 C.ar  131  TYR131      0.0417
     69  CZ        18.8810  -22.0540  -10.4680 C.ar  131  TYR131      0.1957
     70  OH        18.1420  -21.7610  -11.6000 O.3   131  TYR131     -0.2866
     71  N         14.5480  -18.2610  -10.2790 N.3   173  GLY173     -0.1225
     72  CA        15.5620  -17.6810  -11.1600 C.3   173  GLY173      0.1811
     73  C         16.4130  -16.5840  -10.5350 C.2   173  GLY173      0.2280
     74  O         17.5670  -16.3920  -10.9280 O.2   173  GLY173     -0.2866
     75  N         18.5090  -18.5920   -6.7670 N.3   177  PHE177     -0.1241
     76  CA        19.7920  -18.6270   -7.4720 C.3   177  PHE177      0.1605
     77  C         20.8940  -17.9280   -6.6690 C.2   177  PHE177      0.2264
     78  O         22.0850  -18.2590   -6.7840 O.2   177  PHE177     -0.2867
     79  CB        19.6380  -17.9980   -8.8650 C.3   177  PHE177      0.0534
     80  CG        20.8790  -18.0440   -9.7030 C.ar  177  PHE177     -0.0203
     81  CD1       21.0720  -19.0720  -10.6340 C.ar  177  PHE177     -0.0042
     82  CD2       21.8400  -17.0450   -9.6050 C.ar  177  PHE177     -0.0042
     83  CE1       22.2200  -19.1160  -11.4440 C.ar  177  PHE177     -0.0003
     84  CE2       22.9960  -17.0690  -10.3910 C.ar  177  PHE177     -0.0003
     85  CZ        23.1830  -18.1220  -11.3330 C.ar  177  PHE177     -0.0000
@<TRIPOS>BOND
     1     8     6   am
     2     1     2    1
     3     5     2    1
     4     5     6    1
     5     2     3    1
     6     6     7    2
     7     3     4    2
     8    19    17    1
     9    17    18    1
    10    17    14    1
    11     9    10    1
    12    13    14    1
    13    13    11   am
    14    14    15    1
    15    10    11    1
    16    15    16    2
    17    11    12    2
    18    47    45    1
    19    46    44    1
    20    27    26    2
    21    44    45    1
    22    44    41    1
    23    28    26   am
    24    26    25    1
    25    43    42    2
    26    58    57   ar
    27    58    56   ar
    28    42    41    1
    29    57    55   ar
    30    41    40    1
    31    70    69    1
    32    83    85   ar
    33    83    81   ar
    34    56    54   ar
    35    85    84   ar
    36    39    38   ar
    37    39    37   ar
    38    25    24    1
    39    72    73    1
    40    72    71    1
    41    38    36   ar
    42    24    21    1
    43    74    73    2
    44    55    53   ar
    45    81    80   ar
    46    68    69   ar
    47    68    66   ar
    48    69    67   ar
    49    84    82   ar
    50    54    53   ar
    51    37    35   ar
    52    36    34   ar
    53    53    52    1
    54    20    21    1
    55    80    82   ar
    56    80    79    1
    57    21    22    1
    58    66    64   ar
    59    67    65   ar
    60    35    34   ar
    61    34    33    1
    62    79    76    1
    63    52    49    1
    64    23    22    2
    65    64    65   ar
    66    64    63    1
    67    33    30    1
    68    32    31    2
    69    48    49    1
    70    76    75    1
    71    76    77    1
    72    49    50    1
    73    31    30    1
    74    59    50   am
    75    59    60    1
    76    63    60    1
    77    50    51    2
    78    78    77    2
    79    30    29    1
    80    60    61    1
    81    61    62    2
