@<TRIPOS>MOLECULE
tmp/3ovpB00.pdb
 86 80 0 0 0
SMALL
GASTEIGER

@<TRIPOS>ATOM
      1  N         24.1540   -0.4920  -21.5930 N.3     1  GLY1       -0.1225
      2  CA        23.1640   -0.1710  -20.5790 C.3     1  GLY1        0.1811
      3  C         23.1880   -1.0990  -19.3720 C.2     1  GLY1        0.2280
      4  O         22.1780   -1.2630  -18.6840 O.2     1  GLY1       -0.2866
      5  N         24.3460   -2.1160  -15.5940 N.3     3  LYS3       -0.1245
      6  CA        24.6390   -1.3700  -14.3860 C.3     3  LYS3        0.1561
      7  C         24.7450   -2.2620  -13.1770 C.2     3  LYS3        0.2260
      8  O         23.9850   -3.2160  -13.0330 O.2     3  LYS3       -0.2867
      9  CB        23.5630   -0.3070  -14.1560 C.3     3  LYS3        0.0271
     10  CG        23.5950    0.7620  -15.2520 C.3     3  LYS3        0.0035
     11  CD        22.6380    1.8760  -14.9990 C.3     3  LYS3        0.0206
     12  CE        22.7350    2.9130  -16.1140 C.3     3  LYS3        0.1093
     13  NZ        21.6350    3.8960  -15.9780 N.3     3  LYS3       -0.1314
     14  N         27.2660    1.8110  -10.0350 N.3    29  ASP29      -0.1225
     15  CA        26.3370    2.5920  -10.8540 C.3    29  ASP29       0.1805
     16  C         25.1450    3.1270  -10.0620 C.2    29  ASP29       0.2597
     17  O         24.5960    4.1820  -10.3840 O.2    29  ASP29      -0.2718
     18  CB        25.8570    1.7660  -12.0440 C.3    29  ASP29       0.1424
     19  CG        26.9980    1.3860  -12.9610 C.2    29  ASP29       0.3668
     20  OD1       27.6420    2.3050  -13.5160 O.co2  29  ASP29      -0.2456
     21  OD2       27.2800    0.1820  -13.1080 O.co2  29  ASP29      -0.2456
     22  N         24.7450    2.3850   -9.0340 N.am   30  TYR30      -0.1976
     23  CA        23.6760    2.8180   -8.1420 C.3    30  TYR30       0.1639
     24  C         23.7930    2.0270   -6.8570 C.2    30  TYR30       0.2290
     25  O         24.6680    1.1840   -6.7370 O.2    30  TYR30      -0.2864
     26  CB        22.3010    2.6200   -8.7930 C.3    30  TYR30       0.0560
     27  CG        21.9520    1.1780   -9.1310 C.ar   30  TYR30      -0.0198
     28  CD1       21.0320    0.4680   -8.3710 C.ar   30  TYR30      -0.0009
     29  CD2       22.5220    0.5380  -10.2330 C.ar   30  TYR30      -0.0009
     30  CE1       20.7030   -0.8590   -8.6880 C.ar   30  TYR30       0.0417
     31  CE2       22.1960   -0.7860  -10.5560 C.ar   30  TYR30       0.0417
     32  CZ        21.2930   -1.4730   -9.7850 C.ar   30  TYR30       0.1957
     33  OH        20.9620   -2.7790  -10.0870 O.3    30  TYR30      -0.2866
     34  N         22.1060    7.2370   -7.2580 N.3    63  PHE63      -0.1241
     35  CA        20.7880    6.6480   -7.4930 C.3    63  PHE63       0.1605
     36  C         20.5090    5.5720   -6.4460 C.2    63  PHE63       0.2264
     37  O         21.3040    4.6600   -6.2800 O.2    63  PHE63      -0.2867
     38  CB        20.7840    6.0160   -8.8840 C.3    63  PHE63       0.0534
     39  CG        19.4450    5.5250   -9.3390 C.ar   63  PHE63      -0.0203
     40  CD1       18.7030    6.2660  -10.2410 C.ar   63  PHE63      -0.0042
     41  CD2       18.9390    4.3090   -8.8990 C.ar   63  PHE63      -0.0042
     42  CE1       17.4790    5.8130  -10.7040 C.ar   63  PHE63      -0.0003
     43  CE2       17.7120    3.8410   -9.3550 C.ar   63  PHE63      -0.0003
     44  CZ        16.9760    4.5980  -10.2650 C.ar   63  PHE63      -0.0000
     45  N         14.0760    5.4650   -6.8640 N.3    87  GLN87      -0.1245
     46  CA        13.2360    4.4200   -7.4170 C.3    87  GLN87       0.1566
     47  C         12.6610    3.5770   -6.2950 C.2    87  GLN87       0.2260
     48  O         13.3720    3.1710   -5.3850 O.2    87  GLN87      -0.2867
     49  CB        14.0500    3.5330   -8.3540 C.3    87  GLN87       0.0367
     50  CG        13.2520    2.4020   -9.0030 C.3    87  GLN87       0.0905
     51  CD        14.0000    1.7910  -10.1690 C.2    87  GLN87       0.2608
     52  OE1       13.8060    2.1820  -11.3240 O.2    87  GLN87      -0.2717
     53  NE2       14.8580    0.8250   -9.8730 N.am   87  GLN87      -0.0878
     54  N         10.9100    6.7980   -9.6960 N.3   111  LYS111     -0.1245
     55  CA        10.8290    5.7450  -10.6990 C.3   111  LYS111      0.1561
     56  C         10.1820    4.5260  -10.0600 C.2   111  LYS111      0.2260
     57  O         10.1420    4.4060   -8.8350 O.2   111  LYS111     -0.2867
     58  CB        12.2190    5.4040  -11.2470 C.3   111  LYS111      0.0271
     59  CG        12.8160    6.5430  -12.0690 C.3   111  LYS111      0.0035
     60  CD        14.2320    6.2460  -12.5330 C.3   111  LYS111      0.0206
     61  CE        14.2470    5.3420  -13.7520 C.3   111  LYS111      0.1093
     62  NZ        15.6280    5.1900  -14.3040 N.3   111  LYS111     -0.1314
     63  N         14.3680   -2.4440  -18.4160 N.3   168  ASP168     -0.1239
     64  CA        15.4730   -2.7410  -17.5210 C.3   168  ASP168      0.1674
     65  C         15.0790   -3.8720  -16.5950 C.2   168  ASP168      0.2266
     66  O         14.0140   -3.8370  -15.9730 O.2   168  ASP168     -0.2867
     67  CB        15.8700   -1.5010  -16.7350 C.3   168  ASP168      0.1410
     68  CG        16.4360   -0.4190  -17.6350 C.2   168  ASP168      0.3668
     69  OD1       17.2480   -0.7610  -18.5190 O.co2 168  ASP168     -0.2456
     70  OD2       16.0590    0.7610  -17.4740 O.co2 168  ASP168     -0.2456
     71  N         20.1310   -6.7410  -17.1740 N.3   189  ASN189     -0.1225
     72  CA        21.0910   -5.6590  -17.3660 C.3   189  ASN189      0.1785
     73  C         21.3760   -4.8510  -16.1150 C.2   189  ASN189      0.2597
     74  O         22.2110   -3.9540  -16.1440 O.2   189  ASN189     -0.2718
     75  CB        20.6750   -4.7200  -18.5020 C.3   189  ASN189      0.1169
     76  CG        19.3900   -3.9680  -18.2070 C.2   189  ASN189      0.2627
     77  OD1       18.3460   -4.5690  -17.9830 O.2   189  ASN189     -0.2716
     78  ND2       19.4580   -2.6430  -18.2430 N.am  189  ASN189     -0.0877
     79  N         20.6800   -5.1490  -15.0230 N.am  190  MET190     -0.1979
     80  CA        20.9590   -4.4900  -13.7500 C.3   190  MET190      0.1605
     81  C         21.2660   -5.5830  -12.7490 C.2   190  MET190      0.2287
     82  O         20.4660   -6.4900  -12.5530 O.2   190  MET190     -0.2864
     83  CB        19.7760   -3.6230  -13.3070 C.3   190  MET190      0.0413
     84  CG        19.5700   -2.4280  -14.2590 C.3   190  MET190      0.0598
     85  SD        18.2070   -1.3960  -13.7360 S.3   190  MET190     -0.1393
     86  CE        18.7970   -0.7450  -12.1590 C.3   190  MET190      0.0692
@<TRIPOS>BOND
     1     1     2    1
     2     2     3    1
     3     3     4    2
     4    69    68   ar
     5    75    76    1
     6    75    72    1
     7    63    64    1
     8    78    76   am
     9    76    77    2
    10    68    70   ar
    11    68    67    1
    12    64    67    1
    13    64    65    1
    14    72    71    1
    15    72    73    1
    16    65    66    2
    17    74    73    2
    18    73    79   am
    19    12    13    1
    20    12    11    1
    21     5     6    1
    22    10    11    1
    23    10     9    1
    24    79    80    1
    25     6     9    1
    26     6     7    1
    27    62    61    1
    28    84    85    1
    29    84    83    1
    30    61    60    1
    31    80    83    1
    32    80    81    1
    33    85    86    1
    34    20    19   ar
    35     7     8    2
    36    21    19   ar
    37    19    18    1
    38    81    82    2
    39    60    59    1
    40    59    58    1
    41    18    15    1
    42    52    51    2
    43    58    55    1
    44    15    16    1
    45    15    14    1
    46    42    44   ar
    47    42    40   ar
    48    55    56    1
    49    55    54    1
    50    31    29   ar
    51    31    32   ar
    52    17    16    2
    53    44    43   ar
    54    40    39   ar
    55    29    27   ar
    56    51    53   am
    57    51    50    1
    58    33    32    1
    59    16    22   am
    60    56    57    2
    61    32    30   ar
    62    43    41   ar
    63    39    41   ar
    64    39    38    1
    65    27    26    1
    66    27    28   ar
    67    22    23    1
    68    50    49    1
    69    38    35    1
    70    26    23    1
    71    30    28   ar
    72    49    46    1
    73    23    24    1
    74    35    34    1
    75    35    36    1
    76    46    45    1
    77    46    47    1
    78    24    25    2
    79    36    37    2
    80    47    48    2
