@<TRIPOS>MOLECULE
tmp/3ovqB03.pdb
 74 69 0 0 0
SMALL
GASTEIGER

@<TRIPOS>ATOM
      1  N         19.5500   10.1420    2.2480 N.3    54  ARG54      -0.1245
      2  CA        19.4290   11.1360    1.1920 C.3    54  ARG54       0.1563
      3  C         20.1960   12.4150    1.5580 C.2    54  ARG54       0.2260
      4  O         20.8140   13.0390    0.6960 O.2    54  ARG54      -0.2867
      5  CB        17.9550   11.4350    0.8710 C.3    54  ARG54       0.0307
      6  CG        17.7620   12.5680   -0.1390 C.3    54  ARG54       0.0489
      7  CD        18.4730   12.2900   -1.4590 C.3    54  ARG54       0.2205
      8  NE        17.8330   11.2350   -2.2430 N.pl3  54  ARG54      -0.0865
      9  CZ        18.3900   10.6370   -3.2970 C.cat  54  ARG54       0.5346
     10  NH1       19.6070   10.9750   -3.6870 N.pl3  54  ARG54       0.1354
     11  NH2       17.7310    9.6920   -3.9640 N.pl3  54  ARG54       0.1354
     12  N         21.6350   14.9120   -3.5420 N.3    59  GLN59      -0.1245
     13  CA        20.4400   14.8650   -4.3690 C.3    59  GLN59       0.1566
     14  C         20.5780   13.9440   -5.5870 C.2    59  GLN59       0.2260
     15  O         19.5780   13.5000   -6.1550 O.2    59  GLN59      -0.2867
     16  CB        20.0970   16.2860   -4.8360 C.3    59  GLN59       0.0367
     17  CG        19.8620   17.2940   -3.6990 C.3    59  GLN59       0.0905
     18  CD        21.1470   17.9120   -3.1340 C.2    59  GLN59       0.2608
     19  OE1       22.2550   17.6070   -3.5810 O.2    59  GLN59      -0.2717
     20  NE2       20.9910   18.7920   -2.1440 N.am   59  GLN59      -0.0878
     21  N         20.5580    7.7120   -7.2070 N.3    62  PHE62      -0.1241
     22  CA        19.2620    7.0720   -7.4280 C.3    62  PHE62       0.1605
     23  C         19.0050    5.9850   -6.3850 C.2    62  PHE62       0.2264
     24  O         19.8090    5.0530   -6.2430 O.2    62  PHE62      -0.2867
     25  CB        19.2620    6.4460   -8.8300 C.3    62  PHE62       0.0534
     26  CG        17.9190    5.9040   -9.2760 C.ar   62  PHE62      -0.0203
     27  CD1       17.1870    6.5640  -10.2640 C.ar   62  PHE62      -0.0042
     28  CD2       17.4140    4.7240   -8.7450 C.ar   62  PHE62      -0.0042
     29  CE1       15.9700    6.0770  -10.7000 C.ar   62  PHE62      -0.0003
     30  CE2       16.1930    4.2160   -9.1800 C.ar   62  PHE62      -0.0003
     31  CZ        15.4660    4.8940  -10.1590 C.ar   62  PHE62      -0.0000
     32  N          8.5980    9.0560   -0.6580 N.3    80  ALA80      -0.1245
     33  CA         8.7440   10.1610   -1.6190 C.3    80  ALA80       0.1562
     34  C          9.3520   11.3870   -0.9310 C.2    80  ALA80       0.2260
     35  O         10.3120   11.9800   -1.4170 O.2    80  ALA80      -0.2867
     36  CB         7.4090   10.5130   -2.2430 C.3    80  ALA80       0.0290
     37  N         12.9120   11.1630   -0.2170 N.3    83  GLY83      -0.1210
     38  CA        13.7690   11.3460   -1.3790 C.3    83  GLY83       0.1956
     39  C         14.0780   10.0990   -2.2070 C.2    83  GLY83       0.2612
     40  O         15.0520   10.0730   -2.9590 O.2    83  GLY83      -0.2717
     41  N         13.2550    9.0630   -2.0710 N.am   84  ALA84      -0.1965
     42  CA        13.3910    7.8480   -2.8730 C.3    84  ALA84       0.1728
     43  C         13.0900    8.1320   -4.3540 C.2    84  ALA84       0.2616
     44  O         12.2280    8.9480   -4.6540 O.2    84  ALA84      -0.2715
     45  CB        12.4380    6.7840   -2.3380 C.3    84  ALA84       0.0334
     46  N         13.7880    7.4740   -5.2800 N.am   85  ASN85      -0.1972
     47  CA        13.4990    7.6870   -6.7020 C.3    85  ASN85       0.1688
     48  C         12.5300    6.6710   -7.2720 C.2    85  ASN85       0.2292
     49  O         11.7430    6.9800   -8.1630 O.2    85  ASN85      -0.2864
     50  CB        14.7700    7.6460   -7.5450 C.3    85  ASN85       0.1181
     51  CG        15.7910    8.6680   -7.1080 C.2    85  ASN85       0.2629
     52  OD1       16.6100    8.3990   -6.2400 O.2    85  ASN85      -0.2716
     53  ND2       15.7490    9.8490   -7.7130 N.am   85  ASN85      -0.0877
     54  N          5.6630   11.2340   -7.7310 N.3   108  GLY108     -0.1210
     55  CA         6.8750   11.5910   -8.4520 C.3   108  GLY108      0.1956
     56  C          7.9500   10.5180   -8.5450 C.2   108  GLY108      0.2612
     57  O          9.0750   10.7950   -8.9680 O.2   108  GLY108     -0.2717
     58  N          7.6110    9.2940   -8.1610 N.am  109  MET109     -0.1965
     59  CA         8.5850    8.2080   -8.1560 C.3   109  MET109      0.1736
     60  C          8.3910    7.2420   -9.3200 C.2   109  MET109      0.2616
     61  O          7.2860    7.1110   -9.8470 O.2   109  MET109     -0.2715
     62  CB         8.4790    7.4270   -6.8390 C.3   109  MET109      0.0427
     63  CG         8.9880    8.2100   -5.6230 C.3   109  MET109      0.0599
     64  SD         8.9180    7.2490   -4.0960 S.3   109  MET109     -0.1393
     65  CE         7.1410    6.9690   -3.9090 C.3   109  MET109      0.0692
     66  N          9.4650    6.5630   -9.7210 N.am  110  LYS110     -0.1977
     67  CA         9.3330    5.4960  -10.7000 C.3   110  LYS110      0.1596
     68  C          8.7040    4.2870  -10.0170 C.2   110  LYS110      0.2287
     69  O          8.7320    4.1730   -8.7960 O.2   110  LYS110     -0.2864
     70  CB        10.6890    5.1380  -11.3240 C.3   110  LYS110      0.0298
     71  CG        11.3660    6.3180  -12.0360 C.3   110  LYS110      0.0038
     72  CD        12.5640    5.8800  -12.8800 C.3   110  LYS110      0.0206
     73  CE        12.1190    5.2160  -14.1780 C.3   110  LYS110      0.1093
     74  NZ        13.2740    4.7620  -15.0150 N.3   110  LYS110     -0.1314
@<TRIPOS>BOND
     1    74    73    1
     2    73    72    1
     3    72    71    1
     4    71    70    1
     5    70    67    1
     6    67    68    1
     7    67    66    1
     8    29    27   ar
     9    29    31   ar
    10    27    26   ar
    11    31    30   ar
    12    68    69    2
    13    61    60    2
    14    66    60   am
    15    60    59    1
    16    26    25    1
    17    26    28   ar
    18    30    28   ar
    19    57    56    2
    20    25    22    1
    21    56    55    1
    22    56    58   am
    23    55    54    1
    24    49    48    2
    25    58    59    1
    26    59    62    1
    27    53    51   am
    28    50    51    1
    29    50    47    1
    30    22    21    1
    31    22    23    1
    32    48    47    1
    33    51    52    2
    34    62    63    1
    35    47    46    1
    36    23    24    2
    37    15    14    2
    38    63    64    1
    39    14    13    1
    40    46    43   am
    41    16    13    1
    42    16    17    1
    43    44    43    2
    44    13    12    1
    45    43    42    1
    46    64    65    1
    47    11     9    1
    48    17    18    1
    49    10     9    1
    50    19    18    2
    51     9     8    2
    52    18    20   am
    53    40    39    2
    54    42    45    1
    55    42    41    1
    56     8     7    1
    57    36    33    1
    58    39    41   am
    59    39    38    1
    60    33    34    1
    61    33    32    1
    62     7     6    1
    63    35    34    2
    64    38    37    1
    65     6     5    1
    66     4     3    2
    67     5     2    1
    68     2     3    1
    69     2     1    1
