@<TRIPOS>MOLECULE
tmp/3ovqA00.pdb
 171 163 0 0 0
SMALL
GASTEIGER

@<TRIPOS>ATOM
      1  N         17.4910    8.5790   23.4610 N.3     7  SER7       -0.1217
      2  CA        16.8790    7.9420   22.3160 C.3     7  SER7        0.1889
      3  C         17.4910    8.4930   21.0250 C.2     7  SER7        0.2288
      4  O         17.6390    9.7090   20.8680 O.2     7  SER7       -0.2866
      5  CB        15.3930    8.2370   22.3060 C.3     7  SER7        0.2089
      6  OG        14.8950    8.0490   20.9930 O.3     7  SER7       -0.2183
      7  N         16.2190    8.1320   17.9390 N.3     9  LEU9       -0.1231
      8  CA        15.1960    8.1470   16.9020 C.3     9  LEU9        0.1693
      9  C         15.3440    9.3100   15.9120 C.2     9  LEU9        0.2592
     10  O         15.1530    9.1390   14.7030 O.2     9  LEU9       -0.2718
     11  CB        13.8080    8.1770   17.5570 C.3     9  LEU9        0.0284
     12  CG        12.5720    8.2370   16.6580 C.3     9  LEU9        0.0019
     13  CD1       12.5370    7.0970   15.6270 C.3     9  LEU9        0.0001
     14  CD2       11.3130    8.2340   17.5230 C.3     9  LEU9        0.0001
     15  N         15.6710   10.4910   16.4240 N.am   10  ASN10      -0.1974
     16  CA        15.8240   11.6570   15.5660 C.3    10  ASN10       0.1688
     17  C         17.2910   12.0310   15.3320 C.2    10  ASN10       0.2292
     18  O         17.6050   13.1690   14.9880 O.2    10  ASN10      -0.2864
     19  CB        15.0160   12.8410   16.1070 C.3    10  ASN10       0.1181
     20  CG        13.5050   12.6060   16.0150 C.2    10  ASN10       0.2629
     21  OD1       12.7610   12.9030   16.9460 O.2    10  ASN10      -0.2716
     22  ND2       13.0590   12.0540   14.8930 N.am   10  ASN10      -0.0877
     23  N         18.7060    3.8210   24.5450 N.3    32  HIS32      -0.1241
     24  CA        17.3230    3.4140   24.3570 C.3    32  HIS32       0.1621
     25  C         17.1040    3.3540   22.8610 C.2    32  HIS32       0.2264
     26  O         17.0930    4.3880   22.1930 O.2    32  HIS32      -0.2867
     27  CB        16.4060    4.4710   24.9860 C.3    32  HIS32       0.0745
     28  CG        14.9450    4.2170   24.7900 C.ar   32  HIS32       0.0817
     29  ND1       14.2080    3.4230   25.6410 N.ar   32  HIS32      -0.2268
     30  CD2       14.0700    4.7000   23.8750 C.ar   32  HIS32       0.1154
     31  CE1       12.9430    3.4180   25.2530 C.ar   32  HIS32       0.1986
     32  NE2       12.8330    4.1900   24.1900 N.ar   32  HIS32      -0.2212
     33  N         14.8350    2.5270   19.6910 N.3    34  ASP34      -0.1239
     34  CA        13.4500    2.3780   19.2550 C.3    34  ASP34       0.1674
     35  C         13.2880    1.4820   18.0330 C.2    34  ASP34       0.2266
     36  O         13.7640    1.8030   16.9460 O.2    34  ASP34      -0.2867
     37  CB        12.8510    3.7560   18.9960 C.3    34  ASP34       0.1410
     38  CG        12.7190    4.5580   20.2820 C.2    34  ASP34       0.3668
     39  OD1       12.0260    4.0640   21.1840 O.co2  34  ASP34      -0.2456
     40  OD2       13.3360    5.6320   20.4110 O.co2  34  ASP34      -0.2456
     41  N         10.6140   -0.1280   15.5170 N.3    36  MET36      -0.1245
     42  CA         9.2320    0.0480   15.0730 C.3    36  MET36       0.1570
     43  C          9.0140   -0.7490   13.8000 C.2    36  MET36       0.2261
     44  O          9.8130   -0.6480   12.8660 O.2    36  MET36      -0.2867
     45  CB         8.9460    1.5300   14.8050 C.3    36  MET36       0.0387
     46  CG         9.1810    2.4480   16.0240 C.3    36  MET36       0.0595
     47  SD         8.7410    4.1480   15.5770 S.3    36  MET36      -0.1393
     48  CE         9.3900    5.0740   16.9690 C.3    36  MET36       0.0692
     49  N         13.2580   -0.7000   22.9710 N.3    67  HIS67      -0.1241
     50  CA        11.8530   -0.3380   22.9590 C.3    67  HIS67       0.1621
     51  C         11.1390   -0.9760   21.7630 C.2    67  HIS67       0.2264
     52  O         11.1490   -0.4350   20.6380 O.2    67  HIS67      -0.2867
     53  CB        11.6900    1.1840   22.9730 C.3    67  HIS67       0.0745
     54  CG        10.2800    1.6310   23.1980 C.ar   67  HIS67       0.0817
     55  ND1        9.8870    2.9470   23.0860 N.ar   67  HIS67      -0.2268
     56  CD2        9.1640    0.9280   23.4980 C.ar   67  HIS67       0.1154
     57  CE1        8.5900    3.0380   23.3200 C.ar   67  HIS67       0.1986
     58  NE2        8.1270    1.8270   23.5690 N.ar   67  HIS67      -0.2212
     59  N          8.4020   -1.5370   19.7510 N.3    69  MET69      -0.1245
     60  CA         7.1150   -1.0950   19.2360 C.3    69  MET69       0.1570
     61  C          6.7460   -1.9370   18.0220 C.2    69  MET69       0.2261
     62  O          6.7270   -1.4540   16.8790 O.2    69  MET69      -0.2867
     63  CB         7.1570    0.4020   18.9020 C.3    69  MET69       0.0387
     64  CG         7.1550    1.2810   20.1710 C.3    69  MET69       0.0595
     65  SD         7.6580    2.9850   19.8190 S.3    69  MET69      -0.1393
     66  CE         9.4460    2.7660   19.6920 C.3    69  MET69       0.0692
     67  N          4.7780    5.6090   28.7240 N.3   138  MET138     -0.1245
     68  CA         4.9170    6.5120   27.5820 C.3   138  MET138      0.1570
     69  C          4.3720    7.8860   27.9240 C.2   138  MET138      0.2261
     70  O          3.2920    7.9960   28.5030 O.2   138  MET138     -0.2867
     71  CB         4.1590    5.9710   26.3750 C.3   138  MET138      0.0387
     72  CG         4.7500    4.7080   25.7870 C.3   138  MET138      0.0595
     73  SD         6.4560    4.9210   25.2670 S.3   138  MET138     -0.1393
     74  CE         6.2900    6.2080   24.0310 C.3   138  MET138      0.0692
     75  N          4.3750   10.2550   25.3760 N.3   140  VAL140     -0.1245
     76  CA         3.8240   10.6780   24.0940 C.3   140  VAL140      0.1561
     77  C          3.2060    9.4420   23.4580 C.2   140  VAL140      0.2260
     78  O          3.4740    8.3190   23.8860 O.2   140  VAL140     -0.2867
     79  CB         4.9060   11.2260   23.1200 C.3   140  VAL140      0.0252
     80  CG1        5.5910   12.4630   23.6960 C.3   140  VAL140      0.0019
     81  CG2        5.9230   10.1320   22.7730 C.3   140  VAL140      0.0019
     82  N          3.3440    6.6920   20.9810 N.3   142  PRO142     -0.2102
     83  CA         4.5400    6.1220   20.3460 C.3   142  PRO142      0.1504
     84  C          4.4950    6.1380   18.8220 C.2   142  PRO142      0.2576
     85  O          3.4310    6.0040   18.2120 O.2   142  PRO142     -0.2718
     86  CB         4.5790    4.6770   20.8700 C.3   142  PRO142      0.0282
     87  CG         3.1970    4.4030   21.4060 C.3   142  PRO142      0.0208
     88  CD         2.6570    5.7290   21.8640 C.3   142  PRO142      0.0893
     89  N          5.6660    6.3190   18.2230 N.am  143  GLY143     -0.1943
     90  CA         5.8220    6.2400   16.7850 C.3   143  GLY143      0.2014
     91  C          6.6780    7.3720   16.2470 C.2   143  GLY143      0.2639
     92  O          7.3120    7.2310   15.2060 O.2   143  GLY143     -0.2714
     93  N          6.7030    8.4960   16.9620 N.am  144  PHE144     -0.1959
     94  CA         7.3830    9.6850   16.4670 C.3   144  PHE144      0.1771
     95  C          8.1250   10.4330   17.5700 C.2   144  PHE144      0.2620
     96  O          7.6670   10.4900   18.7150 O.2   144  PHE144     -0.2715
     97  CB         6.3750   10.6210   15.7960 C.3   144  PHE144      0.0574
     98  CG         5.5760    9.9580   14.7080 C.ar  144  PHE144     -0.0200
     99  CD1        6.1730    9.6260   13.4960 C.ar  144  PHE144     -0.0042
    100  CD2        4.2350    9.6430   14.9050 C.ar  144  PHE144     -0.0042
    101  CE1        5.4470    9.0010   12.4910 C.ar  144  PHE144     -0.0003
    102  CE2        3.5040    9.0180   13.9060 C.ar  144  PHE144     -0.0003
    103  CZ         4.1160    8.6970   12.6970 C.ar  144  PHE144     -0.0000
    104  N          9.2660   11.0140   17.2150 N.am  145  GLY145     -0.1940
    105  CA        10.0010   11.8630   18.1380 C.3   145  GLY145      0.2014
    106  C          9.5410   13.3090   18.0730 C.2   145  GLY145      0.2639
    107  O          8.7640   13.6840   17.1990 O.2   145  GLY145     -0.2714
    108  N         10.0180   14.1270   19.0070 N.am  146  GLY146     -0.1939
    109  CA         9.7510   15.5540   18.9690 C.3   146  GLY146      0.2014
    110  C          8.3340   15.9760   19.3260 C.2   146  GLY146      0.2638
    111  O          7.9790   17.1360   19.1520 O.2   146  GLY146     -0.2714
    112  N          7.5200   15.0490   19.8240 N.am  147  GLN147     -0.1977
    113  CA         6.1640   15.3970   20.2500 C.3   147  GLN147      0.1601
    114  C          6.1590   16.0600   21.6290 C.2   147  GLN147      0.2287
    115  O          7.1300   15.9670   22.3790 O.2   147  GLN147     -0.2864
    116  CB         5.2780   14.1530   20.2880 C.3   147  GLN147      0.0394
    117  CG         5.1780   13.4100   18.9470 C.3   147  GLN147      0.0908
    118  CD         4.2410   12.2290   19.0260 C.2   147  GLN147      0.2608
    119  OE1        4.6770   11.0760   19.0490 O.2   147  GLN147     -0.2717
    120  NE2        2.9420   12.5090   19.0930 N.am  147  GLN147     -0.0878
    121  N          9.1950    8.1360   28.6720 N.3   172  ASP172     -0.1225
    122  CA         9.6730    8.2200   27.3120 C.3   172  ASP172      0.1805
    123  C          8.7050    9.0420   26.4730 C.2   172  ASP172      0.2598
    124  O          7.5520    8.6440   26.2780 O.2   172  ASP172     -0.2718
    125  CB         9.7860    6.8070   26.7470 C.3   172  ASP172      0.1424
    126  CG        10.2990    6.7800   25.3120 C.2   172  ASP172      0.3668
    127  OD1       10.9590    7.7470   24.8710 O.co2 172  ASP172     -0.2456
    128  OD2       10.0270    5.7760   24.6270 O.co2 172  ASP172     -0.2456
    129  N          9.1810   10.1850   25.9890 N.am  173  GLY173     -0.1942
    130  CA         8.4020   11.0410   25.1100 C.3   173  GLY173      0.2014
    131  C          8.3810   12.4910   25.5690 C.2   173  GLY173      0.2639
    132  O          7.7870   12.8150   26.5990 O.2   173  GLY173     -0.2714
    133  N          9.0280   13.3640   24.8010 N.am  174  GLY174     -0.1939
    134  CA         9.0820   14.7820   25.1150 C.3   174  GLY174      0.2014
    135  C          9.7280   15.1450   26.4460 C.2   174  GLY174      0.2638
    136  O          9.4430   16.2080   27.0070 O.2   174  GLY174     -0.2714
    137  N         10.5940   14.2770   26.9630 N.am  175  VAL175     -0.1977
    138  CA        11.2880   14.5870   28.2070 C.3   175  VAL175      0.1596
    139  C         12.5320   15.4420   27.9620 C.2   175  VAL175      0.2287
    140  O         13.4210   15.0680   27.1900 O.2   175  VAL175     -0.2864
    141  CB        11.6690   13.3260   29.0140 C.3   175  VAL175      0.0276
    142  CG1       12.2860   13.7440   30.3550 C.3   175  VAL175      0.0022
    143  CG2       10.4430   12.4680   29.2650 C.3   175  VAL175      0.0022
    144  N         14.3040    8.5540   29.4130 N.3   192  VAL192     -0.1231
    145  CA        14.6530    8.5550   28.0010 C.3   192  VAL192      0.1692
    146  C         14.4350    9.9490   27.4290 C.2   192  VAL192      0.2593
    147  O         13.3770   10.5580   27.6250 O.2   192  VAL192     -0.2718
    148  CB        13.8180    7.5540   27.2150 C.3   192  VAL192      0.0266
    149  CG1       14.1470    7.6680   25.7250 C.3   192  VAL192      0.0020
    150  CG2       14.0940    6.1350   27.7280 C.3   192  VAL192      0.0020
    151  N         15.4360   10.4520   26.7200 N.am  193  SER193     -0.1938
    152  CA        15.3440   11.7740   26.1180 C.3   193  SER193      0.2055
    153  C         15.9290   11.7250   24.6990 C.2   193  SER193      0.2644
    154  O         17.0880   11.3470   24.5020 O.2   193  SER193     -0.2714
    155  CB        16.0830   12.8010   26.9840 C.3   193  SER193      0.2130
    156  OG        15.8400   14.1240   26.5410 O.3   193  SER193     -0.2179
    157  N         15.1180   12.0880   23.7120 N.am  194  GLY194     -0.1939
    158  CA        15.5810   12.0890   22.3410 C.3   194  GLY194      0.2014
    159  C         15.9650   13.4680   21.8490 C.2   194  GLY194      0.2640
    160  O         17.1390   13.8590   21.8910 O.2   194  GLY194     -0.2714
    161  N         14.9740   14.2110   21.3760 N.am  195  SER195     -0.1935
    162  CA        15.2510   15.4660   20.6990 C.3   195  SER195      0.2055
    163  C         15.9740   16.4680   21.6010 C.2   195  SER195      0.2642
    164  O         16.8230   17.2190   21.1280 O.2   195  SER195     -0.2714
    165  CB        13.9770   16.0650   20.0840 C.3   195  SER195      0.2130
    166  OG        13.0060   16.3730   21.0650 O.3   195  SER195     -0.2179
    167  N         15.6660   16.4560   22.8960 N.am  196  ALA196     -0.1977
    168  CA        16.2940   17.3900   23.8290 C.3   196  ALA196      0.1597
    169  C         17.8060   17.2000   23.9220 C.2   196  ALA196      0.2287
    170  O         18.5500   18.1690   24.0550 O.2   196  ALA196     -0.2864
    171  CB        15.6540   17.2860   25.2140 C.3   196  ALA196      0.0319
@<TRIPOS>BOND
     1   101   103   ar
     2   101    99   ar
     3   103   102   ar
     4    44    43    2
     5    99    98   ar
     6    43    42    1
     7   102   100   ar
     8    10     9    2
     9    98   100   ar
    10    98    97    1
    11    45    42    1
    12    45    46    1
    13    22    20   am
    14    18    17    2
    15    42    41    1
    16    92    91    2
    17    17    16    1
    18    16    19    1
    19    16    15    1
    20    47    46    1
    21    47    48    1
    22    13    12    1
    23    97    94    1
    24     9    15   am
    25     9     8    1
    26    20    19    1
    27    20    21    2
    28    91    90    1
    29    91    93   am
    30    94    93    1
    31    94    95    1
    32    12    14    1
    33    12    11    1
    34    90    89    1
    35    62    61    2
    36     8    11    1
    37     8     7    1
    38    36    35    2
    39   107   106    2
    40   104    95   am
    41   104   105    1
    42    95    96    2
    43    61    60    1
    44    35    34    1
    45   106   105    1
    46   106   108   am
    47    85    84    2
    48    89    84   am
    49    84    83    1
    50    63    60    1
    51    63    64    1
    52   117   118    1
    53   117   116    1
    54   109   108    1
    55   109   110    1
    56    37    34    1
    57    37    38    1
    58   118   119    2
    59   118   120   am
    60   111   110    2
    61    60    59    1
    62    34    33    1
    63   110   112   am
    64    66    65    1
    65    65    64    1
    66   112   113    1
    67   165   162    1
    68   165   166    1
    69   113   116    1
    70   113   114    1
    71    38    40   ar
    72    38    39   ar
    73    83    86    1
    74    83    82    1
    75    52    51    2
    76   162   161    1
    77   162   163    1
    78     4     3    2
    79    86    87    1
    80    82    88    1
    81     6     5    1
    82     3     2    1
    83   164   163    2
    84   161   159   am
    85    87    88    1
    86   163   167   am
    87   114   115    2
    88    51    50    1
    89   159   160    2
    90   159   158    1
    91    26    25    2
    92     5     2    1
    93     2     1    1
    94   158   157    1
    95    81    79    1
    96    25    24    1
    97   167   168    1
    98    50    49    1
    99    50    53    1
   100    53    54    1
   101    55    54   ar
   102    55    57   ar
   103    79    80    1
   104    79    76    1
   105    54    56   ar
   106    57    58   ar
   107    77    78    2
   108    77    76    1
   109    56    58   ar
   110   157   153   am
   111   168   169    1
   112   168   171    1
   113    30    32   ar
   114    30    28   ar
   115   169   170    2
   116    74    73    1
   117    76    75    1
   118    32    31   ar
   119    24    23    1
   120    24    27    1
   121   154   153    2
   122   128   126   ar
   123   153   152    1
   124    28    27    1
   125    28    29   ar
   126   133   134    1
   127   133   131   am
   128   127   126   ar
   129   130   131    1
   130   130   129    1
   131   134   135    1
   132    31    29   ar
   133    73    72    1
   134   126   125    1
   135   131   132    2
   136   149   148    1
   137    72    71    1
   138   129   123   am
   139   152   151    1
   140   152   155    1
   141   124   123    2
   142    71    68    1
   143   135   137   am
   144   135   136    2
   145   123   122    1
   146   156   155    1
   147   151   146   am
   148   125   122    1
   149   137   138    1
   150   140   139    2
   151   148   150    1
   152   148   145    1
   153   122   121    1
   154   146   147    2
   155   146   145    1
   156    68    69    1
   157    68    67    1
   158    69    70    2
   159   139   138    1
   160   145   144    1
   161   138   141    1
   162   141   143    1
   163   141   142    1
