@<TRIPOS>MOLECULE
tmp/3ovqA01.pdb
 86 80 0 0 0
SMALL
GASTEIGER

@<TRIPOS>ATOM
      1  N         20.2690    6.4120   41.8830 N.3     1  GLY1       -0.1225
      2  CA        19.6710    5.3100   41.1480 C.3     1  GLY1        0.1811
      3  C         19.0010    5.7360   39.8540 C.2     1  GLY1        0.2280
      4  O         18.3320    4.9290   39.2000 O.2     1  GLY1       -0.2866
      5  N         18.9700    6.9090   35.9560 N.3     3  LYS3       -0.1245
      6  CA        19.7800    6.7180   34.7650 C.3     3  LYS3        0.1561
      7  C         19.1770    7.4220   33.5540 C.2     3  LYS3        0.2260
      8  O         17.9510    7.4540   33.3870 O.2     3  LYS3       -0.2867
      9  CB        19.9710    5.2290   34.4930 C.3     3  LYS3        0.0271
     10  CG        20.4100    4.4630   35.7320 C.3     3  LYS3        0.0035
     11  CD        21.3490    3.3360   35.3950 C.3     3  LYS3        0.0206
     12  CE        21.6490    2.4920   36.6170 C.3     3  LYS3        0.1093
     13  NZ        22.1070    1.1410   36.2010 N.3     3  LYS3       -0.1314
     14  N         23.8950    6.7520   30.4820 N.3    29  ASP29      -0.1225
     15  CA        23.9200    5.5410   31.2940 C.3    29  ASP29       0.1805
     16  C         23.5960    4.3150   30.4430 C.2    29  ASP29       0.2597
     17  O         24.0990    3.2200   30.6900 O.2    29  ASP29      -0.2718
     18  CB        22.9370    5.6670   32.4580 C.3    29  ASP29       0.1424
     19  CG        23.3400    6.7580   33.4350 C.2    29  ASP29       0.3668
     20  OD1       24.4080    6.6140   34.0620 O.co2  29  ASP29      -0.2456
     21  OD2       22.6070    7.7600   33.5610 O.co2  29  ASP29      -0.2456
     22  N         22.7430    4.5040   29.4420 N.am   30  TYR30      -0.1976
     23  CA        22.3940    3.4230   28.5280 C.3    30  TYR30       0.1639
     24  C         21.8870    4.0030   27.2190 C.2    30  TYR30       0.2290
     25  O         21.7560    5.2200   27.0770 O.2    30  TYR30      -0.2864
     26  CB        21.3530    2.4780   29.1440 C.3    30  TYR30       0.0560
     27  CG        19.9950    3.1030   29.4640 C.ar   30  TYR30      -0.0198
     28  CD1       18.8750    2.8390   28.6750 C.ar   30  TYR30      -0.0009
     29  CD2       19.8400    3.9410   30.5580 C.ar   30  TYR30      -0.0009
     30  CE1       17.6190    3.4080   28.9790 C.ar   30  TYR30       0.0417
     31  CE2       18.6080    4.5120   30.8690 C.ar   30  TYR30       0.0417
     32  CZ        17.5100    4.2450   30.0810 C.ar   30  TYR30       0.1957
     33  OH        16.3030    4.8170   30.4110 O.3    30  TYR30      -0.2866
     34  N         24.8450   -0.7870   27.5890 N.3    63  PHE63      -0.1241
     35  CA        23.5320   -1.3860   27.8610 C.3    63  PHE63       0.1605
     36  C         22.5180   -0.9070   26.8300 C.2    63  PHE63       0.2264
     37  O         22.2980    0.3000   26.6880 O.2    63  PHE63      -0.2867
     38  CB        23.0640   -0.9790   29.2630 C.3    63  PHE63       0.0534
     39  CG        21.7780   -1.6330   29.7040 C.ar   63  PHE63      -0.0203
     40  CD1       21.8000   -2.6900   30.6040 C.ar   63  PHE63      -0.0042
     41  CD2       20.5500   -1.1870   29.2300 C.ar   63  PHE63      -0.0042
     42  CE1       20.6230   -3.2970   31.0240 C.ar   63  PHE63      -0.0003
     43  CE2       19.3650   -1.7910   29.6420 C.ar   63  PHE63      -0.0003
     44  CZ        19.4030   -2.8420   30.5430 C.ar   63  PHE63      -0.0000
     45  N         18.0380   -5.5480   27.4110 N.3    87  GLN87      -0.1245
     46  CA        16.6960   -5.4800   27.9390 C.3    87  GLN87       0.1566
     47  C         15.6910   -5.4000   26.7950 C.2    87  GLN87       0.2260
     48  O         15.8780   -4.6530   25.8300 O.2    87  GLN87      -0.2867
     49  CB        16.5500   -4.2580   28.8500 C.3    87  GLN87       0.0367
     50  CG        15.1470   -4.0730   29.4300 C.3    87  GLN87       0.0905
     51  CD        15.1290   -3.0940   30.6050 C.2    87  GLN87       0.2608
     52  OE1       15.2020   -3.4970   31.7580 O.2    87  GLN87      -0.2717
     53  NE2       15.0260   -1.8040   30.3070 N.am   87  GLN87      -0.0878
     54  N         16.9120   -8.6820   30.3450 N.3   111  LYS111     -0.1245
     55  CA        16.0200   -8.0380   31.3000 C.3   111  LYS111      0.1561
     56  C         14.6770   -7.7560   30.6280 C.2   111  LYS111      0.2260
     57  O         14.5910   -7.6580   29.3960 O.2   111  LYS111     -0.2867
     58  CB        16.6380   -6.7470   31.8370 C.3   111  LYS111      0.0271
     59  CG        17.7370   -6.9740   32.8730 C.3   111  LYS111      0.0035
     60  CD        18.2700   -5.6580   33.4080 C.3   111  LYS111      0.0206
     61  CE        18.9560   -5.8380   34.7500 C.3   111  LYS111      0.1093
     62  NZ        17.9870   -6.2240   35.8140 N.3   111  LYS111     -0.1314
     63  N         11.9650   -0.2660   38.8140 N.3   168  ASP168     -0.1239
     64  CA        12.5150    0.7720   37.9530 C.3   168  ASP168      0.1674
     65  C         11.4110    1.2970   37.0240 C.2   168  ASP168      0.2266
     66  O         10.7160    0.5170   36.3700 O.2   168  ASP168     -0.2867
     67  CB        13.7220    0.2480   37.1660 C.3   168  ASP168      0.1410
     68  CG        14.9510    0.0300   38.0620 C.2   168  ASP168      0.3668
     69  OD1       15.1340    0.8100   39.0140 O.co2 168  ASP168     -0.2456
     70  OD2       15.7270   -0.9150   37.8260 O.co2 168  ASP168     -0.2456
     71  N         12.7040    6.9540   37.6100 N.3   189  ASN189     -0.1225
     72  CA        14.1540    6.9400   37.8110 C.3   189  ASN189      0.1785
     73  C         14.9570    6.6180   36.5440 C.2   189  ASN189      0.2597
     74  O         16.1800    6.6650   36.5530 O.2   189  ASN189     -0.2718
     75  CB        14.5560    6.0160   38.9680 C.3   189  ASN189      0.1169
     76  CG        14.2410    4.5640   38.6910 C.2   189  ASN189      0.2627
     77  OD1       13.1100    4.2150   38.3470 O.2   189  ASN189     -0.2716
     78  ND2       15.2420    3.7030   38.8520 N.am  189  ASN189     -0.0877
     79  N         14.2650    6.2800   35.4600 N.am  190  MET190     -0.1979
     80  CA        14.9370    6.1040   34.1800 C.3   190  MET190      0.1605
     81  C         14.3320    7.0540   33.1610 C.2   190  MET190      0.2287
     82  O         13.1390    7.0250   32.8840 O.2   190  MET190     -0.2864
     83  CB        14.8840    4.6510   33.7070 C.3   190  MET190      0.0413
     84  CG        15.6150    3.7000   34.6620 C.3   190  MET190      0.0598
     85  SD        15.5260    1.9680   34.1880 S.3   190  MET190     -0.1393
     86  CE        16.3320    2.0000   32.5880 C.3   190  MET190      0.0692
@<TRIPOS>BOND
     1    48    47    2
     2    37    36    2
     3    47    46    1
     4    36    35    1
     5    25    24    2
     6    24    23    1
     7    45    46    1
     8    34    35    1
     9    35    38    1
    10    46    49    1
    11    23    26    1
    12    23    22    1
    13    28    30   ar
    14    28    27   ar
    15    49    50    1
    16    30    32   ar
    17    26    27    1
    18    41    43   ar
    19    41    39   ar
    20    38    39    1
    21    57    56    2
    22    50    51    1
    23    22    16   am
    24    27    29   ar
    25    43    44   ar
    26    39    40   ar
    27    32    33    1
    28    32    31   ar
    29    53    51   am
    30    54    55    1
    31    16    17    2
    32    16    15    1
    33    14    15    1
    34    44    42   ar
    35    29    31   ar
    36    40    42   ar
    37    51    52    2
    38    56    55    1
    39    15    18    1
    40    55    58    1
    41    58    59    1
    42    18    19    1
    43    86    85    1
    44    59    60    1
    45    82    81    2
    46    81    80    1
    47     8     7    2
    48    60    61    1
    49    19    21   ar
    50    19    20   ar
    51     7     6    1
    52    83    80    1
    53    83    84    1
    54    80    79    1
    55    85    84    1
    56     9     6    1
    57     9    10    1
    58    61    62    1
    59     6     5    1
    60    11    10    1
    61    11    12    1
    62    79    73   am
    63    13    12    1
    64    66    65    2
    65    73    74    2
    66    73    72    1
    67    65    64    1
    68    67    64    1
    69    67    68    1
    70    71    72    1
    71    72    75    1
    72    70    68   ar
    73    64    63    1
    74    68    69   ar
    75    77    76    2
    76    76    78   am
    77    76    75    1
    78     4     3    2
    79     3     2    1
    80     2     1    1
