@<TRIPOS>MOLECULE
tmp/3ovrA03.pdb
 74 69 0 0 0
SMALL
GASTEIGER

@<TRIPOS>ATOM
      1  N         26.2070   -3.4040   18.1670 N.3    55  ARG55      -0.1245
      2  CA        26.9170   -4.1310   19.2130 C.3    55  ARG55       0.1563
      3  C         28.3640   -4.3880   18.7950 C.2    55  ARG55       0.2260
      4  O         29.2880   -4.3130   19.6120 O.2    55  ARG55      -0.2867
      5  CB        26.1960   -5.4350   19.5620 C.3    55  ARG55       0.0307
      6  CG        26.9050   -6.2770   20.6120 C.3    55  ARG55       0.0489
      7  CD        27.1500   -5.4830   21.8870 C.3    55  ARG55       0.2205
      8  NE        25.9430   -5.3590   22.7070 N.pl3  55  ARG55      -0.0865
      9  CZ        25.8350   -4.5360   23.7430 C.cat  55  ARG55       0.5346
     10  NH1       26.8550   -3.7620   24.0720 N.pl3  55  ARG55       0.1354
     11  NH2       24.7130   -4.4900   24.4570 N.pl3  55  ARG55       0.1354
     12  N         31.1250   -4.7270   23.9470 N.3    60  GLN60      -0.1245
     13  CA        30.2300   -5.4180   24.8730 C.3    60  GLN60       0.1566
     14  C         29.6730   -4.5320   25.9900 C.2    60  GLN60       0.2260
     15  O         28.5800   -4.7790   26.4990 O.2    60  GLN60      -0.2867
     16  CB        30.9510   -6.6220   25.4880 C.3    60  GLN60       0.0367
     17  CG        30.2190   -7.2590   26.6580 C.3    60  GLN60       0.0905
     18  CD        31.0490   -8.3170   27.3580 C.2    60  GLN60       0.2608
     19  OE1       32.0510   -8.7910   26.8240 O.2    60  GLN60      -0.2717
     20  NE2       30.6330   -8.6930   28.5610 N.am   60  GLN60      -0.0878
     21  N         24.9350   -0.7020   27.5310 N.3    63  PHE63      -0.1241
     22  CA        23.6390   -1.3260   27.8030 C.3    63  PHE63       0.1605
     23  C         22.6300   -0.8640   26.7510 C.2    63  PHE63       0.2264
     24  O         22.4370    0.3400   26.5730 O.2    63  PHE63      -0.2867
     25  CB        23.1760   -0.8890   29.1990 C.3    63  PHE63       0.0534
     26  CG        21.9280   -1.5740   29.6860 C.ar   63  PHE63      -0.0203
     27  CD1       22.0020   -2.5620   30.6570 C.ar   63  PHE63      -0.0042
     28  CD2       20.6780   -1.2140   29.1940 C.ar   63  PHE63      -0.0042
     29  CE1       20.8530   -3.1910   31.1220 C.ar   63  PHE63      -0.0003
     30  CE2       19.5300   -1.8370   29.6520 C.ar   63  PHE63      -0.0003
     31  CZ        19.6170   -2.8250   30.6190 C.ar   63  PHE63      -0.0000
     32  N         18.2290  -11.0380   21.3920 N.3    81  ALA81      -0.1245
     33  CA        19.1580  -11.5790   22.3740 C.3    81  ALA81       0.1562
     34  C         20.4650  -11.9410   21.6780 C.2    81  ALA81       0.2260
     35  O         21.5560  -11.6190   22.1540 O.2    81  ALA81      -0.2867
     36  CB        18.5520  -12.7970   23.0600 C.3    81  ALA81       0.0290
     37  N         22.6920   -9.0750   20.8130 N.3    84  GLY84      -0.1210
     38  CA        23.3990   -8.4550   21.9220 C.3    84  GLY84       0.1956
     39  C         22.6220   -7.4120   22.7150 C.2    84  GLY84       0.2612
     40  O         23.2190   -6.5990   23.4170 O.2    84  GLY84      -0.2717
     41  N         21.2950   -7.4230   22.6120 N.am   85  ALA85      -0.1965
     42  CA        20.4740   -6.5280   23.4330 C.3    85  ALA85       0.1728
     43  C         20.5170   -6.9430   24.9040 C.2    85  ALA85       0.2616
     44  O         20.5810   -8.1370   25.2180 O.2    85  ALA85      -0.2715
     45  CB        19.0250   -6.5020   22.9320 C.3    85  ALA85       0.0334
     46  N         20.4620   -5.9610   25.7980 N.am   86  ASN86      -0.1972
     47  CA        20.4450   -6.2320   27.2400 C.3    86  ASN86       0.1688
     48  C         19.0410   -6.3320   27.8300 C.2    86  ASN86       0.2292
     49  O         18.7760   -7.1610   28.6940 O.2    86  ASN86      -0.2864
     50  CB        21.2110   -5.1370   27.9850 C.3    86  ASN86       0.1181
     51  CG        22.6810   -5.1090   27.6150 C.2    86  ASN86       0.2629
     52  OD1       23.5050   -5.7950   28.2230 O.2    86  ASN86      -0.2716
     53  ND2       23.0110   -4.3330   26.6050 N.am   86  ASN86      -0.0877
     54  N         17.9130  -14.6620   28.4440 N.3   109  GLY109     -0.1210
     55  CA        18.9510  -13.9470   29.1710 C.3   109  GLY109      0.1956
     56  C         18.8500  -12.4300   29.1940 C.2   109  GLY109      0.2612
     57  O         19.7800  -11.7600   29.6150 O.2   109  GLY109     -0.2717
     58  N         17.7310  -11.8700   28.7500 N.am  110  MET110     -0.1965
     59  CA        17.6060  -10.4200   28.7480 C.3   110  MET110      0.1736
     60  C         16.7970   -9.9110   29.9340 C.2   110  MET110      0.2616
     61  O         16.0120  -10.6430   30.5310 O.2   110  MET110     -0.2715
     62  CB        16.9710   -9.9210   27.4400 C.3   110  MET110      0.0427
     63  CG        17.8890  -10.0580   26.2230 C.3   110  MET110      0.0599
     64  SD        17.1070   -9.5650   24.6670 S.3   110  MET110     -0.1393
     65  CE        15.7530  -10.7490   24.5820 C.3   110  MET110      0.0692
     66  N         17.0010   -8.6450   30.2690 N.am  111  LYS111     -0.1977
     67  CA        16.1500   -7.9790   31.2430 C.3   111  LYS111      0.1596
     68  C         14.7970   -7.6700   30.5980 C.2   111  LYS111      0.2287
     69  O         14.6760   -7.6310   29.3670 O.2   111  LYS111     -0.2864
     70  CB        16.8190   -6.7110   31.7740 C.3   111  LYS111      0.0298
     71  CG        18.0090   -6.9940   32.6890 C.3   111  LYS111      0.0038
     72  CD        18.5540   -5.7160   33.3020 C.3   111  LYS111      0.0206
     73  CE        19.4570   -6.0120   34.4890 C.3   111  LYS111      0.1093
     74  NZ        18.6970   -6.5810   35.6410 N.3   111  LYS111     -0.1314
@<TRIPOS>BOND
     1     1     2    1
     2     3     2    1
     3     3     4    2
     4     2     5    1
     5     5     6    1
     6     6     7    1
     7    37    38    1
     8    32    33    1
     9    34    35    2
    10    34    33    1
    11     7     8    1
    12    38    39    1
    13    33    36    1
    14    41    39   am
    15    41    42    1
    16     8     9    2
    17    39    40    2
    18    45    42    1
    19    42    43    1
    20     9    10    1
    21     9    11    1
    22    12    13    1
    23    65    64    1
    24    64    63    1
    25    13    16    1
    26    13    14    1
    27    43    44    2
    28    43    46   am
    29    16    17    1
    30    46    47    1
    31    14    15    2
    32    63    62    1
    33    24    23    2
    34    53    51   am
    35    17    18    1
    36    23    22    1
    37    19    18    2
    38    47    48    1
    39    47    50    1
    40    18    20   am
    41    62    59    1
    42    21    22    1
    43    51    50    1
    44    51    52    2
    45    22    25    1
    46    48    49    2
    47    54    55    1
    48    59    58    1
    49    59    60    1
    50    58    56   am
    51    55    56    1
    52    28    30   ar
    53    28    26   ar
    54    56    57    2
    55    25    26    1
    56    69    68    2
    57    30    31   ar
    58    26    27   ar
    59    60    66   am
    60    60    61    2
    61    66    67    1
    62    68    67    1
    63    31    29   ar
    64    27    29   ar
    65    67    70    1
    66    70    71    1
    67    71    72    1
    68    72    73    1
    69    73    74    1
