@<TRIPOS>MOLECULE
tmp/3ovrB03.pdb
 82 77 0 0 0
SMALL
GASTEIGER

@<TRIPOS>ATOM
      1  N         19.6400   10.2410    2.2150 N.3    55  ARG55      -0.1245
      2  CA        19.5270   11.2400    1.1610 C.3    55  ARG55       0.1563
      3  C         20.2890   12.5190    1.5270 C.2    55  ARG55       0.2260
      4  O         20.8930   13.1690    0.6660 O.2    55  ARG55      -0.2867
      5  CB        18.0470   11.5370    0.8510 C.3    55  ARG55       0.0307
      6  CG        17.8330   12.6710   -0.1460 C.3    55  ARG55       0.0489
      7  CD        18.5390   12.3980   -1.4660 C.3    55  ARG55       0.2205
      8  NE        17.8780   11.3480   -2.2370 N.pl3  55  ARG55      -0.0865
      9  CZ        18.4290   10.7310   -3.2770 C.cat  55  ARG55       0.5346
     10  NH1       19.6600   11.0380   -3.6550 N.pl3  55  ARG55       0.1354
     11  NH2       17.7530    9.7920   -3.9320 N.pl3  55  ARG55       0.1354
     12  N         21.7230   14.8950   -3.6390 N.3    60  GLN60      -0.1245
     13  CA        20.5230   14.8870   -4.4610 C.3    60  GLN60       0.1566
     14  C         20.6110   13.9350   -5.6600 C.2    60  GLN60       0.2260
     15  O         19.5910   13.4840   -6.1800 O.2    60  GLN60      -0.2867
     16  CB        20.2680   16.3140   -4.9670 C.3    60  GLN60       0.0367
     17  CG        20.3830   17.4060   -3.8850 C.3    60  GLN60       0.0905
     18  CD        21.8180   17.6600   -3.4010 C.2    60  GLN60       0.2608
     19  OE1       22.7880   17.4160   -4.1180 O.2    60  GLN60      -0.2717
     20  NE2       21.9460   18.1620   -2.1790 N.am   60  GLN60      -0.0878
     21  N         20.6780    7.6940   -7.2180 N.3    63  PHE63      -0.1241
     22  CA        19.3690    7.0740   -7.4550 C.3    63  PHE63       0.1605
     23  C         19.0970    6.0030   -6.4050 C.2    63  PHE63       0.2264
     24  O         19.8900    5.0690   -6.2480 O.2    63  PHE63      -0.2867
     25  CB        19.3690    6.4280   -8.8520 C.3    63  PHE63       0.0534
     26  CG        18.0250    5.9070   -9.3120 C.ar   63  PHE63      -0.0203
     27  CD1       17.2980    6.5970  -10.2740 C.ar   63  PHE63      -0.0042
     28  CD2       17.5070    4.7120   -8.8120 C.ar   63  PHE63      -0.0042
     29  CE1       16.0720    6.1180  -10.7270 C.ar   63  PHE63      -0.0003
     30  CE2       16.2840    4.2220   -9.2640 C.ar   63  PHE63      -0.0003
     31  CZ        15.5640    4.9250  -10.2220 C.ar   63  PHE63      -0.0000
     32  N          8.6230    9.1800   -0.6900 N.3    81  ALA81      -0.1245
     33  CA         8.7870   10.2680   -1.6650 C.3    81  ALA81       0.1562
     34  C          9.3980   11.5000   -0.9940 C.2    81  ALA81       0.2260
     35  O         10.3390   12.1030   -1.5010 O.2    81  ALA81      -0.2867
     36  CB         7.4580   10.6200   -2.3180 C.3    81  ALA81       0.0290
     37  N         13.0010   11.2330   -0.2390 N.3    84  GLY84      -0.1210
     38  CA        13.8680   11.3680   -1.3980 C.3    84  GLY84       0.1956
     39  C         14.1530   10.0970   -2.1920 C.2    84  GLY84       0.2612
     40  O         15.1420   10.0280   -2.9270 O.2    84  GLY84      -0.2717
     41  N         13.2940    9.0880   -2.0780 N.am   85  ALA85      -0.1965
     42  CA        13.4350    7.8900   -2.9230 C.3    85  ALA85       0.1728
     43  C         13.1410    8.2240   -4.3900 C.2    85  ALA85       0.2616
     44  O         12.2710    9.0590   -4.6680 O.2    85  ALA85      -0.2715
     45  CB        12.5090    6.7900   -2.4380 C.3    85  ALA85       0.0334
     46  N         13.8480    7.5850   -5.3270 N.am   86  ASN86      -0.1972
     47  CA        13.5550    7.7770   -6.7600 C.3    86  ASN86       0.1688
     48  C         12.5880    6.7580   -7.3520 C.2    86  ASN86       0.2292
     49  O         11.8250    7.0780   -8.2720 O.2    86  ASN86      -0.2864
     50  CB        14.8230    7.7200   -7.5990 C.3    86  ASN86       0.1181
     51  CG        15.8650    8.7100   -7.1420 C.2    86  ASN86       0.2629
     52  OD1       16.6330    8.4270   -6.2310 O.2    86  ASN86      -0.2716
     53  ND2       15.8940    9.8820   -7.7730 N.am   86  ASN86      -0.0877
     54  N          3.3020   10.7690   -6.7890 N.3   108  ASN108     -0.1225
     55  CA         4.3410   11.1840   -5.8470 C.3   108  ASN108      0.1785
     56  C          5.7060   11.3680   -6.4950 C.2   108  ASN108      0.2598
     57  O          6.7230   11.4860   -5.8050 O.2   108  ASN108     -0.2718
     58  CB         4.4220   10.2220   -4.6590 C.3   108  ASN108      0.1169
     59  CG         3.3960   10.5410   -3.6000 C.2   108  ASN108      0.2627
     60  OD1        3.6500   11.3500   -2.7080 O.2   108  ASN108     -0.2716
     61  ND2        2.2120    9.9450   -3.7140 N.am  108  ASN108     -0.0877
     62  N          5.7200   11.4010   -7.8220 N.am  109  GLY109     -0.1942
     63  CA         6.9360   11.6990   -8.5650 C.3   109  GLY109      0.2014
     64  C          8.0010   10.6130   -8.5940 C.2   109  GLY109      0.2639
     65  O          9.1390   10.8690   -8.9840 O.2   109  GLY109     -0.2714
     66  N          7.6480    9.3980   -8.1870 N.am  110  MET110     -0.1963
     67  CA         8.6260    8.3130   -8.1680 C.3   110  MET110      0.1736
     68  C          8.4300    7.3450   -9.3230 C.2   110  MET110      0.2616
     69  O          7.3310    7.2350   -9.8640 O.2   110  MET110     -0.2715
     70  CB         8.5340    7.5410   -6.8440 C.3   110  MET110      0.0427
     71  CG         9.0560    8.3130   -5.6350 C.3   110  MET110      0.0599
     72  SD         8.9360    7.3500   -4.1100 S.3   110  MET110     -0.1393
     73  CE         7.1720    7.0680   -3.9780 C.3   110  MET110      0.0692
     74  N          9.4960    6.6390   -9.6990 N.am  111  LYS111     -0.1977
     75  CA         9.3660    5.5580  -10.6630 C.3   111  LYS111      0.1596
     76  C          8.7040    4.3540   -9.9980 C.2   111  LYS111      0.2287
     77  O          8.6980    4.2320   -8.7710 O.2   111  LYS111     -0.2864
     78  CB        10.7330    5.1820  -11.2550 C.3   111  LYS111      0.0298
     79  CG        11.3980    6.3420  -12.0090 C.3   111  LYS111      0.0038
     80  CD        12.6420    5.8930  -12.7650 C.3   111  LYS111      0.0206
     81  CE        12.2830    5.0660  -13.9900 C.3   111  LYS111      0.1093
     82  NZ        13.5120    4.5660  -14.6730 N.3   111  LYS111     -0.1314
@<TRIPOS>BOND
     1    82    81    1
     2    81    80    1
     3    80    79    1
     4    79    78    1
     5    78    75    1
     6    29    27   ar
     7    29    31   ar
     8    75    76    1
     9    75    74    1
    10    27    26   ar
    11    31    30   ar
    12    76    77    2
    13    69    68    2
    14    74    68   am
    15    68    67    1
    16    26    25    1
    17    26    28   ar
    18    30    28   ar
    19    65    64    2
    20    25    22    1
    21    64    63    1
    22    64    66   am
    23    63    62    1
    24    49    48    2
    25    66    67    1
    26    67    70    1
    27    62    56   am
    28    53    51   am
    29    50    51    1
    30    50    47    1
    31    22    21    1
    32    22    23    1
    33    48    47    1
    34    51    52    2
    35    70    71    1
    36    54    55    1
    37    47    46    1
    38    56    55    1
    39    56    57    2
    40    23    24    2
    41    15    14    2
    42    55    58    1
    43    14    13    1
    44    71    72    1
    45    46    43   am
    46    16    13    1
    47    16    17    1
    48    44    43    2
    49    58    59    1
    50    13    12    1
    51    43    42    1
    52    19    18    2
    53    72    73    1
    54    11     9    1
    55    17    18    1
    56    61    59   am
    57    10     9    1
    58    59    60    2
    59    18    20   am
    60     9     8    2
    61    40    39    2
    62    42    45    1
    63    42    41    1
    64    36    33    1
    65     8     7    1
    66    39    41   am
    67    39    38    1
    68    33    34    1
    69    33    32    1
    70    35    34    2
    71     7     6    1
    72    38    37    1
    73     6     5    1
    74     4     3    2
    75     5     2    1
    76     2     3    1
    77     2     1    1
