@<TRIPOS>MOLECULE
tmp/3ovvA00.pdb
 187 179 0 0 0
SMALL
GASTEIGER

@<TRIPOS>ATOM
      1  N         -3.7650   -9.9350   11.8330 N.3    36  LEU36      -0.1231
      2  CA        -5.1790  -10.1460   11.6260 C.3    36  LEU36       0.1693
      3  C         -6.0540   -8.9560   11.9960 C.2    36  LEU36       0.2593
      4  O         -7.1870   -8.8890   11.5490 O.2    36  LEU36      -0.2718
      5  CB        -5.6480  -11.3190   12.5030 C.3    36  LEU36       0.0284
      6  CG        -5.0430  -12.6910   12.1830 C.3    36  LEU36       0.0019
      7  CD1       -5.4240  -13.7020   13.2720 C.3    36  LEU36       0.0001
      8  CD2       -5.4770  -13.1480   10.8030 C.3    36  LEU36       0.0001
      9  N         -5.5380   -8.0900   12.8420 N.am   37  GLY37      -0.1942
     10  CA        -6.2950   -6.9000   13.2660 C.3    37  GLY37       0.2014
     11  C         -5.3770   -6.1040   14.1900 C.2    37  GLY37       0.2640
     12  O         -4.2870   -6.4900   14.6410 O.2    37  GLY37      -0.2714
     13  N         -5.7930   -4.8780   14.5000 N.am   38  THR38      -0.1936
     14  CA        -4.9830   -3.9990   15.2890 C.3    38  THR38       0.2028
     15  C         -5.9470   -3.3180   16.2840 C.2    38  THR38       0.2643
     16  O         -7.1560   -3.5350   16.1730 O.2    38  THR38      -0.2714
     17  CB        -4.2410   -2.9150   14.5080 C.3    38  THR38       0.1808
     18  OG1       -5.2350   -2.2010   13.7420 O.3    38  THR38      -0.2208
     19  CG2       -3.2090   -3.5240   13.5610 C.3    38  THR38       0.0379
     20  N         -5.3290   -2.5980   17.1830 N.am   39  GLY39      -0.1939
     21  CA        -6.0420   -1.9080   18.2540 C.3    39  GLY39       0.2014
     22  C         -5.1450   -0.9010   18.9140 C.2    39  GLY39       0.2640
     23  O         -3.9790   -0.6940   18.5650 O.2    39  GLY39      -0.2714
     24  N         -5.6840   -0.2270   19.9320 N.am   40  SER40      -0.1935
     25  CA        -4.9430    0.9300   20.4200 C.3    40  SER40       0.2055
     26  C         -3.5710    0.5970   21.0010 C.2    40  SER40       0.2643
     27  O         -2.6740    1.4310   20.9400 O.2    40  SER40      -0.2714
     28  CB        -5.6880    1.7030   21.5200 C.3    40  SER40       0.2130
     29  OG        -7.0510    1.8320   21.1820 O.3    40  SER40      -0.2179
     30  N         -3.4350   -0.6010   21.5630 N.am   41  PHE41      -0.1959
     31  CA        -2.1960   -0.9460   22.2500 C.3    41  PHE41       0.1774
     32  C         -1.2600   -1.8380   21.4280 C.2    41  PHE41       0.2659
     33  O         -0.1740   -2.1730   21.9280 O.2    41  PHE41      -0.2711
     34  CB        -2.4080   -1.7450   23.5260 C.3    41  PHE41       0.0574
     35  CG        -3.5250   -1.3090   24.4580 C.ar   41  PHE41      -0.0200
     36  CD1       -3.7140    0.0240   24.6830 C.ar   41  PHE41      -0.0042
     37  CD2       -4.3280   -2.2550   25.0580 C.ar   41  PHE41      -0.0042
     38  CE1       -4.7420    0.4130   25.5320 C.ar   41  PHE41      -0.0003
     39  CE2       -5.3490   -1.8750   25.9140 C.ar   41  PHE41      -0.0003
     40  CZ        -5.5420   -0.5170   26.1470 C.ar   41  PHE41      -0.0000
     41  N         -1.6820   -2.2360   20.2490 N.am   42  GLY42      -0.1716
     42  CA        -0.9340   -3.1910   19.4630 C.2    42  GLY42       0.1480
     43  C         -1.6850   -3.8960   18.3770 C.2    42  GLY42       0.2820
     44  O         -2.4220   -3.3150   17.5840 O.2    42  GLY42      -0.2669
     45  N         -1.4910   -5.2280   18.2930 N.am   43  ARG43      -0.1929
     46  CA        -1.9810   -5.9720   17.1580 C.3    43  ARG43       0.1732
     47  C         -2.2480   -7.4300   17.5390 C.2    43  ARG43       0.2616
     48  O         -1.7910   -7.9040   18.5730 O.2    43  ARG43      -0.2715
     49  CB        -0.9780   -5.9180   15.9890 C.3    43  ARG43       0.0348
     50  CG         0.3350   -6.6070   16.2540 C.3    43  ARG43       0.0492
     51  CD         1.3230   -6.5100   15.1060 C.3    43  ARG43       0.2205
     52  NE         1.6200   -5.1200   14.8220 N.pl3  43  ARG43      -0.0865
     53  CZ         1.4340   -4.4790   13.6800 C.cat  43  ARG43       0.5346
     54  NH1        0.9400   -4.9960   12.5680 N.pl3  43  ARG43       0.1354
     55  NH2        1.7900   -3.1930   13.6780 N.pl3  43  ARG43       0.1354
     56  N         -2.9980   -8.0910   16.6920 N.am   44  VAL44      -0.1977
     57  CA        -3.2730   -9.5240   16.8230 C.3    44  VAL44       0.1596
     58  C         -2.6830  -10.1720   15.5860 C.2    44  VAL44       0.2287
     59  O         -3.0270   -9.7570   14.4710 O.2    44  VAL44      -0.2864
     60  CB        -4.7590   -9.8570   16.9330 C.3    44  VAL44       0.0276
     61  CG1       -5.0280  -11.3660   17.0140 C.3    44  VAL44       0.0022
     62  CG2       -5.3500   -9.1770   18.1600 C.3    44  VAL44       0.0022
     63  N         -4.1850  -17.1440   17.4420 N.3    57  ALA57      -0.1245
     64  CA        -4.1370  -15.6900   17.2660 C.3    57  ALA57       0.1562
     65  C         -3.4550  -15.0590   18.4810 C.2    57  ALA57       0.2260
     66  O         -3.9280  -15.2650   19.6110 O.2    57  ALA57      -0.2867
     67  CB        -5.5400  -15.1640   17.0750 C.3    57  ALA57       0.0290
     68  N         -2.4720  -11.8460   20.5510 N.3    59  LYS59      -0.1245
     69  CA        -2.6680  -10.4280   20.8470 C.3    59  LYS59       0.1561
     70  C         -1.4450   -9.8780   21.5770 C.2    59  LYS59       0.2260
     71  O         -1.0820  -10.4160   22.6330 O.2    59  LYS59      -0.2867
     72  CB        -3.9150  -10.2230   21.7050 C.3    59  LYS59       0.0271
     73  CG        -4.2390   -8.7600   22.0080 C.3    59  LYS59       0.0035
     74  CD        -5.6300   -8.6840   22.6240 C.3    59  LYS59       0.0206
     75  CE        -6.0600   -7.3130   23.0490 C.3    59  LYS59       0.1093
     76  NZ        -7.4680   -7.1480   23.4250 N.3    59  LYS59      -0.1314
     77  N          0.2650   -6.5490   23.3070 N.3    61  LEU61      -0.1245
     78  CA         0.0020   -5.2270   23.8720 C.3    61  LEU61       0.1561
     79  C          1.2850   -4.5950   24.3750 C.2    61  LEU61       0.2260
     80  O          2.0130   -5.1820   25.1720 O.2    61  LEU61      -0.2867
     81  CB        -0.9510   -5.3200   25.0560 C.3    61  LEU61       0.0270
     82  CG        -2.2610   -6.0700   24.7860 C.3    61  LEU61       0.0019
     83  CD1       -3.1580   -5.9000   25.9960 C.3    61  LEU61       0.0001
     84  CD2       -2.9190   -5.5760   23.5260 C.3    61  LEU61       0.0001
     85  N        -14.0990  -16.8960   22.6650 N.3    91  VAL91      -0.1245
     86  CA       -12.7570  -17.2680   22.2090 C.3    91  VAL91       0.1561
     87  C        -11.9550  -17.7520   23.4000 C.2    91  VAL91       0.2260
     88  O        -11.9550  -17.2180   24.5100 O.2    91  VAL91      -0.2867
     89  CB       -12.0280  -16.0970   21.5260 C.3    91  VAL91       0.0252
     90  CG1      -11.4040  -15.1690   22.5550 C.3    91  VAL91       0.0019
     91  CG2      -10.9770  -16.6090   20.5490 C.3    91  VAL91       0.0019
     92  N         -4.6220  -16.7840   21.7930 N.3   107  MET107     -0.1230
     93  CA        -5.9690  -17.3150   21.7450 C.3   107  MET107      0.1702
     94  C         -6.2660  -18.2300   20.5710 C.2   107  MET107      0.2592
     95  O         -5.5050  -18.3090   19.6100 O.2   107  MET107     -0.2718
     96  CB        -6.9500  -16.1140   21.6220 C.3   107  MET107      0.0401
     97  CG        -6.9340  -15.1910   22.8350 C.3   107  MET107      0.0596
     98  SD        -7.7760  -13.6570   22.4230 S.3   107  MET107     -0.1393
     99  CE        -6.4680  -12.7040   21.6470 C.3   107  MET107      0.0692
    100  N         -7.4360  -18.8940   20.6240 N.am  108  GLU108     -0.1966
    101  CA        -7.7790  -19.7080   19.4420 C.3   108  GLU108      0.1733
    102  C         -7.8740  -18.7980   18.2150 C.2   108  GLU108      0.2616
    103  O         -8.3340  -17.6690   18.3000 O.2   108  GLU108     -0.2715
    104  CB        -9.0310  -20.5050   19.6620 C.3   108  GLU108      0.0429
    105  CG       -10.4020  -19.9340   19.4780 C.3   108  GLU108      0.1163
    106  CD       -11.4130  -20.9010   20.0880 C.2   108  GLU108      0.3649
    107  OE1      -11.6160  -21.9860   19.4990 O.co2 108  GLU108     -0.2457
    108  OE2      -11.9690  -20.5950   21.1460 O.co2 108  GLU108     -0.2457
    109  N         -7.4420  -19.3220   17.0680 N.am  109  TYR109     -0.1960
    110  CA        -7.5870  -18.6480   15.7810 C.3   109  TYR109      0.1771
    111  C         -8.9700  -18.9570   15.2460 C.2   109  TYR109      0.2619
    112  O         -9.2960  -20.1350   15.0690 O.2   109  TYR109     -0.2715
    113  CB        -6.5320  -19.1610   14.8090 C.3   109  TYR109      0.0574
    114  CG        -6.6760  -18.6080   13.4030 C.ar  109  TYR109     -0.0198
    115  CD1       -6.9190  -17.2620   13.2060 C.ar  109  TYR109     -0.0009
    116  CD2       -6.5580  -19.4120   12.2710 C.ar  109  TYR109     -0.0009
    117  CE1       -7.0530  -16.7250   11.9570 C.ar  109  TYR109      0.0417
    118  CE2       -6.6900  -18.8680   11.0000 C.ar  109  TYR109      0.0417
    119  CZ        -6.9360  -17.5300   10.8410 C.ar  109  TYR109      0.1957
    120  OH        -7.0710  -16.9500    9.5890 O.3   109  TYR109     -0.2866
    121  N         -9.7920  -17.9650   15.0120 N.am  110  VAL110     -0.1977
    122  CA       -11.1140  -18.1030   14.4200 C.3   110  VAL110      0.1596
    123  C        -11.0680  -17.6230   12.9910 C.2   110  VAL110      0.2287
    124  O        -10.9390  -16.4310   12.6670 O.2   110  VAL110     -0.2864
    125  CB       -12.1340  -17.3430   15.2950 C.3   110  VAL110      0.0276
    126  CG1      -13.5300  -17.6510   14.7810 C.3   110  VAL110      0.0022
    127  CG2      -11.9840  -17.7560   16.7490 C.3   110  VAL110      0.0022
    128  N        -14.1160  -11.3950   10.8730 N.3   114  GLU114     -0.1245
    129  CA       -15.0230  -10.6020   11.6870 C.3   114  GLU114      0.1567
    130  C        -16.4090  -10.5400   11.0770 C.2   114  GLU114      0.2260
    131  O        -16.5380  -10.3680    9.8660 O.2   114  GLU114     -0.2867
    132  CB       -14.4860   -9.1880   11.8670 C.3   114  GLU114      0.0388
    133  CG       -13.1120   -9.0650   12.4950 C.3   114  GLU114      0.1160
    134  CD       -12.5520   -7.6650   12.4910 C.2   114  GLU114      0.3649
    135  OE1      -13.2140   -6.7630   11.9370 O.co2 114  GLU114     -0.2457
    136  OE2      -11.4580   -7.4620   13.0540 O.co2 114  GLU114     -0.2457
    137  N        -17.2460   -5.8650   15.0120 N.3   157  GLU157     -0.1231
    138  CA       -15.8010   -5.9260   14.9580 C.3   157  GLU157      0.1699
    139  C        -15.2490   -6.9800   15.9150 C.2   157  GLU157      0.2592
    140  O        -14.1560   -7.5040   15.6900 O.2   157  GLU157     -0.2718
    141  CB       -15.1650   -4.5750   15.2680 C.3   157  GLU157      0.0402
    142  CG       -15.4480   -3.4820   14.2580 C.3   157  GLU157      0.1161
    143  CD       -16.6740   -2.6240   14.5120 C.2   157  GLU157      0.3649
    144  OE1      -17.7210   -3.1970   14.8720 O.co2 157  GLU157     -0.2457
    145  OE2      -16.6120   -1.3740   14.3120 O.co2 157  GLU157     -0.2457
    146  N        -16.0030   -7.2510   16.9740 N.am  158  ASN158     -0.1974
    147  CA       -15.4710   -8.1230   18.0250 C.3   158  ASN158      0.1688
    148  C        -16.0600   -9.5290   17.9510 C.2   158  ASN158      0.2292
    149  O        -15.7990  -10.3090   18.8760 O.2   158  ASN158     -0.2864
    150  CB       -15.7740   -7.6050   19.4340 C.3   158  ASN158      0.1181
    151  CG       -14.9680   -6.3770   19.7730 C.2   158  ASN158      0.2629
    152  OD1      -14.1160   -5.9770   18.9830 O.2   158  ASN158     -0.2716
    153  ND2      -15.2270   -5.7940   20.9230 N.am  158  ASN158     -0.0877
    154  N        -16.1680  -12.9690   15.8890 N.3   160  LEU160     -0.1245
    155  CA       -15.4840  -13.6930   14.8090 C.3   160  LEU160      0.1561
    156  C        -16.3470  -14.8950   14.4180 C.2   160  LEU160      0.2260
    157  O        -17.0510  -15.4440   15.2510 O.2   160  LEU160     -0.2867
    158  CB       -14.0880  -14.0740   15.2790 C.3   160  LEU160      0.0270
    159  CG       -12.9480  -13.0650   15.2470 C.3   160  LEU160      0.0019
    160  CD1      -12.3590  -12.9520   13.8430 C.3   160  LEU160      0.0001
    161  CD2      -13.3840  -11.6930   15.7460 C.3   160  LEU160      0.0001
    162  N        -14.6950  -11.9440   20.9600 N.3   170  THR170     -0.1203
    163  CA       -13.3000  -11.5960   21.2420 C.3   170  THR170      0.1994
    164  C        -13.2470  -10.2270   21.9390 C.2   170  THR170      0.2617
    165  O        -14.2660   -9.5290   22.0230 O.2   170  THR170     -0.2717
    166  CB       -12.4170  -11.5700   19.9860 C.3   170  THR170      0.1784
    167  OG1      -12.9070  -10.5540   19.1150 O.3   170  THR170     -0.2211
    168  CG2      -12.4870  -12.8840   19.2050 C.3   170  THR170      0.0376
    169  N        -12.0600   -9.8460   22.3670 N.am  171  ASP171     -0.1973
    170  CA       -11.6540   -8.5900   22.9520 C.3   171  ASP171      0.1709
    171  C        -12.3490   -8.3260   24.2840 C.2   171  ASP171      0.2293
    172  O        -13.4030   -7.6790   24.3090 O.2   171  ASP171     -0.2864
    173  CB       -11.8990   -7.3910   22.0340 C.3   171  ASP171      0.1436
    174  CG       -11.1790   -6.1430   22.5530 C.2   171  ASP171      0.3671
    175  OD1      -11.0540   -5.2030   21.7370 O.co2 171  ASP171     -0.2456
    176  OD2      -10.7200   -6.0880   23.7150 O.co2 171  ASP171     -0.2456
    177  N         -9.7250  -12.1520    6.4080 N.3   313  PHE313     -0.1241
    178  CA        -9.3050  -10.9600    7.1450 C.3   313  PHE313      0.1605
    179  C         -8.7170   -9.9210    6.1910 C.2   313  PHE313      0.2264
    180  O         -8.1250  -10.2670    5.1570 O.2   313  PHE313     -0.2867
    181  CB        -8.2740  -11.3030    8.2200 C.3   313  PHE313      0.0534
    182  CG        -8.7870  -12.1980    9.3320 C.ar  313  PHE313     -0.0203
    183  CD1       -9.1220  -11.6150   10.5400 C.ar  313  PHE313     -0.0042
    184  CD2       -8.9170  -13.5710    9.2390 C.ar  313  PHE313     -0.0042
    185  CE1       -9.5920  -12.3320   11.6130 C.ar  313  PHE313     -0.0003
    186  CE2       -9.4420  -14.2930   10.2940 C.ar  313  PHE313     -0.0003
    187  CZ        -9.7940  -13.7000   11.4880 C.ar  313  PHE313     -0.0000
@<TRIPOS>BOND
     1   180   179    2
     2   179   178    1
     3   177   178    1
     4   178   181    1
     5   181   182    1
     6   184   182   ar
     7   184   186   ar
     8   182   183   ar
     9   120   119    1
    10   131   130    2
    11   186   187   ar
    12   183   185   ar
    13     8     6    1
    14   119   118   ar
    15   119   117   ar
    16   128   129    1
    17   118   116   ar
    18   130   129    1
    19   187   185   ar
    20     4     3    2
    21     2     1    1
    22     2     3    1
    23     2     5    1
    24   129   132    1
    25   132   133    1
    26   135   134   ar
    27   117   115   ar
    28     3     9   am
    29     6     5    1
    30     6     7    1
    31   116   114   ar
    32   134   133    1
    33   134   136   ar
    34    54    53    1
    35   124   123    2
    36     9    10    1
    37   123   122    1
    38   115   114   ar
    39    10    11    1
    40   114   113    1
    41    19    17    1
    42    55    53    1
    43    53    52    2
    44    18    17    1
    45   160   159    1
    46    11    13   am
    47    11    12    2
    48   142   143    1
    49   142   141    1
    50   145   143   ar
    51   156   155    1
    52   156   157    2
    53   122   121    1
    54   122   125    1
    55    59    58    2
    56    13    14    1
    57    17    14    1
    58   143   144   ar
    59   126   125    1
    60   155   158    1
    61   155   154    1
    62   113   110    1
    63    52    51    1
    64   138   137    1
    65   138   141    1
    66   138   139    1
    67   121   111   am
    68   112   111    2
    69    51    50    1
    70   111   110    1
    71   159   158    1
    72   159   161    1
    73    14    15    1
    74   125   127    1
    75    58    57    1
    76   140   139    2
    77   110   109    1
    78   139   146   am
    79    49    50    1
    80    49    46    1
    81    16    15    2
    82    15    20   am
    83    56    57    1
    84    56    47   am
    85    57    60    1
    86    60    61    1
    87    60    62    1
    88   146   147    1
    89   109   102   am
    90    67    64    1
    91    46    47    1
    92    46    45    1
    93    20    21    1
    94    64    63    1
    95    64    65    1
    96    47    48    2
    97    44    43    2
    98   148   147    1
    99   148   149    2
   100   147   150    1
   101   102   103    2
   102   102   101    1
   103    21    22    1
   104    45    43   am
   105    43    42    1
   106    65    66    2
   107    23    22    2
   108    22    24   am
   109   152   151    2
   110   167   166    1
   111   168   166    1
   112   150   151    1
   113   101   104    1
   114   101   100    1
   115    42    41    2
   116   105   104    1
   117   105   106    1
   118   107   106   ar
   119    95    94    2
   120   151   153   am
   121    24    25    1
   122   166   163    1
   123   106   108   ar
   124    41    32    1
   125    25    26    1
   126    25    28    1
   127    91    89    1
   128    68    69    1
   129    94   100   am
   130    94    93    1
   131    69    70    1
   132    69    72    1
   133    27    26    2
   134   162   163    1
   135    26    30   am
   136    29    28    1
   137   163   164    1
   138    32    33    2
   139    32    31    1
   140    89    86    1
   141    89    90    1
   142    30    31    1
   143    70    71    2
   144    96    93    1
   145    96    97    1
   146    99    98    1
   147    72    73    1
   148   175   174   ar
   149    93    92    1
   150   164   165    2
   151   164   169   am
   152    73    74    1
   153   173   174    1
   154   173   170    1
   155    86    85    1
   156    86    87    1
   157    31    34    1
   158   169   170    1
   159    98    97    1
   160   174   176   ar
   161    74    75    1
   162   170   171    1
   163    75    76    1
   164    77    78    1
   165    87    88    2
   166    34    35    1
   167    84    82    1
   168    78    79    1
   169    78    81    1
   170   171   172    2
   171    79    80    2
   172    35    36   ar
   173    35    37   ar
   174    36    38   ar
   175    82    81    1
   176    82    83    1
   177    37    39   ar
   178    38    40   ar
   179    39    40   ar
