@<TRIPOS>MOLECULE
tmp/3ovxA00.pdb
 118 116 0 0 0
SMALL
GASTEIGER

@<TRIPOS>ATOM
      1  N         22.7610   48.1750   20.9470 N.3    19  GLN19      -0.1245
      2  CA        22.8700   47.3640   22.1740 C.3    19  GLN19       0.1566
      3  C         23.4710   48.1180   23.3710 C.2    19  GLN19       0.2260
      4  O         23.2510   47.7520   24.5340 O.2    19  GLN19      -0.2867
      5  CB        23.6340   46.0590   21.9360 C.3    19  GLN19       0.0367
      6  CG        25.0590   46.2050   21.5690 C.3    19  GLN19       0.0905
      7  CD        25.6650   44.8600   21.1580 C.2    19  GLN19       0.2608
      8  OE1       25.3500   44.3070   20.0990 O.2    19  GLN19      -0.2717
      9  NE2       26.5240   44.3330   22.0090 N.am   19  GLN19      -0.0878
     10  N         26.1510   43.2390   26.2820 N.3    23  GLY23      -0.1225
     11  CA        26.5520   42.2790   25.2450 C.3    23  GLY23       0.1811
     12  C         25.4050   41.3950   24.7620 C.2    23  GLY23       0.2280
     13  O         25.4520   40.1610   24.9010 O.2    23  GLY23      -0.2866
     14  N         24.2750   41.1120   21.6570 N.3    25  CYS25      -0.1221
     15  CA        24.3310   40.9110   20.2000 C.3    25  CYS25       0.1808
     16  C         23.6200   39.6090   19.8030 C.2    25  CYS25       0.2601
     17  O         22.8990   39.5480   18.7840 O.2    25  CYS25      -0.2717
     18  CB        25.7720   40.8760   19.7110 C.3    25  CYS25       0.0970
     19  SG        26.8090   39.6760   20.6270 S.3    25  CYS25      -0.0800
     20  N         23.8320   38.5780   20.6120 N.am   26  TRP26      -0.1976
     21  CA        23.2200   37.2570   20.3850 C.3    26  TRP26       0.1640
     22  C         21.6860   37.3590   20.3570 C.2    26  TRP26       0.2290
     23  O         21.0080   36.6830   19.5700 O.2    26  TRP26      -0.2864
     24  CB        23.6650   36.2710   21.4740 C.3    26  TRP26       0.0576
     25  CG        23.2890   36.6640   22.8620 C.ar   26  TRP26       0.0006
     26  CD1       23.9600   37.5300   23.6880 C.ar   26  TRP26       0.0946
     27  CD2       22.1410   36.2110   23.6010 C.ar   26  TRP26       0.0152
     28  NE1       23.3040   37.6360   24.8930 N.ar   26  TRP26      -0.2442
     29  CE2       22.1830   36.8420   24.8660 C.ar   26  TRP26       0.0810
     30  CE3       21.0890   35.3280   23.3190 C.ar   26  TRP26       0.0012
     31  CZ2       21.2130   36.6130   25.8460 C.ar   26  TRP26       0.0191
     32  CZ3       20.1270   35.0950   24.2960 C.ar   26  TRP26       0.0001
     33  CH2       20.1900   35.7420   25.5450 C.ar   26  TRP26       0.0015
     34  N         23.6370   40.1750   29.4130 N.3    66  CYS66      -0.1221
     35  CA        24.5950   41.1600   28.8910 C.3    66  CYS66       0.1808
     36  C         26.0420   40.6750   28.8190 C.2    66  CYS66       0.2601
     37  O         26.9020   41.3930   28.2880 O.2    66  CYS66      -0.2717
     38  CB        24.5640   42.4450   29.7090 C.3    66  CYS66       0.0970
     39  SG        23.0140   43.2930   29.5900 S.3    66  CYS66      -0.0800
     40  N         26.3160   39.4910   29.3520 N.am   67  ASN67      -0.1960
     41  CA        27.6410   38.8820   29.2340 C.3    67  ASN67       0.1819
     42  C         27.7210   37.8010   28.1410 C.2    67  ASN67       0.2622
     43  O         28.7200   37.0930   28.0290 O.2    67  ASN67      -0.2715
     44  CB        28.0940   38.3200   30.5780 C.3    67  ASN67       0.1195
     45  CG        28.5080   39.4120   31.5680 C.2    67  ASN67       0.2630
     46  OD1       28.1190   39.3840   32.7430 O.2    67  ASN67      -0.2716
     47  ND2       29.3120   40.3550   31.1090 N.am   67  ASN67      -0.0877
     48  N         26.6940   37.7190   27.3040 N.am   68  GLY68      -0.1940
     49  CA        26.7530   36.9020   26.0990 C.3    68  GLY68       0.2014
     50  C         25.8090   35.7190   26.1120 C.2    68  GLY68       0.2639
     51  O         25.2500   35.3530   27.1320 O.2    68  GLY68      -0.2714
     52  N         25.6430   35.0960   24.9540 N.am   69  GLY69      -0.1939
     53  CA        24.7040   33.9940   24.8140 C.3    69  GLY69       0.2014
     54  C         24.7220   33.4410   23.3990 C.2    69  GLY69       0.2639
     55  O         25.5490   33.8490   22.5700 O.2    69  GLY69      -0.2714
     56  N         23.7870   32.5290   23.1440 N.am   70  PHE70      -0.1959
     57  CA        23.7120   31.7780   21.8880 C.3    70  PHE70       0.1771
     58  C         22.3740   32.0170   21.1900 C.2    70  PHE70       0.2619
     59  O         21.3170   31.8810   21.8060 O.2    70  PHE70      -0.2715
     60  CB        23.7990   30.2530   22.1430 C.3    70  PHE70       0.0574
     61  CG        25.0600   29.8080   22.8520 C.ar   70  PHE70      -0.0200
     62  CD1       25.0340   29.4790   24.2060 C.ar   70  PHE70      -0.0042
     63  CD2       26.2550   29.7020   22.1550 C.ar   70  PHE70      -0.0042
     64  CE1       26.2020   29.0610   24.8670 C.ar   70  PHE70      -0.0003
     65  CE2       27.4300   29.2860   22.8010 C.ar   70  PHE70      -0.0003
     66  CZ        27.4010   28.9770   24.1560 C.ar   70  PHE70      -0.0000
     67  N         22.4190   32.3180   19.8960 N.am   71  MET71      -0.1977
     68  CA        21.2030   32.4370   19.1160 C.3    71  MET71       0.1605
     69  C         20.3930   31.1350   19.1010 C.2    71  MET71       0.2287
     70  O         19.1750   31.1600   19.1910 O.2    71  MET71      -0.2864
     71  CB        21.5250   32.8470   17.6860 C.3    71  MET71       0.0413
     72  CG        22.1050   34.2550   17.5800 C.3    71  MET71       0.0598
     73  SD        23.8850   34.3400   17.8370 S.3    71  MET71      -0.1393
     74  CE        24.4620   33.6910   16.2640 C.3    71  MET71       0.0692
     75  N         27.6230   33.8470   14.0190 N.3   137  GLY137     -0.1225
     76  CA        28.6680   34.4120   14.8390 C.3   137  GLY137      0.1811
     77  C         29.8220   34.8280   13.9610 C.2   137  GLY137      0.2280
     78  O         30.1230   34.1750   12.9690 O.2   137  GLY137     -0.2866
     79  N         34.4640   32.5840   16.8970 N.3   162  VAL162     -0.1231
     80  CA        33.4510   33.6360   16.8610 C.3   162  VAL162      0.1692
     81  C         33.0610   34.1120   18.2600 C.2   162  VAL162      0.2592
     82  O         33.0530   33.3490   19.2260 O.2   162  VAL162     -0.2718
     83  CB        32.1930   33.1810   16.0810 C.3   162  VAL162      0.0266
     84  CG1       32.5760   32.7480   14.6480 C.3   162  VAL162      0.0020
     85  CG2       31.4440   32.0610   16.8300 C.3   162  VAL162      0.0020
     86  N         32.7150   35.3880   18.3510 N.am  163  ASN163     -0.1960
     87  CA        32.4200   35.9990   19.6510 C.3   163  ASN163      0.1819
     88  C         31.3670   37.1080   19.6090 C.2   163  ASN163      0.2621
     89  O         31.1280   37.7620   20.6250 O.2   163  ASN163     -0.2715
     90  CB        33.7210   36.5680   20.2110 C.3   163  ASN163      0.1195
     91  CG        34.4810   37.3540   19.1670 C.2   163  ASN163      0.2630
     92  OD1       33.9490   38.3070   18.5930 O.2   163  ASN163     -0.2716
     93  ND2       35.7150   36.9080   18.8520 N.am  163  ASN163     -0.0877
     94  N         30.7540   37.3080   18.4430 N.am  164  HIS164     -0.1959
     95  CA        29.8100   38.4040   18.2440 C.3   164  HIS164      0.1787
     96  C         28.6740   37.9280   17.3310 C.2   164  HIS164      0.2620
     97  O         28.9480   37.4680   16.2290 O.2   164  HIS164     -0.2715
     98  CB        30.5650   39.5770   17.6270 C.3   164  HIS164      0.0785
     99  CG        29.7220   40.7860   17.3860 C.ar  164  HIS164      0.0821
    100  ND1       29.0770   41.4620   18.4010 N.ar  164  HIS164     -0.2267
    101  CD2       29.4100   41.4380   16.2400 C.ar  164  HIS164      0.1154
    102  CE1       28.4110   42.4830   17.8890 C.ar  164  HIS164      0.1986
    103  NE2       28.5920   42.4870   16.5810 N.ar  164  HIS164     -0.2212
    104  N         27.4310   37.9930   17.8140 N.am  165  GLY165     -0.1954
    105  CA        26.2750   37.5340   17.0580 C.3   165  GLY165      0.1869
    106  C         25.7480   38.6340   16.1610 C.2   165  GLY165      0.2309
    107  O         25.4780   39.7500   16.6160 O.2   165  GLY165     -0.2863
    108  N         29.0350   29.0810   12.5990 N.3   211  PHE211     -0.1241
    109  CA        27.8540   28.6910   13.3870 C.3   211  PHE211      0.1605
    110  C         26.5950   29.4440   12.9470 C.2   211  PHE211      0.2264
    111  O         26.0780   30.3080   13.6710 O.2   211  PHE211     -0.2867
    112  CB        28.1500   28.8740   14.8650 C.3   211  PHE211      0.0534
    113  CG        29.3100   28.0180   15.3480 C.ar  211  PHE211     -0.0203
    114  CD1       29.1540   26.6380   15.5120 C.ar  211  PHE211     -0.0042
    115  CD2       30.5580   28.5840   15.6130 C.ar  211  PHE211     -0.0042
    116  CE1       30.2240   25.8530   15.9520 C.ar  211  PHE211     -0.0003
    117  CE2       31.6240   27.7900   16.0570 C.ar  211  PHE211     -0.0003
    118  CZ        31.4490   26.4280   16.2100 C.ar  211  PHE211     -0.0000
@<TRIPOS>BOND
     1   108   109    1
     2   110   109    1
     3   110   111    2
     4    78    77    2
     5   109   112    1
     6    77    76    1
     7    75    76    1
     8    84    83    1
     9   112   113    1
    10   113   114   ar
    11   113   115   ar
    12   114   116   ar
    13   115   117   ar
    14   116   118   ar
    15   117   118   ar
    16    83    85    1
    17    83    80    1
    18   106   107    2
    19   106   105    1
    20    97    96    2
    21   101   103   ar
    22   101    99   ar
    23    74    73    1
    24   103   102   ar
    25    80    79    1
    26    80    81    1
    27   105   104    1
    28    96   104   am
    29    96    95    1
    30    99    98    1
    31    99   100   ar
    32    72    71    1
    33    72    73    1
    34    98    95    1
    35    71    68    1
    36   102   100   ar
    37    95    94    1
    38    81    86   am
    39    81    82    2
    40    86    87    1
    41    94    88   am
    42    92    91    2
    43    17    16    2
    44    93    91   am
    45    69    68    1
    46    69    70    2
    47    68    67    1
    48    91    90    1
    49    23    22    2
    50    88    87    1
    51    88    89    2
    52    87    90    1
    53    18    15    1
    54    18    19    1
    55    16    15    1
    56    16    20   am
    57    67    58   am
    58     8     7    2
    59    15    14    1
    60    22    21    1
    61    21    20    1
    62    21    24    1
    63     1     2    1
    64     7     6    1
    65     7     9   am
    66    58    59    2
    67    58    57    1
    68    24    25    1
    69     6     5    1
    70    57    60    1
    71    57    56    1
    72     5     2    1
    73    60    61    1
    74    63    65   ar
    75    63    61   ar
    76     2     3    1
    77    55    54    2
    78    65    66   ar
    79    61    62   ar
    80    25    27   ar
    81    25    26   ar
    82    56    54   am
    83    30    27   ar
    84    30    32   ar
    85     3     4    2
    86    54    53    1
    87    27    29   ar
    88    26    28   ar
    89    66    64   ar
    90    62    64   ar
    91    32    33   ar
    92    12    13    2
    93    12    11    1
    94    53    52    1
    95    29    28   ar
    96    29    31   ar
    97    52    50   am
    98    11    10    1
    99    33    31   ar
   100    49    50    1
   101    49    48    1
   102    50    51    2
   103    48    42   am
   104    43    42    2
   105    42    41    1
   106    37    36    2
   107    36    35    1
   108    36    40   am
   109    35    34    1
   110    35    38    1
   111    41    40    1
   112    41    44    1
   113    39    38    1
   114    44    45    1
   115    47    45   am
   116    45    46    2
