@<TRIPOS>MOLECULE
tmp/3ovzA00.pdb
 129 127 0 0 0
SMALL
GASTEIGER

@<TRIPOS>ATOM
      1  N         12.1490  -28.3910   -2.4510 N.3    17  GLN17      -0.1245
      2  CA        13.1390  -27.3630   -2.7200 C.3    17  GLN17       0.1566
      3  C         13.9880  -27.0730   -1.5060 C.2    17  GLN17       0.2260
      4  O         15.0730  -26.4620   -1.6020 O.2    17  GLN17      -0.2867
      5  CB        12.4720  -26.0750   -3.2020 C.3    17  GLN17       0.0367
      6  CG        11.5410  -25.4220   -2.1980 C.3    17  GLN17       0.0905
      7  CD        11.0900  -24.0950   -2.6500 C.2    17  GLN17       0.2608
      8  OE1       11.5970  -23.0870   -2.1870 O.2    17  GLN17      -0.2717
      9  NE2       10.1450  -24.0600   -3.5710 N.am   17  GLN17      -0.0878
     10  N         15.2670  -20.5320   -1.3260 N.3    21  GLY21      -0.1225
     11  CA        14.1730  -19.8490   -1.9900 C.3    21  GLY21       0.1811
     12  C         14.1500  -20.0210   -3.4940 C.2    21  GLY21       0.2280
     13  O         14.1120  -19.0460   -4.2400 O.2    21  GLY21      -0.2866
     14  N         11.8640  -21.5200   -5.7390 N.3    23  CYS23      -0.1221
     15  CA        10.6500  -22.0230   -6.3600 C.3    23  CYS23       0.1808
     16  C         10.6680  -21.6610   -7.8470 C.2    23  CYS23       0.2601
     17  O         10.2070  -22.4510   -8.6900 O.2    23  CYS23      -0.2717
     18  CB         9.4150  -21.4120   -5.7130 C.3    23  CYS23       0.0970
     19  SG         9.6900  -19.6780   -5.5220 S.3    23  CYS23      -0.0800
     20  N         11.1870  -20.4580   -8.1360 N.am   24  TRP24      -0.1976
     21  CA        11.3870  -19.9540   -9.4890 C.3    24  TRP24       0.1640
     22  C         12.1900  -20.8870  -10.3960 C.2    24  TRP24       0.2290
     23  O         11.8920  -21.0320  -11.5850 O.2    24  TRP24      -0.2864
     24  CB        12.0740  -18.5890   -9.4120 C.3    24  TRP24       0.0576
     25  CG        13.4730  -18.5690   -8.8390 C.ar   24  TRP24       0.0006
     26  CD1       13.8350  -18.3190   -7.5460 C.ar   24  TRP24       0.0946
     27  CD2       14.6990  -18.7910   -9.5580 C.ar   24  TRP24       0.0152
     28  NE1       15.2130  -18.3780   -7.4190 N.ar   24  TRP24      -0.2442
     29  CE2       15.7610  -18.6720   -8.6310 C.ar   24  TRP24       0.0810
     30  CE3       14.9970  -19.0910  -10.8960 C.ar   24  TRP24       0.0012
     31  CZ2       17.0910  -18.8230   -8.9990 C.ar   24  TRP24       0.0191
     32  CZ3       16.3150  -19.2520  -11.2560 C.ar   24  TRP24       0.0001
     33  CH2       17.3540  -19.1280  -10.3100 C.ar   24  TRP24       0.0015
     34  N         19.1010  -18.6970   -3.7660 N.3    61  CYS61      -0.1221
     35  CA        18.1790  -19.0750   -2.6870 C.3    61  CYS61       0.1808
     36  C         17.4090  -17.9060   -2.0920 C.2    61  CYS61       0.2602
     37  O         16.4510  -18.1170   -1.3400 O.2    61  CYS61      -0.2717
     38  CB        18.9410  -19.7440   -1.5590 C.3    61  CYS61       0.0970
     39  SG        19.6450  -21.3000   -2.0130 S.3    61  CYS61      -0.0800
     40  N         17.8390  -16.6850   -2.3860 N.am   62  GLY62      -0.1942
     41  CA        17.0980  -15.5150   -1.9610 C.3    62  GLY62       0.2014
     42  C         16.0120  -15.0040   -2.8820 C.2    62  GLY62       0.2639
     43  O         15.5410  -13.8750   -2.7030 O.2    62  GLY62      -0.2714
     44  N         15.6220  -15.7770   -3.8940 N.am   63  GLY63      -0.1939
     45  CA        14.4990  -15.3960   -4.7970 C.3    63  GLY63       0.2017
     46  C         14.8270  -15.1880   -6.2930 C.2    63  GLY63       0.2678
     47  O         15.9650  -14.9740   -6.6550 O.2    63  GLY63      -0.2710
     48  N         13.8260  -15.2580   -7.1690 N.am   64  GLY64      -0.1716
     49  CA        14.0570  -14.9380   -8.5990 C.2    64  GLY64       0.1480
     50  C         12.8820  -15.0930   -9.5390 C.2    64  GLY64       0.2820
     51  O         11.8040  -15.5670   -9.1550 O.2    64  GLY64      -0.2669
     52  N         13.1060  -14.6910  -10.7900 N.am   65  TYR65      -0.1925
     53  CA        12.0920  -14.7880  -11.8310 C.3    65  TYR65       0.1774
     54  C         12.3750  -15.8480  -12.8630 C.2    65  TYR65       0.2619
     55  O         13.5180  -16.1200  -13.1710 O.2    65  TYR65      -0.2715
     56  CB        11.9310  -13.4550  -12.5220 C.3    65  TYR65       0.0574
     57  CG        11.6020  -12.3580  -11.5680 C.ar   65  TYR65      -0.0198
     58  CD1       12.5730  -11.4660  -11.1310 C.ar   65  TYR65      -0.0009
     59  CD2       10.3270  -12.2370  -11.0630 C.ar   65  TYR65      -0.0009
     60  CE1       12.2610  -10.4570  -10.2280 C.ar   65  TYR65       0.0417
     61  CE2       10.0100  -11.2540  -10.1980 C.ar   65  TYR65       0.0417
     62  CZ        10.9560  -10.3650   -9.7710 C.ar   65  TYR65       0.1957
     63  OH        10.5650   -9.3740   -8.8820 O.3    65  TYR65      -0.2866
     64  N         11.2990  -16.4650  -13.3670 N.am   66  MET66      -0.1977
     65  CA        11.4090  -17.5000  -14.4080 C.3    66  MET66       0.1605
     66  C         11.9140  -16.9640  -15.7630 C.2    66  MET66       0.2287
     67  O         12.8220  -17.5430  -16.3580 O.2    66  MET66      -0.2864
     68  CB        10.0810  -18.2440  -14.5820 C.3    66  MET66       0.0413
     69  CG         9.5430  -18.8660  -13.2810 C.3    66  MET66       0.0598
     70  SD         8.7830  -17.6930  -12.1610 S.3    66  MET66      -0.1393
     71  CE         7.2280  -17.2730  -12.9210 C.3    66  MET66       0.0692
     72  N          3.1930  -17.2750  -11.4290 N.3   132  ALA132     -0.1245
     73  CA         3.4300  -16.5770  -10.1740 C.3   132  ALA132      0.1562
     74  C          2.0940  -16.3100   -9.4720 C.2   132  ALA132      0.2260
     75  O          1.1260  -15.9310  -10.1160 O.2   132  ALA132     -0.2867
     76  CB         4.1580  -15.2660  -10.4320 C.3   132  ALA132      0.0290
     77  N          2.5600  -10.9120   -5.7240 N.3   158  LEU158     -0.1231
     78  CA         3.0290  -12.1370   -6.3470 C.3   158  LEU158      0.1693
     79  C          4.2730  -12.5000   -5.5950 C.2   158  LEU158      0.2592
     80  O          5.1780  -11.6880   -5.5140 O.2   158  LEU158     -0.2718
     81  CB         3.3250  -11.9270   -7.8440 C.3   158  LEU158      0.0284
     82  CG         2.1570  -11.5030   -8.7370 C.3   158  LEU158      0.0019
     83  CD1        2.5000  -11.5810  -10.2380 C.3   158  LEU158      0.0001
     84  CD2        0.9540  -12.3300   -8.4070 C.3   158  LEU158      0.0001
     85  N          4.3300  -13.6930   -4.9980 N.am  159  ASN159     -0.1960
     86  CA         5.5410  -14.0620   -4.2510 C.3   159  ASN159      0.1819
     87  C          6.1420  -15.4320   -4.4800 C.2   159  ASN159      0.2621
     88  O          7.2070  -15.7180   -3.9660 O.2   159  ASN159     -0.2715
     89  CB         5.3610  -13.8050   -2.7320 C.3   159  ASN159      0.1195
     90  CG         4.0420  -14.2750   -2.2040 C.2   159  ASN159      0.2630
     91  OD1        3.7270  -15.4500   -2.2780 O.2   159  ASN159     -0.2716
     92  ND2        3.2570  -13.3490   -1.6410 N.am  159  ASN159     -0.0877
     93  N          5.5180  -16.2640   -5.2860 N.am  160  HIS160     -0.1959
     94  CA         5.8980  -17.6560   -5.3470 C.3   160  HIS160      0.1787
     95  C          5.5660  -18.2170   -6.7280 C.2   160  HIS160      0.2620
     96  O          4.5830  -17.8390   -7.3370 O.2   160  HIS160     -0.2715
     97  CB         5.2270  -18.3680   -4.1560 C.3   160  HIS160      0.0785
     98  CG         5.3900  -19.8510   -4.1060 C.ar  160  HIS160      0.0821
     99  ND1        6.5770  -20.4610   -3.7430 N.ar  160  HIS160     -0.2267
    100  CD2        4.4950  -20.8500   -4.3000 C.ar  160  HIS160      0.1154
    101  CE1        6.4150  -21.7730   -3.7650 C.ar  160  HIS160      0.1986
    102  NE2        5.1660  -22.0380   -4.0970 N.ar  160  HIS160     -0.2212
    103  N          6.4680  -19.0690   -7.2170 N.am  161  ALA161     -0.1977
    104  CA         6.4060  -19.6560   -8.5290 C.3   161  ALA161      0.1597
    105  C          6.0090  -21.1270   -8.4140 C.2   161  ALA161      0.2287
    106  O          6.4600  -21.8870   -7.5360 O.2   161  ALA161     -0.2864
    107  CB         7.7350  -19.5000   -9.2480 C.3   161  ALA161      0.0319
    108  N          7.2100  -28.2620   -2.8820 N.3   182  TRP182     -0.1241
    109  CA         7.2860  -28.4240   -1.4380 C.3   182  TRP182      0.1605
    110  C          7.1060  -29.8750   -0.9990 C.2   182  TRP182      0.2264
    111  O          6.6990  -30.1190    0.1140 O.2   182  TRP182     -0.2867
    112  CB         6.2010  -27.5450   -0.7520 C.3   182  TRP182      0.0550
    113  CG         6.4280  -26.0400   -0.8300 C.ar  182  TRP182      0.0003
    114  CD1        7.5760  -25.3810   -1.2080 C.ar  182  TRP182      0.0946
    115  CD2        5.4990  -25.0160   -0.4400 C.ar  182  TRP182      0.0152
    116  NE1        7.3930  -24.0080   -1.0850 N.ar  182  TRP182     -0.2442
    117  CE2        6.1230  -23.7710   -0.6430 C.ar  182  TRP182      0.0810
    118  CE3        4.1830  -25.0320    0.0240 C.ar  182  TRP182      0.0012
    119  CZ2        5.4690  -22.5540   -0.3880 C.ar  182  TRP182      0.0191
    120  CZ3        3.5500  -23.8240    0.2850 C.ar  182  TRP182      0.0001
    121  CH2        4.1900  -22.6150    0.0600 C.ar  182  TRP182      0.0015
    122  N          1.8470  -13.0580  -14.0040 N.3   207  LEU207     -0.1245
    123  CA         3.2750  -13.0940  -14.3960 C.3   207  LEU207      0.1561
    124  C          3.6510  -14.4750  -14.8970 C.2   207  LEU207      0.2260
    125  O          4.6490  -15.0620  -14.4540 O.2   207  LEU207     -0.2867
    126  CB         4.1700  -12.6320  -13.2450 C.3   207  LEU207      0.0270
    127  CG         5.6190  -12.2200  -13.5690 C.3   207  LEU207      0.0019
    128  CD1        5.6310  -11.0370  -14.5090 C.3   207  LEU207      0.0001
    129  CD2        6.4040  -11.8640  -12.3150 C.3   207  LEU207      0.0001
@<TRIPOS>BOND
     1    67    66    2
     2    66    65    1
     3   124   125    2
     4   124   123    1
     5    68    65    1
     6    68    69    1
     7   128   127    1
     8    65    64    1
     9   123   122    1
    10   123   126    1
    11   127   126    1
    12   127   129    1
    13    64    54   am
    14    69    70    1
    15    55    54    2
    16    71    70    1
    17    54    53    1
    18    56    53    1
    19    56    57    1
    20    53    52    1
    21    23    22    2
    22    57    58   ar
    23    57    59   ar
    24    72    73    1
    25    32    30   ar
    26    32    33   ar
    27    58    60   ar
    28    59    61   ar
    29    30    27   ar
    30    52    50   am
    31    76    73    1
    32    22    21    1
    33    33    31   ar
    34    83    82    1
    35    60    62   ar
    36    61    62   ar
    37    73    74    1
    38    75    74    2
    39    62    63    1
    40    27    25   ar
    41    27    29   ar
    42    50    51    2
    43    50    49    1
    44    21    24    1
    45    21    20    1
    46    24    25    1
    47   107   104    1
    48    31    29   ar
    49    25    26   ar
    50    82    84    1
    51    82    81    1
    52    17    16    2
    53    29    28   ar
    54    49    48    2
    55   104   105    1
    56   104   103    1
    57   105   106    2
    58    20    16   am
    59    16    15    1
    60    81    78    1
    61    26    28   ar
    62    96    95    2
    63   103    95   am
    64    48    46    1
    65    95    94    1
    66    47    46    2
    67    15    14    1
    68    15    18    1
    69    78    77    1
    70    78    79    1
    71    46    45    1
    72    18    19    1
    73    79    80    2
    74    79    85   am
    75    94    93    1
    76    94    97    1
    77    93    87   am
    78    85    86    1
    79    45    44    1
    80    87    86    1
    81    87    88    2
    82   100    98   ar
    83   100   102   ar
    84    86    89    1
    85    13    12    2
    86    97    98    1
    87    98    99   ar
    88   102   101   ar
    89    44    42   am
    90    34    35    1
    91   101    99   ar
    92     9     7   am
    93    12    11    1
    94     5     2    1
    95     5     6    1
    96   108   109    1
    97    42    43    2
    98    42    41    1
    99    89    90    1
   100     2     1    1
   101     2     3    1
   102    35    36    1
   103    35    38    1
   104     7     6    1
   105     7     8    2
   106    40    36   am
   107    40    41    1
   108    91    90    2
   109    90    92   am
   110    36    37    2
   111    39    38    1
   112    11    10    1
   113     4     3    2
   114   109   110    1
   115   109   112    1
   116   114   116   ar
   117   114   113   ar
   118   116   117   ar
   119   110   111    2
   120   113   112    1
   121   113   115   ar
   122   117   115   ar
   123   117   119   ar
   124   115   118   ar
   125   119   121   ar
   126   118   120   ar
   127   121   120   ar
