@<TRIPOS>MOLECULE
tmp/3ow3A00.pdb
 193 184 0 0 0
SMALL
GASTEIGER

@<TRIPOS>ATOM
      1  N          7.0760   37.3220   41.1580 N.3    35  LEU35      -0.1231
      2  CA         7.6580   37.5520   39.8650 C.3    35  LEU35       0.1693
      3  C          6.6570   37.1640   38.7610 C.2    35  LEU35       0.2593
      4  O          6.8230   37.5600   37.5930 O.2    35  LEU35      -0.2718
      5  CB         8.8970   36.6960   39.6720 C.3    35  LEU35       0.0284
      6  CG        10.0920   37.0070   40.5710 C.3    35  LEU35       0.0019
      7  CD1       11.1040   35.8990   40.4370 C.3    35  LEU35       0.0001
      8  CD2       10.6600   38.4550   40.1520 C.3    35  LEU35       0.0001
      9  N          5.6610   36.3770   39.1550 N.am   36  GLY36      -0.1942
     10  CA         4.7310   35.7930   38.2260 C.3    36  GLY36       0.2014
     11  C          3.6990   34.9090   38.9010 C.2    36  GLY36       0.2640
     12  O          3.8530   34.4910   40.0660 O.2    36  GLY36      -0.2714
     13  N          2.6590   34.5820   38.1420 N.am   37  THR37      -0.1936
     14  CA         1.4550   33.9800   38.7180 C.3    37  THR37       0.2028
     15  C          0.7730   32.9860   37.7780 C.2    37  THR37       0.2642
     16  O          1.0920   32.9480   36.5640 O.2    37  THR37      -0.2714
     17  CB         0.5110   35.1070   39.1850 C.3    37  THR37       0.1808
     18  OG1        0.5070   35.1500   40.6180 O.3    37  THR37      -0.2208
     19  CG2       -0.8920   34.9740   38.6390 C.3    37  THR37       0.0379
     20  N         -0.1690   32.2200   38.3670 N.am   38  GLY38      -0.1954
     21  CA        -0.9750   31.1430   37.7270 C.3    38  GLY38       0.1869
     22  C         -2.1220   30.6480   38.6310 C.2    38  GLY38       0.2309
     23  O         -2.3070   31.0910   39.7750 O.2    38  GLY38      -0.2863
     24  N         -2.6940   27.5340   40.0250 N.3    40  PHE40      -0.1227
     25  CA        -2.3440   26.6530   41.1610 C.3    40  PHE40       0.1736
     26  C         -1.2640   27.1270   42.1640 C.2    40  PHE40       0.2596
     27  O         -0.9170   26.4240   43.1290 O.2    40  PHE40      -0.2718
     28  CB        -2.2700   25.1370   40.7980 C.3    40  PHE40       0.0547
     29  CG        -1.6970   24.8080   39.4170 C.ar   40  PHE40      -0.0202
     30  CD1       -2.5080   24.8940   38.2560 C.ar   40  PHE40      -0.0042
     31  CD2       -0.3870   24.3090   39.2840 C.ar   40  PHE40      -0.0042
     32  CE1       -2.0080   24.5620   36.9650 C.ar   40  PHE40      -0.0003
     33  CE2        0.1280   23.9560   38.0040 C.ar   40  PHE40      -0.0003
     34  CZ        -0.6930   24.0900   36.8450 C.ar   40  PHE40      -0.0000
     35  N         -0.8290   28.3850   41.9780 N.am   41  GLY41      -0.1942
     36  CA        -0.0690   29.0950   43.0310 C.3    41  GLY41       0.2014
     37  C          0.6560   30.2880   42.4440 C.2    41  GLY41       0.2639
     38  O         -0.0240   31.1810   41.9070 O.2    41  GLY41      -0.2714
     39  N          2.0180   30.2630   42.4820 N.am   42  ARG42      -0.1963
     40  CA         2.8250   31.4280   42.1100 C.3    42  ARG42       0.1729
     41  C          4.3570   31.2670   42.1520 C.2    42  ARG42       0.2616
     42  O          4.8700   30.2700   42.7050 O.2    42  ARG42      -0.2715
     43  CB         2.3200   32.5870   42.9570 C.3    42  ARG42       0.0348
     44  CG         2.8930   32.8420   44.3050 C.3    42  ARG42       0.0492
     45  CD         1.8240   33.4220   45.2530 C.3    42  ARG42       0.2205
     46  NE         1.4250   32.3560   46.1850 N.pl3  42  ARG42      -0.0865
     47  CZ         1.0970   32.5240   47.4690 C.cat  42  ARG42       0.5346
     48  NH1        1.1060   33.7340   48.0250 N.pl3  42  ARG42       0.1354
     49  NH2        0.7640   31.4630   48.2080 N.pl3  42  ARG42       0.1354
     50  N          5.0750   32.2280   41.5540 N.am   43  VAL43      -0.1977
     51  CA         6.5640   32.2160   41.5240 C.3    43  VAL43       0.1596
     52  C          7.0400   33.4710   42.3410 C.2    43  VAL43       0.2287
     53  O          6.5430   34.6130   42.0920 O.2    43  VAL43      -0.2864
     54  CB         7.1160   32.2500   40.1150 C.3    43  VAL43       0.0276
     55  CG1        8.6420   32.3640   40.0870 C.3    43  VAL43       0.0022
     56  CG2        6.7550   30.9150   39.2660 C.3    43  VAL43       0.0022
     57  N         14.1350   31.8630   42.0450 N.3    56  ALA56      -0.1245
     58  CA        12.7360   32.0380   41.7270 C.3    56  ALA56       0.1562
     59  C         12.1140   30.7580   42.2440 C.2    56  ALA56       0.2260
     60  O         12.3940   29.6820   41.6890 O.2    56  ALA56      -0.2867
     61  CB        12.5130   32.0810   40.1280 C.3    56  ALA56       0.0290
     62  N          8.9250   28.5220   42.6340 N.3    58  LYS58      -0.1245
     63  CA         7.5750   28.2680   42.1980 C.3    58  LYS58       0.1561
     64  C          6.8740   27.5100   43.2900 C.2    58  LYS58       0.2260
     65  O          7.3830   26.4600   43.6910 O.2    58  LYS58      -0.2867
     66  CB         7.6330   27.4340   40.9010 C.3    58  LYS58       0.0271
     67  CG         6.2410   27.1050   40.3130 C.3    58  LYS58       0.0035
     68  CD         6.5190   26.3040   38.9430 C.3    58  LYS58       0.0206
     69  CE         5.2410   26.1940   38.1410 C.3    58  LYS58       0.1093
     70  NZ         5.6050   25.6170   36.7500 N.3    58  LYS58      -0.1314
     71  N          3.4180   25.6640   44.4620 N.3    60  LEU60      -0.1245
     72  CA         2.1460   25.1280   43.9790 C.3    60  LEU60       0.1561
     73  C          1.2820   24.6510   45.1260 C.2    60  LEU60       0.2260
     74  O          1.7310   23.8780   45.9290 O.2    60  LEU60      -0.2867
     75  CB         2.4030   23.9540   43.0170 C.3    60  LEU60       0.0270
     76  CG         3.2380   24.2630   41.7790 C.3    60  LEU60       0.0019
     77  CD1        3.4950   22.9610   41.0650 C.3    60  LEU60       0.0001
     78  CD2        2.5480   25.1780   40.8640 C.3    60  LEU60       0.0001
     79  N         16.2030   26.3990   32.1420 N.3    90  VAL90      -0.1245
     80  CA        16.4040   26.8360   33.5070 C.3    90  VAL90       0.1561
     81  C         16.7160   25.6100   34.4040 C.2    90  VAL90       0.2260
     82  O         16.1670   24.5010   34.2480 O.2    90  VAL90      -0.2867
     83  CB        15.2000   27.6070   34.0600 C.3    90  VAL90       0.0252
     84  CG1       14.0330   26.6010   34.3570 C.3    90  VAL90       0.0019
     85  CG2       15.6380   28.4160   35.3210 C.3    90  VAL90       0.0019
     86  N         14.2360   27.4930   41.2830 N.3   106  MET106     -0.1230
     87  CA        15.0510   27.6070   40.0930 C.3   106  MET106      0.1702
     88  C         16.0120   28.7670   40.2020 C.2   106  MET106      0.2592
     89  O         15.8030   29.6920   40.9990 O.2   106  MET106     -0.2718
     90  CB        14.1360   28.0140   38.9780 C.3   106  MET106      0.0401
     91  CG        13.7700   26.9230   38.1430 C.3   106  MET106      0.0596
     92  SD        12.5310   25.9350   38.8940 S.3   106  MET106     -0.1393
     93  CE        11.3130   27.2550   39.1140 C.3   106  MET106      0.0692
     94  N         16.9930   28.7850   39.3080 N.am  107  GLU107     -0.1966
     95  CA        17.8150   29.9810   39.1900 C.3   107  GLU107      0.1733
     96  C         16.9080   31.1350   38.7520 C.2   107  GLU107      0.2616
     97  O         15.9850   30.9650   37.9430 O.2   107  GLU107     -0.2715
     98  CB        18.9760   29.8230   38.1910 C.3   107  GLU107      0.0429
     99  CG        18.7630   28.6680   37.2460 C.3   107  GLU107      0.1163
    100  CD        19.7450   28.6650   36.0520 C.2   107  GLU107      0.3649
    101  OE1       19.2830   28.1130   35.0090 O.co2 107  GLU107     -0.2457
    102  OE2       20.9180   29.2310   36.1900 O.co2 107  GLU107     -0.2457
    103  N         17.1740   32.2830   39.3520 N.am  108  TYR108     -0.1960
    104  CA        16.4270   33.4800   39.1300 C.3   108  TYR108      0.1771
    105  C         17.0120   34.0740   37.8290 C.2   108  TYR108      0.2619
    106  O         18.2820   34.2440   37.7050 O.2   108  TYR108     -0.2715
    107  CB        16.6500   34.4250   40.3090 C.3   108  TYR108      0.0574
    108  CG        16.0440   35.7800   40.0410 C.ar  108  TYR108     -0.0198
    109  CD1       14.7360   35.8740   39.5280 C.ar  108  TYR108     -0.0009
    110  CD2       16.7690   36.9580   40.2680 C.ar  108  TYR108     -0.0009
    111  CE1       14.1970   37.1300   39.2020 C.ar  108  TYR108      0.0417
    112  CE2       16.1950   38.2480   40.0130 C.ar  108  TYR108      0.0417
    113  CZ        14.9390   38.3220   39.4830 C.ar  108  TYR108      0.1957
    114  OH        14.3540   39.5390   39.2070 O.3   108  TYR108     -0.2866
    115  N         16.1280   34.3000   36.8460 N.am  109  VAL109     -0.1977
    116  CA        16.5490   34.8640   35.5470 C.3   109  VAL109      0.1596
    117  C         15.9770   36.2570   35.5270 C.2   109  VAL109      0.2287
    118  O         14.7630   36.4940   35.3560 O.2   109  VAL109     -0.2864
    119  CB        16.1040   33.9540   34.3170 C.3   109  VAL109      0.0276
    120  CG1       16.6650   34.4840   32.9940 C.3   109  VAL109      0.0022
    121  CG2       16.5780   32.5120   34.5120 C.3   109  VAL109      0.0022
    122  N         10.4760   37.9700   31.2090 N.3   113  GLU113     -0.1245
    123  CA         9.9020   37.1070   30.1550 C.3   113  GLU113      0.1567
    124  C         10.1450   37.7480   28.8090 C.2   113  GLU113      0.2260
    125  O         10.0060   38.9640   28.6800 O.2   113  GLU113     -0.2867
    126  CB         8.3750   36.8880   30.3050 C.3   113  GLU113      0.0388
    127  CG         7.9290   36.2550   31.6810 C.3   113  GLU113      0.1160
    128  CD         6.3990   36.3150   31.9620 C.2   113  GLU113      0.3649
    129  OE1        5.6160   36.8500   31.1440 O.co2 113  GLU113     -0.2457
    130  OE2        5.9840   35.8350   33.0490 O.co2 113  GLU113     -0.2457
    131  N          5.6930   33.8370   27.1520 N.3   156  GLU156     -0.1231
    132  CA         5.4880   33.8830   28.6100 C.3   156  GLU156      0.1699
    133  C          6.4400   32.8770   29.3160 C.2   156  GLU156      0.2592
    134  O          6.7610   33.0720   30.5050 O.2   156  GLU156     -0.2718
    135  CB         4.0380   33.5210   29.0090 C.3   156  GLU156      0.0402
    136  CG         2.9420   34.5570   28.5700 C.3   156  GLU156      0.1161
    137  CD         2.4160   34.3450   27.1200 C.2   156  GLU156      0.3649
    138  OE1        3.1850   33.9420   26.1870 O.co2 156  GLU156     -0.2457
    139  OE2        1.2400   34.6400   26.9110 O.co2 156  GLU156     -0.2457
    140  N          6.8660   31.8400   28.6090 N.am  157  ASN157     -0.1974
    141  CA         7.6350   30.7390   29.2350 C.3   157  ASN157      0.1688
    142  C          9.1080   30.7890   28.8580 C.2   157  ASN157      0.2292
    143  O          9.8740   29.8050   29.1450 O.2   157  ASN157     -0.2864
    144  CB         7.0510   29.3500   28.8530 C.3   157  ASN157      0.1181
    145  CG         5.7470   29.0580   29.5400 C.2   157  ASN157      0.2629
    146  OD1        5.3740   29.7390   30.5140 O.2   157  ASN157     -0.2716
    147  ND2        5.0600   28.0410   29.0940 N.am  157  ASN157     -0.0877
    148  N         12.5130   33.0490   29.3780 N.3   159  LEU159     -0.1245
    149  CA        13.1440   34.1520   30.1420 C.3   159  LEU159      0.1561
    150  C         14.4380   34.6000   29.4710 C.2   159  LEU159      0.2260
    151  O         15.1260   33.7980   28.8230 O.2   159  LEU159     -0.2867
    152  CB        13.4440   33.6920   31.5490 C.3   159  LEU159      0.0270
    153  CG        12.2410   33.0930   32.2950 C.3   159  LEU159      0.0019
    154  CD1       12.6740   32.5850   33.6660 C.3   159  LEU159      0.0001
    155  CD2       11.1420   34.0730   32.4240 C.3   159  LEU159      0.0001
    156  N         11.3840   27.9850   30.7620 N.3   169  THR169     -0.1203
    157  CA        10.9040   27.6160   32.0640 C.3   169  THR169      0.1994
    158  C          9.5020   27.0040   31.8960 C.2   169  THR169      0.2617
    159  O          8.8630   27.0810   30.8130 O.2   169  THR169     -0.2717
    160  CB        10.8560   28.8710   32.9870 C.3   169  THR169      0.1784
    161  OG1       10.4850   28.4420   34.3000 O.3   169  THR169     -0.2211
    162  CG2        9.8580   29.8910   32.5480 C.3   169  THR169      0.0376
    163  N          8.9530   26.5210   32.9720 N.am  170  ASP170     -0.1973
    164  CA         7.6080   25.9690   32.9700 C.3   170  ASP170      0.1709
    165  C          7.4690   24.6440   32.2160 C.2   170  ASP170      0.2293
    166  O          7.0560   24.5880   31.0280 O.2   170  ASP170     -0.2864
    167  CB         6.5200   26.9920   32.5790 C.3   170  ASP170      0.1436
    168  CG         5.0950   26.5190   33.0140 C.2   170  ASP170      0.3671
    169  OD1        4.9100   25.3090   33.3420 O.co2 170  ASP170     -0.2456
    170  OD2        4.1810   27.3880   33.1110 O.co2 170  ASP170     -0.2456
    171  N         10.3320   42.7080   35.4280 N.3   312  PHE312     -0.1241
    172  CA         9.1430   41.8870   35.7390 C.3   312  PHE312      0.1605
    173  C          8.0320   42.7880   36.2070 C.2   312  PHE312      0.2264
    174  O          8.2710   43.7570   36.9170 O.2   312  PHE312     -0.2867
    175  CB         9.3620   40.8700   36.9430 C.3   312  PHE312      0.0534
    176  CG        10.1850   39.7580   36.5860 C.ar  312  PHE312     -0.0203
    177  CD1        9.6240   38.6300   35.9860 C.ar  312  PHE312     -0.0042
    178  CD2       11.5790   39.8590   36.7160 C.ar  312  PHE312     -0.0042
    179  CE1       10.4220   37.6480   35.5700 C.ar  312  PHE312     -0.0003
    180  CE2       12.3620   38.8710   36.3080 C.ar  312  PHE312     -0.0003
    181  CZ        11.8030   37.7450   35.7350 C.ar  312  PHE312     -0.0000
    182  N          2.8150   42.2410   41.0230 N.3   315  TYR315     -0.1241
    183  CA         1.7150   41.3090   41.1820 C.3   315  TYR315      0.1605
    184  C          1.2560   41.5060   42.6010 C.2   315  TYR315      0.2264
    185  O          2.0320   41.9210   43.4050 O.2   315  TYR315     -0.2867
    186  CB         2.2010   39.8660   40.9490 C.3   315  TYR315      0.0534
    187  CG         2.4100   39.4760   39.4800 C.ar  315  TYR315     -0.0201
    188  CD1        3.6810   39.6170   38.8720 C.ar  315  TYR315     -0.0009
    189  CD2        1.3320   38.9930   38.6810 C.ar  315  TYR315     -0.0009
    190  CE1        3.8890   39.2540   37.5290 C.ar  315  TYR315      0.0417
    191  CE2        1.5360   38.6380   37.3200 C.ar  315  TYR315      0.0417
    192  CZ         2.8280   38.7550   36.7630 C.ar  315  TYR315      0.1957
    193  OH         3.0780   38.3900   35.4260 O.3   315  TYR315     -0.2866
@<TRIPOS>BOND
     1   138   137   ar
     2   139   137   ar
     3   137   136    1
     4   131   132    1
     5   136   135    1
     6   140   141    1
     7   140   133   am
     8   132   135    1
     9   132   133    1
    10   125   124    2
    11   124   123    1
    12   151   150    2
    13   144   141    1
    14   144   145    1
    15   142   143    2
    16   142   141    1
    17   147   145   am
    18   133   134    2
    19   148   149    1
    20   150   149    1
    21   145   146    2
    22   149   152    1
    23   123   126    1
    24   123   122    1
    25   126   127    1
    26   156   157    1
    27   159   158    2
    28   166   165    2
    29   129   128   ar
    30   152   153    1
    31   127   128    1
    32   158   157    1
    33   158   163   am
    34   128   130   ar
    35   157   160    1
    36    79    80    1
    37   165   164    1
    38   153   155    1
    39   153   154    1
    40   162   160    1
    41   167   164    1
    42   167   168    1
    43   164   163    1
    44   160   161    1
    45   120   119    1
    46   168   170   ar
    47   168   169   ar
    48    80    83    1
    49    80    81    1
    50    83    84    1
    51    83    85    1
    52    82    81    2
    53   119   121    1
    54   119   116    1
    55   101   100   ar
    56   118   117    2
    57   193   192    1
    58   171   172    1
    59   117   116    1
    60   116   115    1
    61   179   181   ar
    62   179   177   ar
    63   181   180   ar
    64   172   173    1
    65   172   175    1
    66   177   176   ar
    67   100   102   ar
    68   100    99    1
    69   173   174    2
    70   180   178   ar
    71    16    15    2
    72   176   178   ar
    73   176   175    1
    74    70    69    1
    75   192   191   ar
    76   192   190   ar
    77    34    32   ar
    78    34    33   ar
    79   115   105   am
    80    32    30   ar
    81    99    98    1
    82   191   189   ar
    83   190   188   ar
    84     4     3    2
    85   106   105    2
    86    21    20    1
    87    21    22    1
    88    15    20   am
    89    15    14    1
    90   105   104    1
    91    97    96    2
    92    33    31   ar
    93    69    68    1
    94    13    14    1
    95    13    11   am
    96    91    92    1
    97    91    90    1
    98    98    95    1
    99    10    11    1
   100    10     9    1
   101    30    29   ar
   102    22    23    2
   103    19    17    1
   104   189   187   ar
   105    14    17    1
   106    96    95    1
   107    96   103   am
   108     3     9   am
   109     3     2    1
   110   188   187   ar
   111    92    93    1
   112    11    12    2
   113    68    67    1
   114    90    87    1
   115   104   103    1
   116   104   107    1
   117    17    18    1
   118    95    94    1
   119   111   113   ar
   120   111   109   ar
   121   114   113    1
   122    56    54    1
   123    31    29   ar
   124    94    88   am
   125    29    28    1
   126   187   186    1
   127   113   112   ar
   128   109   108   ar
   129     5     2    1
   130     5     6    1
   131     2     1    1
   132   112   110   ar
   133    24    25    1
   134   108   110   ar
   135   108   107    1
   136    55    54    1
   137    87    88    1
   138    87    86    1
   139    54    51    1
   140    61    58    1
   141     8     6    1
   142    88    89    2
   143    67    66    1
   144     7     6    1
   145    28    25    1
   146    78    76    1
   147    66    63    1
   148   186   183    1
   149   182   183    1
   150    77    76    1
   151    25    26    1
   152   183   184    1
   153    51    50    1
   154    51    52    1
   155    50    41   am
   156    60    59    2
   157    58    57    1
   158    58    59    1
   159    76    75    1
   160    38    37    2
   161    35    26   am
   162    35    36    1
   163    53    52    2
   164    40    41    1
   165    40    39    1
   166    40    43    1
   167    41    42    2
   168    26    27    2
   169    63    62    1
   170    63    64    1
   171    37    39   am
   172    37    36    1
   173   184   185    2
   174    43    44    1
   175    75    72    1
   176    64    65    2
   177    72    71    1
   178    72    73    1
   179    44    45    1
   180    73    74    2
   181    45    46    1
   182    46    47    2
   183    47    48    1
   184    47    49    1
