@<TRIPOS>MOLECULE
tmp/3ow4B01.pdb
 190 181 0 0 0
SMALL
GASTEIGER

@<TRIPOS>ATOM
      1  N         54.9730   -5.5190   11.1700 N.3    13  LEU13      -0.1231
      2  CA        55.3940   -5.9260   12.5030 C.3    13  LEU13       0.1693
      3  C         54.5640   -5.2130   13.5590 C.2    13  LEU13       0.2593
      4  O         54.4450   -5.6790   14.7030 O.2    13  LEU13      -0.2718
      5  CB        56.8670   -5.5910   12.7170 C.3    13  LEU13       0.0284
      6  CG        57.8830   -5.8710   11.6160 C.3    13  LEU13       0.0019
      7  CD1       59.1630   -5.1240   11.9160 C.3    13  LEU13       0.0001
      8  CD2       58.1430   -7.3580   11.4710 C.3    13  LEU13       0.0001
      9  N         54.0110   -4.0650   13.1750 N.am   14  GLY14      -0.1942
     10  CA        53.1470   -3.3260   14.0600 C.3    14  GLY14       0.2014
     11  C         52.3740   -2.2600   13.3360 C.2    14  GLY14       0.2639
     12  O         52.9400   -1.4950   12.5510 O.2    14  GLY14      -0.2714
     13  N         51.0700   -2.2200   13.5810 N.am   15  LYS15      -0.1963
     14  CA        50.2730   -1.1040   13.1120 C.3    15  LYS15       0.1728
     15  C         50.2090   -0.0720   14.2450 C.2    15  LYS15       0.2616
     16  O         51.1580    0.0470   15.0100 O.2    15  LYS15      -0.2715
     17  CB        48.8970   -1.5540   12.6020 C.3    15  LYS15       0.0311
     18  CG        48.4300   -0.7450   11.3860 C.3    15  LYS15       0.0038
     19  CD        47.3280   -1.4550   10.6120 C.3    15  LYS15       0.0206
     20  CE        46.6940   -0.5140    9.5900 C.3    15  LYS15       0.1093
     21  NZ        45.2150   -0.7240    9.5350 N.3    15  LYS15      -0.1314
     22  N         49.1130    0.6640   14.3580 N.am   16  GLY16      -0.1955
     23  CA        49.0050    1.7190   15.3550 C.3    16  GLY16       0.1869
     24  C         48.3780    2.9240   14.6960 C.2    16  GLY16       0.2309
     25  O         48.3520    3.0380   13.4700 O.2    16  GLY16      -0.2863
     26  N         49.4090    5.9200   14.4730 N.3    18  PHE18      -0.1227
     27  CA        50.3280    6.8880   13.8290 C.3    18  PHE18       0.1736
     28  C         50.8850    6.3750   12.5240 C.2    18  PHE18       0.2596
     29  O         51.3490    7.1460   11.6760 O.2    18  PHE18      -0.2718
     30  CB        51.4560    7.3480   14.7610 C.3    18  PHE18       0.0547
     31  CG        50.9720    8.1610   15.9180 C.ar   18  PHE18      -0.0202
     32  CD1       50.4110    9.4150   15.7090 C.ar   18  PHE18      -0.0042
     33  CD2       51.0460    7.6620   17.2130 C.ar   18  PHE18      -0.0042
     34  CE1       49.9360   10.1630   16.7790 C.ar   18  PHE18      -0.0003
     35  CE2       50.5780    8.4020   18.2870 C.ar   18  PHE18      -0.0003
     36  CZ        50.0170    9.6570   18.0710 C.ar   18  PHE18      -0.0000
     37  N         50.8090    5.0620   12.3670 N.am   19  GLY19      -0.1942
     38  CA        51.2860    4.4130   11.1700 C.3    19  GLY19       0.2014
     39  C         51.6380    2.9620   11.3950 C.2    19  GLY19       0.2639
     40  O         50.9660    2.2270   12.1410 O.2    19  GLY19      -0.2714
     41  N         52.7050    2.5500   10.7360 N.am   20  LYS20      -0.1963
     42  CA        53.0390    1.1460   10.6810 C.3    20  LYS20       0.1728
     43  C         54.5420    0.9790   10.6470 C.2    20  LYS20       0.2616
     44  O         55.2580    1.8460   10.1310 O.2    20  LYS20      -0.2715
     45  CB        52.3710    0.4870    9.4550 C.3    20  LYS20       0.0311
     46  CG        52.5240    1.2800    8.1310 C.3    20  LYS20       0.0038
     47  CD        51.3300    1.0710    7.1770 C.3    20  LYS20       0.0206
     48  CE        51.2590    2.1890    6.1180 C.3    20  LYS20       0.1093
     49  NZ        50.1860    1.9920    5.0710 N.3    20  LYS20      -0.1314
     50  N         55.0190   -0.1190   11.2220 N.am   21  VAL21      -0.1977
     51  CA        56.4170   -0.5110   11.0600 C.3    21  VAL21       0.1596
     52  C         56.4190   -1.7890   10.2380 C.2    21  VAL21       0.2287
     53  O         55.6970   -2.7330   10.5620 O.2    21  VAL21      -0.2864
     54  CB        57.1560   -0.7100   12.4160 C.3    21  VAL21       0.0276
     55  CG1       58.6110   -1.0560   12.1830 C.3    21  VAL21       0.0022
     56  CG2       57.0860    0.5420   13.2560 C.3    21  VAL21       0.0022
     57  N         63.9100   -2.1840    9.6990 N.3    34  ALA34      -0.1245
     58  CA        62.5540   -1.9280   10.1640 C.3    34  ALA34       0.1562
     59  C         62.1960   -0.5010    9.8050 C.2    34  ALA34       0.2260
     60  O         62.8100    0.4390   10.3110 O.2    34  ALA34      -0.2867
     61  CB        62.4510   -2.1520   11.6480 C.3    34  ALA34       0.0290
     62  N         59.7750    2.5450    9.9030 N.3    36  LYS36      -0.1245
     63  CA        58.6930    3.2070   10.5980 C.3    36  LYS36       0.1561
     64  C         58.1250    4.2340    9.6350 C.2    36  LYS36       0.2260
     65  O         58.8310    5.1600    9.1950 O.2    36  LYS36      -0.2867
     66  CB        59.1810    3.8490   11.9010 C.3    36  LYS36       0.0271
     67  CG        58.0600    4.2210   12.8830 C.3    36  LYS36       0.0035
     68  CD        58.5790    4.4030   14.3110 C.3    36  LYS36       0.0206
     69  CE        58.8750    5.8440   14.6600 C.3    36  LYS36       0.1093
     70  NZ        58.8560    5.9710   16.1520 N.3    36  LYS36      -0.1314
     71  N         55.1120    6.8980    9.0710 N.3    38  LEU38      -0.1245
     72  CA        54.2010    7.7520    9.8160 C.3    38  LEU38       0.1561
     73  C         53.3480    8.5730    8.8620 C.2    38  LEU38       0.2260
     74  O         53.8700    9.3650    8.0760 O.2    38  LEU38      -0.2867
     75  CB        54.9810    8.6660   10.7870 C.3    38  LEU38       0.0270
     76  CG        55.7090    8.0760   12.0100 C.3    38  LEU38       0.0019
     77  CD1       56.3730    9.1840   12.8110 C.3    38  LEU38       0.0001
     78  CD2       54.7980    7.2730   12.9040 C.3    38  LEU38       0.0001
     79  N         68.6820    1.6380   19.3010 N.3    68  THR68      -0.1218
     80  CA        68.3160    1.5680   17.8970 C.3    68  THR68       0.1862
     81  C         69.0410    2.6270   17.0470 C.2    68  THR68       0.2287
     82  O         69.0450    3.8310   17.3650 O.2    68  THR68      -0.2866
     83  CB        66.8070    1.7460   17.7870 C.3    68  THR68       0.1770
     84  OG1       66.1840    0.5100   18.1500 O.3    68  THR68      -0.2211
     85  CG2       66.3860    2.1480   16.3750 C.3    68  THR68       0.0375
     86  N         65.3000    1.9250   10.1430 N.3    84  MET84      -0.1230
     87  CA        66.1460    1.5700   11.2950 C.3    84  MET84       0.1702
     88  C         66.5790    0.1330   11.3460 C.2    84  MET84       0.2592
     89  O         65.9480   -0.7310   10.7470 O.2    84  MET84      -0.2718
     90  CB        65.4900    1.9870   12.6010 C.3    84  MET84       0.0401
     91  CG        65.7540    3.4470   12.8650 C.3    84  MET84       0.0596
     92  SD        64.5010    4.2350   13.8220 S.3    84  MET84      -0.1393
     93  CE        63.0550    3.2350   13.3990 C.3    84  MET84       0.0692
     94  N         67.6740   -0.1320   12.0490 N.am   85  GLU85      -0.1966
     95  CA        68.1530   -1.4970   12.1050 C.3    85  GLU85       0.1733
     96  C         67.1350   -2.3290   12.8680 C.2    85  GLU85       0.2616
     97  O         66.4640   -1.8350   13.7680 O.2    85  GLU85      -0.2715
     98  CB        69.6000   -1.6020   12.6070 C.3    85  GLU85       0.0429
     99  CG        69.8120   -1.9400   14.0620 C.3    85  GLU85       0.1163
    100  CD        71.1300   -1.3880   14.5630 C.2    85  GLU85       0.3649
    101  OE1       71.1480   -0.7920   15.6780 O.co2  85  GLU85      -0.2457
    102  OE2       72.1280   -1.5210   13.8100 O.co2  85  GLU85      -0.2457
    103  N         66.9840   -3.5710   12.4400 N.am   86  TYR86      -0.1960
    104  CA        65.8360   -4.3960   12.7770 C.3    86  TYR86       0.1771
    105  C         66.1640   -5.1330   14.0740 C.2    86  TYR86       0.2619
    106  O         67.2600   -5.6730   14.2230 O.2    86  TYR86      -0.2715
    107  CB        65.5490   -5.3380   11.5810 C.3    86  TYR86       0.0574
    108  CG        64.5650   -6.4740   11.7890 C.ar   86  TYR86      -0.0198
    109  CD1       63.2720   -6.2480   12.2620 C.ar   86  TYR86      -0.0009
    110  CD2       64.9180   -7.7870   11.4510 C.ar   86  TYR86      -0.0009
    111  CE1       62.3830   -7.3170   12.4430 C.ar   86  TYR86       0.0417
    112  CE2       64.0280   -8.8550   11.6120 C.ar   86  TYR86       0.0417
    113  CZ        62.7740   -8.6130   12.1130 C.ar   86  TYR86       0.1957
    114  OH        61.9100   -9.6670   12.2850 O.3    86  TYR86      -0.2866
    115  N         65.2300   -5.1060   15.0210 N.am   87  ALA87      -0.1977
    116  CA        65.3850   -5.8110   16.2740 C.3    87  ALA87       0.1597
    117  C         64.5380   -7.0770   16.2300 C.2    87  ALA87       0.2287
    118  O         63.4180   -7.1130   16.7380 O.2    87  ALA87      -0.2864
    119  CB        64.9830   -4.9200   17.4230 C.3    87  ALA87       0.0319
    120  N         59.8590   -7.4330   21.0800 N.3    91  GLU91      -0.1245
    121  CA        59.8180   -6.6010   22.2730 C.3    91  GLU91       0.1567
    122  C         60.0080   -7.4460   23.5060 C.2    91  GLU91       0.2260
    123  O         59.6060   -8.6090   23.5400 O.2    91  GLU91      -0.2867
    124  CB        58.4750   -5.9020   22.3910 C.3    91  GLU91       0.0388
    125  CG        58.2370   -4.8160   21.3980 C.3    91  GLU91       0.1160
    126  CD        56.8370   -4.2700   21.5180 C.2    91  GLU91       0.3649
    127  OE1       56.0460   -4.8320   22.3000 O.co2  91  GLU91      -0.2457
    128  OE2       56.5130   -3.2810   20.8400 O.co2  91  GLU91      -0.2457
    129  N         57.4350   -1.8770   26.6750 N.3   135  GLU135     -0.1231
    130  CA        57.0940   -1.7960   25.2400 C.3   135  GLU135      0.1699
    131  C         58.1990   -1.2030   24.3720 C.2   135  GLU135      0.2592
    132  O         58.3320   -1.5830   23.2120 O.2   135  GLU135     -0.2718
    133  CB        55.7880   -1.0390   25.0170 C.3   135  GLU135      0.0402
    134  CG        54.5920   -1.7530   25.6040 C.3   135  GLU135      0.1161
    135  CD        54.3180   -1.4930   27.1170 C.2   135  GLU135      0.3649
    136  OE1       53.1010   -1.4430   27.4250 O.co2 135  GLU135     -0.2457
    137  OE2       55.2500   -1.3840   27.9800 O.co2 135  GLU135     -0.2457
    138  N         58.9810   -0.2960   24.9450 N.am  136  ASN136     -0.1974
    139  CA        60.0900    0.3500   24.2700 C.3   136  ASN136      0.1688
    140  C         61.4400   -0.3810   24.4150 C.2   136  ASN136      0.2292
    141  O         62.4930    0.1680   24.0510 O.2   136  ASN136     -0.2864
    142  CB        60.2400    1.7830   24.7860 C.3   136  ASN136      0.1181
    143  CG        59.0740    2.6610   24.4240 C.2   136  ASN136      0.2629
    144  OD1       58.1080    2.2080   23.7980 O.2   136  ASN136     -0.2716
    145  ND2       59.1580    3.9420   24.8060 N.am  136  ASN136     -0.0877
    146  N         63.5410   -3.6590   23.1230 N.3   138  MET138     -0.1245
    147  CA        63.5090   -4.7380   22.1740 C.3   138  MET138      0.1570
    148  C         64.8110   -5.4930   22.2150 C.2   138  MET138      0.2261
    149  O         65.7630   -5.0400   22.8040 O.2   138  MET138     -0.2867
    150  CB        63.3030   -4.1690   20.7840 C.3   138  MET138      0.0387
    151  CG        62.2700   -3.0790   20.6880 C.3   138  MET138      0.0595
    152  SD        61.6270   -3.0170   19.0220 S.3   138  MET138     -0.1393
    153  CE        60.9320   -4.6570   18.7980 C.3   138  MET138      0.0692
    154  N         63.9370    1.5230   21.7120 N.3   148  THR148     -0.1203
    155  CA        63.3060    2.2520   20.6160 C.3   148  THR148      0.1994
    156  C         62.4540    3.3920   21.1230 C.2   148  THR148      0.2617
    157  O         62.1050    3.4370   22.3130 O.2   148  THR148     -0.2717
    158  CB        62.3030    1.3760   19.8430 C.3   148  THR148      0.1784
    159  OG1       61.4940    0.6530   20.7840 O.3   148  THR148     -0.2211
    160  CG2       63.0080    0.3970   18.9860 C.3   148  THR148      0.0376
    161  N         62.0710    4.2680   20.1870 N.am  149  ASP149     -0.1973
    162  CA        61.0530    5.3050   20.3720 C.3   149  ASP149      0.1709
    163  C         61.5450    6.4780   21.2160 C.2   149  ASP149      0.2293
    164  O         61.4850    6.4580   22.4500 O.2   149  ASP149     -0.2864
    165  CB        59.7990    4.7020   20.9630 C.3   149  ASP149      0.1436
    166  CG        58.5890    5.5030   20.6650 C.2   149  ASP149      0.3671
    167  OD1       58.7270    6.7270   20.3820 O.co2 149  ASP149     -0.2456
    168  OD2       57.4870    4.9030   20.7270 O.co2 149  ASP149     -0.2456
    169  N         56.9510  -11.3800   16.8130 N.3   294  PHE294     -0.1241
    170  CA        56.0000  -10.2830   16.6570 C.3   294  PHE294      0.1605
    171  C         54.6130  -10.8870   16.5520 C.2   294  PHE294      0.2264
    172  O         54.4270  -11.8830   15.8500 O.2   294  PHE294     -0.2867
    173  CB        56.3120   -9.4440   15.4100 C.3   294  PHE294      0.0534
    174  CG        57.6490   -8.7530   15.4520 C.ar  294  PHE294     -0.0203
    175  CD1       58.8250   -9.4540   15.2020 C.ar  294  PHE294     -0.0042
    176  CD2       57.7310   -7.3870   15.7280 C.ar  294  PHE294     -0.0042
    177  CE1       60.0650   -8.8070   15.2490 C.ar  294  PHE294     -0.0003
    178  CE2       58.9670   -6.7320   15.7660 C.ar  294  PHE294     -0.0003
    179  CZ        60.1320   -7.4430   15.5290 C.ar  294  PHE294     -0.0000
    180  N         49.7000   -8.9610   13.4960 N.3   298  PHE298     -0.1241
    181  CA        50.3170   -7.9890   12.6100 C.3   298  PHE298      0.1605
    182  C         51.0710   -8.6100   11.4450 C.2   298  PHE298      0.2264
    183  O         51.2010   -7.9760   10.4030 O.2   298  PHE298     -0.2867
    184  CB        51.2430   -7.0630   13.3950 C.3   298  PHE298      0.0534
    185  CG        50.5350   -6.2220   14.4210 C.ar  298  PHE298     -0.0203
    186  CD1       50.5550   -6.5780   15.7620 C.ar  298  PHE298     -0.0042
    187  CD2       49.8470   -5.0750   14.0450 C.ar  298  PHE298     -0.0042
    188  CE1       49.9040   -5.8010   16.7120 C.ar  298  PHE298     -0.0003
    189  CE2       49.1900   -4.2950   14.9890 C.ar  298  PHE298     -0.0003
    190  CZ        49.2220   -4.6530   16.3230 C.ar  298  PHE298     -0.0000
@<TRIPOS>BOND
     1    49    48    1
     2    48    47    1
     3    47    46    1
     4    74    73    2
     5    46    45    1
     6    73    72    1
     7    71    72    1
     8    65    64    2
     9    45    42    1
    10    21    20    1
    11    20    19    1
    12    64    63    1
    13    57    58    1
    14    59    58    1
    15    59    60    2
    16    72    75    1
    17    62    63    1
    18    44    43    2
    19    86    87    1
    20    58    61    1
    21    52    53    2
    22    52    51    1
    23   183   182    2
    24    63    66    1
    25    19    18    1
    26    43    42    1
    27    43    50   am
    28    42    41    1
    29    41    39   am
    30    89    88    2
    31    75    76    1
    32    51    50    1
    33    51    54    1
    34    38    39    1
    35    38    37    1
    36     1     2    1
    37    87    88    1
    38    87    90    1
    39    88    94   am
    40    18    17    1
    41    39    40    2
    42   182   181    1
    43   110   112   ar
    44   110   108   ar
    45     8     6    1
    46   107   108    1
    47   107   104    1
    48   112   113   ar
    49     6     7    1
    50     6     5    1
    51    29    28    2
    52   108   109   ar
    53    66    67    1
    54    76    77    1
    55    76    78    1
    56    94    95    1
    57    95    98    1
    58    95    96    1
    59   113   114    1
    60   113   111   ar
    61    55    54    1
    62   109   111   ar
    63    37    28   am
    64    54    56    1
    65   103   104    1
    66   103    96   am
    67     2     5    1
    68     2     3    1
    69    28    27    1
    70    12    11    2
    71    90    91    1
    72    17    14    1
    73    98    99    1
    74   181   184    1
    75   181   180    1
    76   104   105    1
    77    91    92    1
    78    96    97    2
    79    67    68    1
    80    14    13    1
    81    14    15    1
    82     9     3   am
    83     9    10    1
    84    11    13   am
    85    11    10    1
    86   184   185    1
    87    93    92    1
    88    25    24    2
    89     3     4    2
    90   102   100   ar
    91    27    26    1
    92    27    30    1
    93   187   185   ar
    94   187   189   ar
    95    99   100    1
    96   105   106    2
    97   105   115   am
    98    15    22   am
    99    15    16    2
   100    68    69    1
   101    22    23    1
   102   185   186   ar
   103   100   101   ar
   104    69    70    1
   105    24    23    1
   106    30    31    1
   107   189   190   ar
   108   115   116    1
   109   175   177   ar
   110   175   174   ar
   111   177   179   ar
   112   173   174    1
   113   173   170    1
   114   174   176   ar
   115   179   178   ar
   116    32    31   ar
   117    32    34   ar
   118   176   178   ar
   119   186   188   ar
   120   172   171    2
   121    31    33   ar
   122   117   116    1
   123   117   118    2
   124   116   119    1
   125   190   188   ar
   126    85    83    1
   127   171   170    1
   128   170   169    1
   129    34    36   ar
   130    81    82    2
   131    81    80    1
   132    33    35   ar
   133    83    80    1
   134    83    84    1
   135    80    79    1
   136    36    35   ar
   137   153   152    1
   138   160   158    1
   139   152   151    1
   140   158   155    1
   141   158   159    1
   142   161   162    1
   143   161   156   am
   144   162   165    1
   145   162   163    1
   146   167   166   ar
   147   155   156    1
   148   155   154    1
   149   166   168   ar
   150   166   165    1
   151   151   150    1
   152   150   147    1
   153   128   126   ar
   154   120   121    1
   155   156   157    2
   156   163   164    2
   157   125   126    1
   158   125   124    1
   159   126   127   ar
   160   147   148    1
   161   147   146    1
   162   148   149    2
   163   121   124    1
   164   121   122    1
   165   132   131    2
   166   122   123    2
   167   144   143    2
   168   141   140    2
   169   139   140    1
   170   139   142    1
   171   139   138    1
   172   131   138   am
   173   131   130    1
   174   143   142    1
   175   143   145   am
   176   133   130    1
   177   133   134    1
   178   130   129    1
   179   134   135    1
   180   135   136   ar
   181   135   137   ar
