@<TRIPOS>MOLECULE
tmp/3owaC03.pdb
 145 142 0 0 0
SMALL
GASTEIGER

@<TRIPOS>ATOM
      1  N        -29.6440  -50.3100   32.6390 N.3   278  TYR278     -0.1241
      2  CA       -28.7150  -50.5510   33.7390 C.3   278  TYR278      0.1605
      3  C        -29.2750  -51.6320   34.6770 C.2   278  TYR278      0.2264
      4  O        -28.5580  -52.5380   35.0770 O.2   278  TYR278     -0.2867
      5  CB       -28.3880  -49.2430   34.5240 C.3   278  TYR278      0.0534
      6  CG       -27.3220  -49.4530   35.5870 C.ar  278  TYR278     -0.0201
      7  CD1      -27.6750  -49.6630   36.9270 C.ar  278  TYR278     -0.0009
      8  CD2      -25.9720  -49.4810   35.2490 C.ar  278  TYR278     -0.0009
      9  CE1      -26.7140  -49.8950   37.9050 C.ar  278  TYR278      0.0417
     10  CE2      -24.9840  -49.7090   36.2260 C.ar  278  TYR278      0.0417
     11  CZ       -25.3810  -49.9130   37.5520 C.ar  278  TYR278      0.1957
     12  OH       -24.4420  -50.1850   38.5100 O.3   278  TYR278     -0.2866
     13  N        -26.9320  -54.7530   35.6690 N.3   282  ARG282     -0.1245
     14  CA       -26.2910  -54.7650   36.9920 C.3   282  ARG282      0.1563
     15  C        -26.7900  -55.9480   37.8190 C.2   282  ARG282      0.2260
     16  O        -27.9780  -56.0600   38.0350 O.2   282  ARG282     -0.2867
     17  CB       -26.5610  -53.4420   37.7400 C.3   282  ARG282      0.0307
     18  CG       -26.1660  -53.4620   39.1890 C.3   282  ARG282      0.0489
     19  CD       -24.6660  -53.7590   39.3730 C.3   282  ARG282      0.2205
     20  NE       -24.1790  -53.3630   40.6890 N.pl3 282  ARG282     -0.0865
     21  CZ       -22.9090  -53.4360   41.0870 C.cat 282  ARG282      0.5346
     22  NH1      -22.5760  -52.9920   42.3050 N.pl3 282  ARG282      0.1354
     23  NH2      -21.9810  -53.9930   40.2950 N.pl3 282  ARG282      0.1354
     24  N        -26.7210  -57.9270   41.6130 N.3   284  GLN284     -0.1231
     25  CA       -26.3600  -57.9930   43.0310 C.3   284  GLN284      0.1698
     26  C        -27.1170  -59.2040   43.5450 C.2   284  GLN284      0.2592
     27  O        -28.1830  -59.5430   43.0050 O.2   284  GLN284     -0.2718
     28  CB       -26.7620  -56.7360   43.8230 C.3   284  GLN284      0.0381
     29  CG       -25.8730  -55.5000   43.5900 C.3   284  GLN284      0.0905
     30  CD       -24.4620  -55.7080   44.0410 C.2   284  GLN284      0.2608
     31  OE1      -24.1450  -55.5650   45.2370 O.2   284  GLN284     -0.2717
     32  NE2      -23.5970  -56.0880   43.1100 N.am  284  GLN284     -0.0878
     33  N        -26.5660  -59.8680   44.5520 N.am  285  PHE285     -0.1976
     34  CA       -27.1890  -61.0760   45.1200 C.3   285  PHE285      0.1639
     35  C        -27.4720  -62.1230   44.0280 C.2   285  PHE285      0.2290
     36  O        -28.4940  -62.7660   44.0410 O.2   285  PHE285     -0.2864
     37  CB       -28.4650  -60.7130   45.9090 C.3   285  PHE285      0.0560
     38  CG       -28.2340  -59.6610   46.9570 C.ar  285  PHE285     -0.0200
     39  CD1      -28.5380  -58.3130   46.6930 C.ar  285  PHE285     -0.0042
     40  CD2      -27.7110  -60.0070   48.2090 C.ar  285  PHE285     -0.0042
     41  CE1      -28.3010  -57.3060   47.6710 C.ar  285  PHE285     -0.0003
     42  CE2      -27.4770  -58.9950   49.2120 C.ar  285  PHE285     -0.0003
     43  CZ       -27.7750  -57.6520   48.9290 C.ar  285  PHE285     -0.0000
     44  N        -30.6460  -56.6140   39.0880 N.3   289  ILE289     -0.1245
     45  CA       -31.4390  -55.8360   40.0700 C.3   289  ILE289      0.1561
     46  C        -32.8220  -55.5430   39.5250 C.2   289  ILE289      0.2260
     47  O        -33.7410  -55.2900   40.2870 O.2   289  ILE289     -0.2867
     48  CB       -30.7320  -54.5280   40.5190 C.3   289  ILE289      0.0252
     49  CG1      -30.5780  -53.5480   39.3450 C.3   289  ILE289      0.0019
     50  CG2      -29.3720  -54.8580   41.1900 C.3   289  ILE289      0.0019
     51  CD1      -29.9370  -52.1450   39.7750 C.3   289  ILE289      0.0001
     52  N        -35.5760  -57.1880   41.2910 N.3   292  PHE292     -0.1241
     53  CA       -36.0990  -56.7290   42.6000 C.3   292  PHE292      0.1605
     54  C        -37.3300  -55.8800   42.4610 C.2   292  PHE292      0.2264
     55  O        -37.3250  -54.9190   41.6950 O.2   292  PHE292     -0.2867
     56  CB       -35.0510  -55.9820   43.4310 C.3   292  PHE292      0.0534
     57  CG       -33.7880  -56.7580   43.6280 C.ar  292  PHE292     -0.0203
     58  CD1      -32.5590  -56.1780   43.3840 C.ar  292  PHE292     -0.0042
     59  CD2      -33.8410  -58.1020   44.0030 C.ar  292  PHE292     -0.0042
     60  CE1      -31.3820  -56.9220   43.5420 C.ar  292  PHE292     -0.0003
     61  CE2      -32.6720  -58.8500   44.1690 C.ar  292  PHE292     -0.0003
     62  CZ       -31.4370  -58.2560   43.9200 C.ar  292  PHE292     -0.0000
     63  N        -38.5240  -53.5280   44.1410 N.3   294  LEU294     -0.1231
     64  CA       -38.3670  -52.1140   44.4380 C.3   294  LEU294      0.1693
     65  C        -37.8150  -51.3930   43.2180 C.2   294  LEU294      0.2591
     66  O        -38.1510  -50.2530   42.9760 O.2   294  LEU294     -0.2718
     67  CB       -37.4080  -51.8810   45.6030 C.3   294  LEU294      0.0284
     68  CG       -37.9080  -52.1240   47.0350 C.3   294  LEU294      0.0019
     69  CD1      -36.9570  -51.4690   48.0430 C.3   294  LEU294      0.0001
     70  CD2      -39.3360  -51.6110   47.2140 C.3   294  LEU294      0.0001
     71  N        -36.9640  -52.0650   42.4640 N.am  295  ILE295     -0.1980
     72  CA       -36.4320  -51.5040   41.2230 C.3   295  ILE295      0.1595
     73  C        -37.5170  -51.4440   40.1650 C.2   295  ILE295      0.2287
     74  O        -37.6350  -50.4300   39.4380 O.2   295  ILE295     -0.2864
     75  CB       -35.1880  -52.2700   40.7790 C.3   295  ILE295      0.0276
     76  CG1      -34.0550  -52.0690   41.8290 C.3   295  ILE295      0.0022
     77  CG2      -34.7780  -51.9220   39.3310 C.3   295  ILE295      0.0022
     78  CD1      -33.5910  -50.5500   42.0500 C.3   295  ILE295      0.0001
     79  N        -39.8810  -48.3520   41.1030 N.3   298  LYS298     -0.1245
     80  CA       -39.2790  -47.1500   40.5590 C.3   298  LYS298      0.1561
     81  C        -39.5230  -46.9510   39.0300 C.2   298  LYS298      0.2260
     82  O        -40.0250  -45.9130   38.5900 O.2   298  LYS298     -0.2867
     83  CB       -37.7680  -47.1260   40.8520 C.3   298  LYS298      0.0271
     84  CG       -37.4410  -47.1000   42.3760 C.3   298  LYS298      0.0035
     85  CD       -35.9450  -47.0180   42.5710 C.3   298  LYS298      0.0206
     86  CE       -35.5490  -47.2830   44.0270 C.3   298  LYS298      0.1093
     87  NZ       -35.9710  -46.1760   44.9170 N.3   298  LYS298     -0.1314
     88  N        -30.8090  -43.2160   41.7540 N.3   367  GLN367     -0.1231
     89  CA       -30.9160  -44.2150   42.8390 C.3   367  GLN367      0.1698
     90  C        -30.7490  -45.6630   42.2890 C.2   367  GLN367      0.2592
     91  O        -30.0250  -46.5030   42.8530 O.2   367  GLN367     -0.2718
     92  CB       -32.2800  -44.1000   43.5270 C.3   367  GLN367      0.0381
     93  CG       -32.3120  -44.8150   44.8960 C.3   367  GLN367      0.0905
     94  CD       -31.4030  -44.0910   45.9130 C.2   367  GLN367      0.2608
     95  OE1      -30.9410  -43.0160   45.6290 O.2   367  GLN367     -0.2717
     96  NE2      -31.1340  -44.7010   47.0580 N.am  367  GLN367     -0.0878
     97  N        -31.4310  -45.9640   41.1920 N.am  368  ILE368     -0.1966
     98  CA       -31.2180  -47.2450   40.4960 C.3   368  ILE368      0.1727
     99  C        -29.7330  -47.5510   40.1990 C.2   368  ILE368      0.2616
    100  O        -29.3100  -48.7270   40.2800 O.2   368  ILE368     -0.2715
    101  CB       -32.0570  -47.3080   39.1930 C.3   368  ILE368      0.0290
    102  CG1      -33.5490  -47.3710   39.5550 C.3   368  ILE368      0.0022
    103  CG2      -31.6660  -48.5210   38.3280 C.3   368  ILE368      0.0023
    104  CD1      -34.5220  -47.0910   38.3790 C.3   368  ILE368      0.0001
    105  N        -28.9620  -46.5300   39.8250 N.am  369  HIS369     -0.1959
    106  CA       -27.5340  -46.7000   39.5450 C.3   369  HIS369      0.1787
    107  C        -26.6810  -46.8210   40.7970 C.2   369  HIS369      0.2621
    108  O        -25.5390  -47.2300   40.7280 O.2   369  HIS369     -0.2715
    109  CB       -26.9880  -45.5380   38.6870 C.3   369  HIS369      0.0785
    110  CG       -27.3660  -45.6110   37.2280 C.ar  369  HIS369      0.0821
    111  ND1      -28.6580  -45.4370   36.7710 N.ar  369  HIS369     -0.2267
    112  CD2      -26.5980  -45.7680   36.1270 C.ar  369  HIS369      0.1154
    113  CE1      -28.6790  -45.5500   35.4490 C.ar  369  HIS369      0.1986
    114  NE2      -27.4410  -45.7560   35.0320 N.ar  369  HIS369     -0.2212
    115  N        -27.2290  -46.4640   41.9470 N.am  370  GLY370     -0.1940
    116  CA       -26.4370  -46.4810   43.1760 C.3   370  GLY370      0.2014
    117  C        -25.2640  -45.5310   43.0700 C.2   370  GLY370      0.2639
    118  O        -25.3920  -44.4210   42.5250 O.2   370  GLY370     -0.2714
    119  N        -24.1210  -45.9360   43.6080 N.am  371  GLY371     -0.1939
    120  CA       -22.9230  -45.0610   43.6220 C.3   371  GLY371      0.2014
    121  C        -22.4980  -44.6040   42.2220 C.2   371  GLY371      0.2638
    122  O        -21.9370  -43.5270   42.0550 O.2   371  GLY371     -0.2714
    123  N        -22.8040  -45.3960   41.1910 N.am  372  TYR372     -0.1973
    124  CA       -22.4740  -45.0010   39.8230 C.3   372  TYR372      0.1639
    125  C        -23.2460  -43.7710   39.3800 C.2   372  TYR372      0.2290
    126  O        -22.7610  -43.0260   38.5080 O.2   372  TYR372     -0.2864
    127  CB       -22.7040  -46.1930   38.8180 C.3   372  TYR372      0.0560
    128  CG       -21.9250  -47.4180   39.2530 C.ar  372  TYR372     -0.0198
    129  CD1      -20.5650  -47.5780   38.9020 C.ar  372  TYR372     -0.0009
    130  CD2      -22.5270  -48.4110   40.0450 C.ar  372  TYR372     -0.0009
    131  CE1      -19.8140  -48.7150   39.3440 C.ar  372  TYR372      0.0417
    132  CE2      -21.7870  -49.5420   40.5030 C.ar  372  TYR372      0.0417
    133  CZ       -20.4320  -49.6900   40.1330 C.ar  372  TYR372      0.1957
    134  OH       -19.7240  -50.7740   40.6190 O.3   372  TYR372     -0.2866
    135  N        -23.6130  -41.2560   40.9730 N.3   374  PHE374     -0.1241
    136  CA       -23.0170  -40.0660   41.5900 C.3   374  PHE374      0.1605
    137  C        -21.6910  -39.8230   40.8830 C.2   374  PHE374      0.2264
    138  O        -20.9310  -38.9220   41.2720 O.2   374  PHE374     -0.2867
    139  CB       -22.8640  -40.3590   43.0800 C.3   374  PHE374      0.0534
    140  CG       -22.5080  -39.1670   43.9120 C.ar  374  PHE374     -0.0203
    141  CD1      -21.2180  -39.0410   44.4570 C.ar  374  PHE374     -0.0042
    142  CD2      -23.4770  -38.1940   44.2010 C.ar  374  PHE374     -0.0042
    143  CE1      -20.8890  -37.9370   45.3090 C.ar  374  PHE374     -0.0003
    144  CE2      -23.1460  -37.0530   45.0400 C.ar  374  PHE374     -0.0003
    145  CZ       -21.8430  -36.9550   45.5830 C.ar  374  PHE374     -0.0000
@<TRIPOS>BOND
     1     1     2    1
     2     2     5    1
     3     2     3    1
     4     5     6    1
     5     3     4    2
     6   114   113   ar
     7   114   112   ar
     8     8     6   ar
     9     8    10   ar
    10   113   111   ar
    11     6     7   ar
    12    13    14    1
    13   112   110   ar
    14    10    11   ar
    15   111   110   ar
    16     7     9   ar
    17    14    17    1
    18    14    15    1
    19   110   109    1
    20    11     9   ar
    21    11    12    1
    22    17    18    1
    23    15    16    2
    24   103   101    1
    25   104   102    1
    26   126   125    2
    27    82    81    2
    28   109   106    1
    29   127   128    1
    30   127   124    1
    31   129   128   ar
    32   129   131   ar
    33    81    80    1
    34    44    45    1
    35    18    19    1
    36   101   102    1
    37   101    98    1
    38   128   130   ar
    39    77    75    1
    40   131   133   ar
    41    49    51    1
    42    49    48    1
    43    19    20    1
    44   125   124    1
    45    74    73    2
    46    46    45    1
    47    46    47    2
    48   106   105    1
    49   106   107    1
    50   124   123    1
    51   105    99   am
    52   130   132   ar
    53    45    48    1
    54   133   132   ar
    55   133   134    1
    56    73    72    1
    57    99   100    2
    58    99    98    1
    59    23    21    1
    60    98    97    1
    61    48    50    1
    62    80    83    1
    63    80    79    1
    64    20    21    2
    65   108   107    2
    66    75    72    1
    67    75    76    1
    68   107   115   am
    69    83    84    1
    70   137   138    2
    71   137   136    1
    72   135   136    1
    73    21    22    1
    74   123   121   am
    75    97    90   am
    76    72    71    1
    77    52    53    1
    78   136   139    1
    79    24    25    1
    80    55    54    2
    81    88    89    1
    82    76    78    1
    83   115   116    1
    84   122   121    2
    85   121   120    1
    86    90    89    1
    87    90    91    2
    88    84    85    1
    89    54    53    1
    90    71    65   am
    91   118   117    2
    92    85    86    1
    93    53    56    1
    94    89    92    1
    95    66    65    2
    96    27    26    2
    97    25    26    1
    98    25    28    1
    99   117   116    1
   100   117   119   am
   101   139   140    1
   102    32    30   am
   103    65    64    1
   104    58    60   ar
   105    58    57   ar
   106    56    57    1
   107    92    93    1
   108    60    62   ar
   109    26    33   am
   110    29    28    1
   111    29    30    1
   112   119   120    1
   113    57    59   ar
   114   140   142   ar
   115   140   141   ar
   116    62    61   ar
   117    59    61   ar
   118    86    87    1
   119    35    36    2
   120    35    34    1
   121    30    31    2
   122    63    64    1
   123   142   144   ar
   124    64    67    1
   125   141   143   ar
   126    33    34    1
   127    93    94    1
   128   144   145   ar
   129    34    37    1
   130   143   145   ar
   131    67    68    1
   132    95    94    2
   133    37    38    1
   134    94    96   am
   135    39    38   ar
   136    39    41   ar
   137    38    40   ar
   138    68    70    1
   139    68    69    1
   140    41    43   ar
   141    40    42   ar
   142    43    42   ar
