@<TRIPOS>MOLECULE
tmp/3owaC01.pdb
 119 112 0 0 0
SMALL
GASTEIGER

@<TRIPOS>ATOM
      1  N        -43.1890  -46.2220   38.2470 N.3   301  ASN301     -0.1240
      2  CA       -43.5370  -44.8460   38.6210 C.3   301  ASN301      0.1653
      3  C        -42.9790  -43.8410   37.6080 C.2   301  ASN301      0.2266
      4  O        -43.6860  -42.9380   37.1790 O.2   301  ASN301     -0.2867
      5  CB       -42.9690  -44.4660   40.0110 C.3   301  ASN301      0.1155
      6  CG       -43.7160  -45.1250   41.1600 C.2   301  ASN301      0.2627
      7  OD1      -44.8650  -45.5360   41.0110 O.2   301  ASN301     -0.2716
      8  ND2      -43.0680  -45.2060   42.3290 N.am  301  ASN301     -0.0877
      9  N        -44.9800  -44.2100   34.2530 N.3   303  ALA303     -0.1231
     10  CA       -46.3760  -43.7390   34.3180 C.3   303  ALA303      0.1694
     11  C        -46.4670  -42.2240   34.3620 C.2   303  ALA303      0.2591
     12  O        -47.3360  -41.6480   33.7140 O.2   303  ALA303     -0.2718
     13  CB       -47.1840  -44.3950   35.5160 C.3   303  ALA303      0.0304
     14  N        -45.5770  -41.5810   35.1180 N.am  304  LYS304     -0.1980
     15  CA       -45.5250  -40.1290   35.1460 C.3   304  LYS304      0.1596
     16  C        -45.0970  -39.6110   33.7920 C.2   304  LYS304      0.2287
     17  O        -45.6310  -38.6010   33.3150 O.2   304  LYS304     -0.2864
     18  CB       -44.5380  -39.6060   36.2230 C.3   304  LYS304      0.0298
     19  CG       -44.9680  -39.9220   37.6780 C.3   304  LYS304      0.0038
     20  CD       -43.8090  -39.5180   38.6200 C.3   304  LYS304      0.0206
     21  CE       -44.0450  -39.9980   40.0370 C.3   304  LYS304      0.1093
     22  NZ       -45.1730  -39.2410   40.7010 N.3   304  LYS304     -0.1314
     23  N        -45.5110  -29.3440   35.4790 N.3   353  PHE353     -0.1241
     24  CA       -45.6570  -30.7890   35.5720 C.3   353  PHE353      0.1605
     25  C        -44.4770  -31.5210   34.9290 C.2   353  PHE353      0.2264
     26  O        -43.9770  -32.4850   35.4780 O.2   353  PHE353     -0.2867
     27  CB       -46.9780  -31.2280   34.8860 C.3   353  PHE353      0.0534
     28  CG       -47.3180  -32.6600   35.1010 C.ar  353  PHE353     -0.0203
     29  CD1      -47.8140  -33.0940   36.3220 C.ar  353  PHE353     -0.0042
     30  CD2      -47.1860  -33.6000   34.0650 C.ar  353  PHE353     -0.0042
     31  CE1      -48.1280  -34.4610   36.5210 C.ar  353  PHE353     -0.0003
     32  CE2      -47.5000  -34.9570   34.2720 C.ar  353  PHE353     -0.0003
     33  CZ       -47.9680  -35.3870   35.4780 C.ar  353  PHE353     -0.0000
     34  N        -41.2340  -31.2130   37.0600 N.3   356  GLU356     -0.1231
     35  CA       -41.3100  -32.0570   38.2850 C.3   356  GLU356      0.1699
     36  C        -41.3030  -33.5540   38.0000 C.2   356  GLU356      0.2592
     37  O        -40.6850  -34.3440   38.7230 O.2   356  GLU356     -0.2718
     38  CB       -42.5270  -31.6570   39.1220 C.3   356  GLU356      0.0402
     39  CG       -42.2680  -30.2690   39.6460 C.3   356  GLU356      0.1161
     40  CD       -43.1950  -29.8700   40.7290 C.2   356  GLU356      0.3649
     41  OE1      -44.3500  -30.3850   40.7630 O.co2 356  GLU356     -0.2457
     42  OE2      -42.7650  -29.0180   41.5530 O.co2 356  GLU356     -0.2457
     43  N        -41.9210  -33.9600   36.9080 N.am  357  VAL357     -0.1980
     44  CA       -41.7630  -35.3600   36.4960 C.3   357  VAL357      0.1595
     45  C        -40.3210  -35.7240   36.1710 C.2   357  VAL357      0.2287
     46  O        -39.8330  -36.7850   36.5870 O.2   357  VAL357     -0.2864
     47  CB       -42.6720  -35.6990   35.2730 C.3   357  VAL357      0.0276
     48  CG1      -42.2720  -37.0370   34.6850 C.3   357  VAL357      0.0022
     49  CG2      -44.1530  -35.8090   35.7640 C.3   357  VAL357      0.0022
     50  N        -38.2350  -36.0770   39.2680 N.3   360  TYR360     -0.1241
     51  CA       -38.4430  -37.3460   39.9490 C.3   360  TYR360      0.1605
     52  C        -37.7370  -38.4680   39.1920 C.2   360  TYR360      0.2264
     53  O        -37.0730  -39.3350   39.8070 O.2   360  TYR360     -0.2867
     54  CB       -39.9760  -37.6550   40.0470 C.3   360  TYR360      0.0534
     55  CG       -40.2430  -39.0920   40.5070 C.ar  360  TYR360     -0.0201
     56  CD1      -40.3200  -39.3950   41.8820 C.ar  360  TYR360     -0.0009
     57  CD2      -40.3560  -40.1410   39.5770 C.ar  360  TYR360     -0.0009
     58  CE1      -40.5070  -40.6800   42.3160 C.ar  360  TYR360      0.0417
     59  CE2      -40.5470  -41.4600   39.9990 C.ar  360  TYR360      0.0417
     60  CZ       -40.6280  -41.7110   41.3770 C.ar  360  TYR360      0.1957
     61  OH       -40.8090  -42.9900   41.8190 O.3   360  TYR360     -0.2866
     62  N        -52.8090  -31.7100   38.3070 N.3   480  ASN480     -0.1240
     63  CA       -53.0940  -33.1380   38.3230 C.3   480  ASN480      0.1653
     64  C        -54.3040  -33.5030   37.4620 C.2   480  ASN480      0.2266
     65  O        -54.2860  -34.5250   36.7330 O.2   480  ASN480     -0.2867
     66  CB       -53.3050  -33.6290   39.7660 C.3   480  ASN480      0.1155
     67  CG       -52.0030  -33.8920   40.4580 C.2   480  ASN480      0.2627
     68  OD1      -50.9490  -33.7370   39.8660 O.2   480  ASN480     -0.2716
     69  ND2      -52.0620  -34.2890   41.6850 N.am  480  ASN480     -0.0877
     70  N        -52.6840  -46.4920   37.1860 N.3   511  VAL511     -0.1231
     71  CA       -51.7670  -46.2620   38.2760 C.3   511  VAL511      0.1692
     72  C        -51.6060  -44.7500   38.4680 C.2   511  VAL511      0.2592
     73  O        -51.6040  -44.2820   39.6030 O.2   511  VAL511     -0.2718
     74  CB       -50.4110  -46.9510   37.9940 C.3   511  VAL511      0.0266
     75  CG1      -49.3230  -46.2820   38.6970 C.3   511  VAL511      0.0020
     76  CG2      -50.5170  -48.4480   38.3460 C.3   511  VAL511      0.0020
     77  N        -51.5050  -44.0020   37.3640 N.am  512  PHE512     -0.1976
     78  CA       -51.2930  -42.5530   37.4860 C.3   512  PHE512      0.1639
     79  C        -52.5020  -41.8830   38.1230 C.2   512  PHE512      0.2290
     80  O        -52.3480  -41.0820   39.0560 O.2   512  PHE512     -0.2864
     81  CB       -50.9870  -41.8510   36.1430 C.3   512  PHE512      0.0560
     82  CG       -50.8040  -40.3610   36.3000 C.ar  512  PHE512     -0.0200
     83  CD1      -49.6310  -39.8470   36.8360 C.ar  512  PHE512     -0.0042
     84  CD2      -51.8260  -39.4890   35.9840 C.ar  512  PHE512     -0.0042
     85  CE1      -49.4780  -38.4710   37.0510 C.ar  512  PHE512     -0.0003
     86  CE2      -51.6980  -38.1350   36.1620 C.ar  512  PHE512     -0.0003
     87  CZ       -50.5030  -37.6010   36.7100 C.ar  512  PHE512     -0.0000
     88  N        -52.9970  -42.2910   42.0100 N.3   515  GLU515     -0.1231
     89  CA       -52.1590  -41.4790   42.9030 C.3   515  GLU515      0.1699
     90  C        -52.3800  -39.9660   42.7280 C.2   515  GLU515      0.2592
     91  O        -52.3900  -39.2160   43.7190 O.2   515  GLU515     -0.2718
     92  CB       -50.6510  -41.8050   42.7790 C.3   515  GLU515      0.0402
     93  CG       -50.3260  -43.1280   42.0510 C.3   515  GLU515      0.1161
     94  CD       -50.0500  -44.3440   42.9810 C.2   515  GLU515      0.3649
     95  OE1      -48.8530  -44.7340   43.1370 O.co2 515  GLU515     -0.2457
     96  OE2      -51.0260  -44.9150   43.5320 O.co2 515  GLU515     -0.2457
     97  N        -52.5450  -39.5130   41.4870 N.am  516  ALA516     -0.1980
     98  CA       -52.8110  -38.1010   41.2210 C.3   516  ALA516      0.1597
     99  C        -54.1340  -37.6860   41.8940 C.2   516  ALA516      0.2287
    100  O        -54.2400  -36.6090   42.4760 O.2   516  ALA516     -0.2864
    101  CB       -52.8650  -37.8700   39.7110 C.3   516  ALA516      0.0319
    102  N        -53.6950  -37.1870   45.4580 N.3   519  GLU519     -0.1245
    103  CA       -53.0740  -35.8650   45.7100 C.3   519  GLU519      0.1567
    104  C        -54.0890  -34.7230   45.6380 C.2   519  GLU519      0.2260
    105  O        -54.0780  -33.7930   46.4670 O.2   519  GLU519     -0.2867
    106  CB       -51.9320  -35.5800   44.7230 C.3   519  GLU519      0.0388
    107  CG       -50.7300  -36.4460   44.9800 C.3   519  GLU519      0.1160
    108  CD       -49.6850  -36.3620   43.8670 C.2   519  GLU519      0.3649
    109  OE1      -49.7810  -35.4330   43.0080 O.co2 519  GLU519     -0.2457
    110  OE2      -48.7790  -37.2400   43.8610 O.co2 519  GLU519     -0.2457
    111  N        -47.9110  -52.2020   38.7610 N.3   556  LYS556     -0.1245
    112  CA       -46.5780  -51.6130   38.5500 C.3   556  LYS556      0.1561
    113  C        -45.6080  -52.6850   38.1140 C.2   556  LYS556      0.2260
    114  O        -44.7540  -52.4450   37.2450 O.2   556  LYS556     -0.2867
    115  CB       -46.0590  -50.8300   39.7720 C.3   556  LYS556      0.0271
    116  CG       -46.9080  -49.6230   40.0400 C.3   556  LYS556      0.0035
    117  CD       -46.4400  -48.8050   41.2530 C.3   556  LYS556      0.0206
    118  CE       -47.4040  -47.6630   41.4890 C.3   556  LYS556      0.1093
    119  NZ       -46.9540  -46.7290   42.6200 N.3   556  LYS556     -0.1314
@<TRIPOS>BOND
     1    17    16    2
     2    12    11    2
     3    16    15    1
     4    30    32   ar
     5    30    28   ar
     6     9    10    1
     7    32    33   ar
     8    10    11    1
     9    10    13    1
    10    11    14   am
    11    48    47    1
    12    27    28    1
    13    27    24    1
    14    25    26    2
    15    25    24    1
    16    28    29   ar
    17    14    15    1
    18    15    18    1
    19    47    49    1
    20    47    44    1
    21    33    31   ar
    22    23    24    1
    23    84    86   ar
    24    84    82   ar
    25    81    82    1
    26    81    78    1
    27    86    87   ar
    28    45    44    1
    29    45    46    2
    30    18    19    1
    31    82    83   ar
    32    29    31   ar
    33    44    43    1
    34    87    85   ar
    35    65    64    2
    36    83    85   ar
    37    43    36   am
    38    34    35    1
    39     4     3    2
    40    70    71    1
    41   114   113    2
    42    77    78    1
    43    77    72   am
    44    64    63    1
    45    78    79    1
    46     3     2    1
    47    19    20    1
    48    74    71    1
    49    74    76    1
    50    74    75    1
    51    36    35    1
    52    36    37    2
    53   113   112    1
    54    79    80    2
    55     1     2    1
    56    71    72    1
    57    35    38    1
    58    62    63    1
    59    63    66    1
    60    72    73    2
    61   112   111    1
    62   112   115    1
    63    20    21    1
    64     2     5    1
    65    38    39    1
    66    52    53    2
    67    52    51    1
    68    50    51    1
    69    57    59   ar
    70    57    55   ar
    71    39    40    1
    72   101    98    1
    73    66    67    1
    74   115   116    1
    75    68    67    2
    76    51    54    1
    77    59    60   ar
    78     5     6    1
    79    21    22    1
    80   116   117    1
    81    54    55    1
    82    67    69   am
    83    55    56   ar
    84    40    41   ar
    85    40    42   ar
    86     7     6    2
    87     6     8   am
    88    98    97    1
    89    98    99    1
    90   117   118    1
    91    60    61    1
    92    60    58   ar
    93    97    90   am
    94   118   119    1
    95    56    58   ar
    96    99   100    2
    97    88    89    1
    98    93    92    1
    99    93    94    1
   100    90    89    1
   101    90    91    2
   102    92    89    1
   103    94    95   ar
   104    94    96   ar
   105   109   108   ar
   106   110   108   ar
   107   108   107    1
   108   106   107    1
   109   106   103    1
   110   102   103    1
   111   104   103    1
   112   104   105    2
