@<TRIPOS>MOLECULE
tmp/3owaC00.pdb
 203 195 0 0 0
SMALL
GASTEIGER

@<TRIPOS>ATOM
      1  N        -37.2630  -18.5260   22.4200 N.3   110  ILE110     -0.1245
      2  CA       -37.3080  -17.2010   22.9560 C.3   110  ILE110      0.1561
      3  C        -36.4080  -16.2260   22.1870 C.2   110  ILE110      0.2260
      4  O        -36.6780  -15.0390   22.1550 O.2   110  ILE110     -0.2867
      5  CB       -37.0040  -17.2120   24.4850 C.3   110  ILE110      0.0252
      6  CG1      -35.5330  -17.6600   24.7280 C.3   110  ILE110      0.0019
      7  CG2      -37.9930  -18.1530   25.1470 C.3   110  ILE110      0.0019
      8  CD1      -35.0270  -17.6270   26.2230 C.3   110  ILE110      0.0001
      9  N        -31.9960  -14.1720   24.1600 N.3   140  TYR140     -0.1241
     10  CA       -33.1020  -13.3880   24.6400 C.3   140  TYR140      0.1605
     11  C        -32.6360  -12.8450   25.9550 C.2   140  TYR140      0.2264
     12  O        -32.2430  -13.6230   26.8420 O.2   140  TYR140     -0.2867
     13  CB       -34.2450  -14.3490   24.9320 C.3   140  TYR140      0.0534
     14  CG       -35.5430  -13.7650   25.4120 C.ar  140  TYR140     -0.0201
     15  CD1      -36.4430  -13.1880   24.5010 C.ar  140  TYR140     -0.0009
     16  CD2      -35.9250  -13.8730   26.7520 C.ar  140  TYR140     -0.0009
     17  CE1      -37.6610  -12.6790   24.9150 C.ar  140  TYR140      0.0417
     18  CE2      -37.1540  -13.3610   27.1950 C.ar  140  TYR140      0.0417
     19  CZ       -38.0130  -12.7580   26.2660 C.ar  140  TYR140      0.1957
     20  OH       -39.2370  -12.2520   26.6790 O.3   140  TYR140     -0.2866
     21  N        -33.7980  -10.6430   29.0510 N.3   142  LEU142     -0.1231
     22  CA       -34.8230  -10.0200   29.8890 C.3   142  LEU142      0.1693
     23  C        -34.3760   -9.8120   31.3250 C.2   142  LEU142      0.2593
     24  O        -34.5490   -8.7390   31.9200 O.2   142  LEU142     -0.2718
     25  CB       -36.0970  -10.8940   29.8610 C.3   142  LEU142      0.0284
     26  CG       -37.2780  -10.5100   30.7810 C.3   142  LEU142      0.0019
     27  CD1      -37.7440   -9.0570   30.5010 C.3   142  LEU142      0.0001
     28  CD2      -38.4380  -11.4800   30.5410 C.3   142  LEU142      0.0001
     29  N        -33.8370  -10.8670   31.9150 N.am  143  THR143     -0.1939
     30  CA       -33.4580  -10.8800   33.3140 C.3   143  THR143      0.2028
     31  C        -32.2890   -9.9540   33.6190 C.2   143  THR143      0.2642
     32  O        -31.4050   -9.7610   32.7750 O.2   143  THR143     -0.2714
     33  CB       -33.0230  -12.2950   33.6890 C.3   143  THR143      0.1808
     34  OG1      -34.1170  -13.1790   33.4000 O.3   143  THR143     -0.2208
     35  CG2      -32.6380  -12.3750   35.1920 C.3   143  THR143      0.0379
     36  N        -32.3460   -9.3470   34.8040 N.am  144  GLU144     -0.1963
     37  CA       -31.2480   -8.5420   35.3600 C.3   144  GLU144      0.1718
     38  C        -30.9250   -8.9680   36.7860 C.2   144  GLU144      0.2458
     39  O        -31.6810   -9.6970   37.4060 O.2   144  GLU144     -0.2730
     40  CB       -31.6310   -7.0530   35.3830 C.3   144  GLU144      0.0428
     41  CG       -32.0480   -6.5520   33.9810 C.3   144  GLU144      0.1163
     42  CD       -32.2180   -5.0590   33.8820 C.2   144  GLU144      0.3649
     43  OE1      -31.9080   -4.3290   34.8570 O.co2 144  GLU144     -0.2457
     44  OE2      -32.6370   -4.6220   32.7820 O.co2 144  GLU144     -0.2457
     45  N        -29.7960   -8.4970   37.3280 N.am  145  PRO145     -0.2727
     46  CA       -29.4770   -8.8610   38.7070 C.3   145  PRO145      0.1402
     47  C        -30.5850   -8.5080   39.6780 C.2   145  PRO145      0.2269
     48  O        -30.8380   -9.2790   40.5950 O.2   145  PRO145     -0.2865
     49  CB       -28.2420   -8.0160   39.0330 C.3   145  PRO145      0.0296
     50  CG       -27.5690   -7.8220   37.6720 C.3   145  PRO145      0.0237
     51  CD       -28.7340   -7.7160   36.6810 C.3   145  PRO145      0.0939
     52  N        -35.7400  -10.7070   38.3730 N.3   148  GLY148     -0.1210
     53  CA       -35.8450  -12.0440   37.8050 C.3   148  GLY148      0.1956
     54  C        -37.3040  -12.3890   37.6210 C.2   148  GLY148      0.2613
     55  O        -37.8640  -12.1500   36.5430 O.2   148  GLY148     -0.2717
     56  N        -37.9370  -12.9530   38.6520 N.am  149  SER149     -0.1938
     57  CA       -39.3940  -13.1740   38.6200 C.3   149  SER149      0.2055
     58  C        -40.1540  -11.8560   38.3180 C.2   149  SER149      0.2643
     59  O        -41.1760  -11.8480   37.6200 O.2   149  SER149     -0.2714
     60  CB       -39.8910  -13.7430   39.9630 C.3   149  SER149      0.2130
     61  OG       -39.2830  -15.0030   40.2080 O.3   149  SER149     -0.2179
     62  N        -39.6640  -10.7580   38.8860 N.am  150  ASP150     -0.1971
     63  CA       -40.2640   -9.4280   38.6520 C.3   150  ASP150      0.1709
     64  C        -39.6120   -8.8200   37.4070 C.2   150  ASP150      0.2293
     65  O        -38.8350   -7.8900   37.5030 O.2   150  ASP150     -0.2864
     66  CB       -40.0210   -8.5300   39.9000 C.3   150  ASP150      0.1436
     67  CG       -40.5670   -7.1120   39.7470 C.2   150  ASP150      0.3671
     68  OD1      -40.1260   -6.2450   40.5360 O.co2 150  ASP150     -0.2456
     69  OD2      -41.4320   -6.8690   38.8730 O.co2 150  ASP150     -0.2456
     70  N        -27.4880  -13.7860   33.0210 N.3   175  TRP175     -0.1227
     71  CA       -27.7590  -15.2200   32.6830 C.3   175  TRP175      0.1737
     72  C        -28.2820  -15.4260   31.2640 C.2   175  TRP175      0.2595
     73  O        -29.2960  -16.1350   31.0170 O.2   175  TRP175     -0.2718
     74  CB       -28.7230  -15.8960   33.6990 C.3   175  TRP175      0.0564
     75  CG       -28.1850  -16.0230   35.1380 C.ar  175  TRP175      0.0003
     76  CD1      -26.9080  -16.3190   35.4950 C.ar  175  TRP175      0.0946
     77  CD2      -28.9160  -15.8300   36.3860 C.ar  175  TRP175      0.0152
     78  NE1      -26.8020  -16.3610   36.8570 N.ar  175  TRP175     -0.2442
     79  CE2      -28.0170  -16.0750   37.4310 C.ar  175  TRP175      0.0810
     80  CE3      -30.2350  -15.4780   36.6980 C.ar  175  TRP175      0.0012
     81  CZ2      -28.3840  -15.9760   38.8080 C.ar  175  TRP175      0.0191
     82  CZ3      -30.6370  -15.4450   38.0590 C.ar  175  TRP175      0.0001
     83  CH2      -29.7070  -15.6460   39.0930 C.ar  175  TRP175      0.0015
     84  N        -27.6250  -14.7930   30.3110 N.am  176  ILE176     -0.1966
     85  CA       -28.1860  -14.7640   28.9840 C.3   176  ILE176      0.1727
     86  C        -27.6500  -15.9680   28.2220 C.2   176  ILE176      0.2616
     87  O        -26.4680  -16.0480   27.8980 O.2   176  ILE176     -0.2715
     88  CB       -27.8730  -13.4220   28.2580 C.3   176  ILE176      0.0290
     89  CG1      -28.5060  -12.2260   29.0340 C.3   176  ILE176      0.0022
     90  CG2      -28.4760  -13.4320   26.8650 C.3   176  ILE176      0.0023
     91  CD1      -29.9900  -12.5160   29.5430 C.3   176  ILE176      0.0001
     92  N        -28.5210  -16.9160   27.9700 N.am  177  THR177     -0.1951
     93  CA       -28.1230  -18.1360   27.2540 C.3   177  THR177      0.1897
     94  C        -27.6640  -17.7800   25.8390 C.2   177  THR177      0.2313
     95  O        -28.3270  -16.9320   25.1730 O.2   177  THR177     -0.2863
     96  CB       -29.3720  -19.1030   27.2000 C.3   177  THR177      0.1794
     97  OG1      -29.6940  -19.5300   28.5470 O.3   177  THR177     -0.2208
     98  CG2      -29.0710  -20.3270   26.3370 C.3   177  THR177      0.0378
     99  N        -21.7050  -23.0740   36.5320 N.3   216  LYS216     -0.1245
    100  CA       -23.0610  -23.5640   36.8650 C.3   216  LYS216      0.1561
    101  C        -23.0660  -24.9850   37.4040 C.2   216  LYS216      0.2260
    102  O        -22.1770  -25.7760   37.0790 O.2   216  LYS216     -0.2867
    103  CB       -23.9950  -23.5240   35.6320 C.3   216  LYS216      0.0271
    104  CG       -23.7930  -22.2830   34.7640 C.3   216  LYS216      0.0035
    105  CD       -24.8570  -22.0590   33.6970 C.3   216  LYS216      0.0206
    106  CE       -24.7000  -23.0120   32.4490 C.3   216  LYS216      0.1093
    107  NZ       -23.3590  -23.0010   31.8980 N.3   216  LYS216     -0.1314
    108  N        -26.1910  -28.1280   33.0230 N.3   218  ILE218     -0.1245
    109  CA       -26.1860  -27.6220   31.6280 C.3   218  ILE218      0.1561
    110  C        -24.9290  -26.8450   31.3430 C.2   218  ILE218      0.2260
    111  O        -24.9490  -25.7170   30.8080 O.2   218  ILE218     -0.2867
    112  CB       -27.4980  -26.8510   31.1980 C.3   218  ILE218      0.0252
    113  CG1      -27.7930  -25.6260   32.1100 C.3   218  ILE218      0.0019
    114  CG2      -28.7340  -27.8690   31.1680 C.3   218  ILE218      0.0019
    115  CD1      -28.7820  -24.5820   31.5100 C.3   218  ILE218      0.0001
    116  N        -23.5660  -19.0650   29.1210 N.3   223  THR223     -0.1218
    117  CA       -24.4150  -18.2380   29.9810 C.3   223  THR223      0.1862
    118  C        -23.5570  -17.0690   30.5050 C.2   223  THR223      0.2287
    119  O        -22.6130  -17.3100   31.2250 O.2   223  THR223     -0.2866
    120  CB       -24.8620  -19.0910   31.2350 C.3   223  THR223      0.1770
    121  OG1      -25.6060  -20.2480   30.7980 O.3   223  THR223     -0.2211
    122  CG2      -25.8320  -18.3110   32.1690 C.3   223  THR223      0.0375
    123  N        -32.3650  -26.8360   36.9710 N.3   387  ILE387     -0.1245
    124  CA       -32.6630  -25.5070   36.4860 C.3   387  ILE387      0.1561
    125  C        -34.0570  -25.4340   35.8850 C.2   387  ILE387      0.2260
    126  O        -34.6310  -24.3550   35.8280 O.2   387  ILE387     -0.2867
    127  CB       -31.5660  -24.9360   35.4920 C.3   387  ILE387      0.0252
    128  CG1      -31.7670  -23.4330   35.2510 C.3   387  ILE387      0.0019
    129  CG2      -31.5480  -25.7820   34.1570 C.3   387  ILE387      0.0019
    130  CD1      -31.7510  -22.6110   36.5880 C.3   387  ILE387      0.0001
    131  N        -36.7660  -23.5400   37.5590 N.3   390  ILE390     -0.1231
    132  CA       -36.4590  -22.1880   37.9400 C.3   390  ILE390      0.1692
    133  C        -36.5270  -21.2780   36.7400 C.2   390  ILE390      0.2592
    134  O        -37.1430  -20.2110   36.8000 O.2   390  ILE390     -0.2718
    135  CB       -35.0250  -22.1210   38.5700 C.3   390  ILE390      0.0266
    136  CG1      -35.0060  -22.7420   39.9770 C.3   390  ILE390      0.0019
    137  CG2      -34.5150  -20.6940   38.6300 C.3   390  ILE390      0.0020
    138  CD1      -33.6090  -22.9840   40.5020 C.3   390  ILE390      0.0001
    139  N        -35.8940  -21.6620   35.6150 N.am  391  PHE391     -0.1962
    140  CA       -35.9590  -20.7250   34.5040 C.3   391  PHE391      0.1771
    141  C        -37.2400  -20.8630   33.6710 C.2   391  PHE391      0.2619
    142  O        -38.0470  -21.7310   33.9460 O.2   391  PHE391     -0.2715
    143  CB       -34.6190  -20.5830   33.7270 C.3   391  PHE391      0.0574
    144  CG       -34.1830  -21.7930   32.9240 C.ar  391  PHE391     -0.0200
    145  CD1      -32.8860  -21.7870   32.3430 C.ar  391  PHE391     -0.0042
    146  CD2      -34.9920  -22.8960   32.7340 C.ar  391  PHE391     -0.0042
    147  CE1      -32.4060  -22.8670   31.6070 C.ar  391  PHE391     -0.0003
    148  CE2      -34.5310  -23.9800   31.9260 C.ar  391  PHE391     -0.0003
    149  CZ       -33.2590  -23.9720   31.3860 C.ar  391  PHE391     -0.0000
    150  N        -37.5010  -19.9370   32.7450 N.am  392  GLU392     -0.1963
    151  CA       -38.8610  -19.7790   32.1600 C.3   392  GLU392      0.1733
    152  C        -39.9470  -19.5040   33.1860 C.2   392  GLU392      0.2617
    153  O        -41.0840  -19.9970   33.0820 O.2   392  GLU392     -0.2715
    154  CB       -39.2810  -20.9760   31.2660 C.3   392  GLU392      0.0429
    155  CG       -38.2100  -21.3900   30.2760 C.3   392  GLU392      0.1163
    156  CD       -38.0650  -20.4380   29.1030 C.2   392  GLU392      0.3649
    157  OE1      -37.1050  -20.6300   28.2940 O.co2 392  GLU392     -0.2457
    158  OE2      -38.9000  -19.4930   28.9830 O.co2 392  GLU392     -0.2457
    159  N        -39.6400  -18.7190   34.2160 N.am  393  GLY393     -0.1940
    160  CA       -40.6470  -18.5610   35.2600 C.3   393  GLY393      0.2014
    161  C        -40.4140  -19.6540   36.3120 C.2   393  GLY393      0.2639
    162  O        -40.3800  -20.8300   35.9640 O.2   393  GLY393     -0.2714
    163  N        -40.2220  -19.3060   37.6000 N.am  394  THR394     -0.1950
    164  CA       -40.0020  -20.4060   38.5840 C.3   394  THR394      0.1897
    165  C        -41.3090  -21.1550   38.7080 C.2   394  THR394      0.2313
    166  O        -42.3670  -20.6380   38.3650 O.2   394  THR394     -0.2863
    167  CB       -39.7160  -19.9080   39.9840 C.3   394  THR394      0.1794
    168  OG1      -40.8310  -19.1420   40.3980 O.3   394  THR394     -0.2208
    169  CG2      -38.4380  -19.0230   40.0060 C.3   394  THR394      0.0378
    170  N        -42.9040  -21.6400   41.2560 N.3   396  GLU396     -0.1231
    171  CA       -43.8240  -20.9240   42.1630 C.3   396  GLU396      0.1699
    172  C        -44.6560  -19.9050   41.3780 C.2   396  GLU396      0.2592
    173  O        -45.8900  -19.8650   41.4850 O.2   396  GLU396     -0.2718
    174  CB       -43.0750  -20.2120   43.2860 C.3   396  GLU396      0.0402
    175  CG       -42.5040  -21.2170   44.3180 C.3   396  GLU396      0.1161
    176  CD       -41.3340  -22.0630   43.7780 C.2   396  GLU396      0.3649
    177  OE1      -41.2920  -23.2970   44.0960 O.co2 396  GLU396     -0.2457
    178  OE2      -40.4760  -21.4960   43.0150 O.co2 396  GLU396     -0.2457
    179  N        -43.9720  -19.0760   40.5960 N.am  397  ILE397     -0.1980
    180  CA       -44.6500  -18.0990   39.7690 C.3   397  ILE397      0.1595
    181  C        -45.5940  -18.7740   38.7670 C.2   397  ILE397      0.2287
    182  O        -46.7060  -18.2990   38.5510 O.2   397  ILE397     -0.2864
    183  CB       -43.6100  -17.2290   39.0290 C.3   397  ILE397      0.0276
    184  CG1      -42.8610  -16.3010   40.0200 C.3   397  ILE397      0.0022
    185  CG2      -44.2350  -16.4570   37.8960 C.3   397  ILE397      0.0022
    186  CD1      -43.7570  -15.2890   40.8130 C.3   397  ILE397      0.0001
    187  N        -48.6210  -19.7860   40.7030 N.3   400  LEU400     -0.1245
    188  CA       -49.4270  -18.6590   41.1830 C.3   400  LEU400      0.1561
    189  C        -50.3010  -18.0500   40.1050 C.2   400  LEU400      0.2260
    190  O        -51.4030  -17.6180   40.3900 O.2   400  LEU400     -0.2867
    191  CB       -48.5700  -17.5660   41.8420 C.3   400  LEU400      0.0270
    192  CG       -47.9800  -17.9360   43.1790 C.3   400  LEU400      0.0019
    193  CD1      -46.9020  -16.9010   43.5770 C.3   400  LEU400      0.0001
    194  CD2      -49.1180  -18.0490   44.2190 C.3   400  LEU400      0.0001
    195  N        -51.2700  -17.2560   49.0670 N.3   468  GLN468     -0.1245
    196  CA       -50.4680  -17.9980   48.0690 C.3   468  GLN468      0.1566
    197  C        -50.5210  -19.4820   48.2770 C.2   468  GLN468      0.2260
    198  O        -50.5660  -20.2040   47.2960 O.2   468  GLN468     -0.2867
    199  CB       -49.0250  -17.5210   48.0410 C.3   468  GLN468      0.0367
    200  CG       -48.8730  -16.0620   47.7060 C.3   468  GLN468      0.0905
    201  CD       -47.4000  -15.6850   47.4610 C.2   468  GLN468      0.2608
    202  OE1      -46.5190  -16.0860   48.2170 O.2   468  GLN468     -0.2717
    203  NE2      -47.1460  -14.9020   46.4060 N.am  468  GLN468     -0.0878
@<TRIPOS>BOND
     1     4     3    2
     2     3     2    1
     3     1     2    1
     4     2     5    1
     5     9    10    1
     6     5     6    1
     7     5     7    1
     8    15    17   ar
     9    15    14   ar
    10    10    13    1
    11    10    11    1
    12     6     8    1
    13    17    19   ar
    14    13    14    1
    15    95    94    2
    16    14    16   ar
    17    94    93    1
    18    11    12    2
    19    19    20    1
    20    19    18   ar
    21    98    96    1
    22    16    18   ar
    23    90    88    1
    24    96    93    1
    25    96    97    1
    26    93    92    1
    27    87    86    2
    28    92    86   am
    29    86    85    1
    30    88    85    1
    31    88    89    1
    32   157   156   ar
    33   158   156   ar
    34    85    84    1
    35    89    91    1
    36    21    22    1
    37   156   155    1
    38   116   117    1
    39    25    22    1
    40    25    26    1
    41    22    23    1
    42   117   118    1
    43   117   120    1
    44   155   154    1
    45    84    72   am
    46    27    26    1
    47   118   119    2
    48    28    26    1
    49   121   120    1
    50   111   110    2
    51    73    72    2
    52   114   112    1
    53   112   109    1
    54   112   113    1
    55   120   122    1
    56    72    71    1
    57   154   151    1
    58    23    29   am
    59    23    24    2
    60   110   109    1
    61   149   147   ar
    62   149   148   ar
    63   115   113    1
    64   147   145   ar
    65   109   108    1
    66   107   106    1
    67    29    30    1
    68   148   146   ar
    69   151   150    1
    70   151   152    1
    71   145   144   ar
    72   106   105    1
    73    71    70    1
    74    71    74    1
    75   146   144   ar
    76   150   141   am
    77    32    31    2
    78    44    42   ar
    79   144   143    1
    80   153   152    2
    81   152   159   am
    82    30    31    1
    83    30    33    1
    84    34    33    1
    85    31    36   am
    86   141   142    2
    87   141   140    1
    88    33    35    1
    89   105   104    1
    90    74    75    1
    91   143   140    1
    92    42    41    1
    93    42    43   ar
    94    41    40    1
    95   129   127    1
    96   159   160    1
    97   140   139    1
    98   104   103    1
    99    36    37    1
   100    75    76   ar
   101    75    77   ar
   102   128   127    1
   103   128   130    1
   104   160   161    1
   105    37    40    1
   106    37    38    1
   107   127   124    1
   108    76    78   ar
   109   139   133   am
   110   103   100    1
   111   126   125    2
   112   125   124    1
   113   162   161    2
   114   161   163   am
   115    77    80   ar
   116    77    79   ar
   117   124   123    1
   118    99   100    1
   119    55    54    2
   120    51    45    1
   121    51    50    1
   122    80    82   ar
   123   133   134    2
   124   133   132    1
   125    38    45   am
   126    38    39    2
   127    78    79   ar
   128   100   101    1
   129   102   101    2
   130    45    46    1
   131    64    65    2
   132    64    63    1
   133    79    81   ar
   134   131   132    1
   135   163   164    1
   136    59    58    2
   137    54    53    1
   138    54    56   am
   139    50    49    1
   140    53    52    1
   141   185   183    1
   142   132   135    1
   143    82    83   ar
   144    58    57    1
   145    58    62   am
   146   166   165    2
   147   182   181    2
   148   135   137    1
   149   135   136    1
   150   164   165    1
   151   164   167    1
   152    57    56    1
   153    57    60    1
   154    63    62    1
   155    63    66    1
   156    46    49    1
   157    46    47    1
   158   181   180    1
   159    81    83   ar
   160    69    67   ar
   161   183   180    1
   162   183   184    1
   163    47    48    2
   164    67    66    1
   165    67    68   ar
   166   180   179    1
   167    60    61    1
   168   136   138    1
   169   167   169    1
   170   167   168    1
   171   184   186    1
   172   189   190    2
   173   189   188    1
   174   179   172   am
   175   187   188    1
   176   188   191    1
   177   170   171    1
   178   172   173    2
   179   172   171    1
   180   191   192    1
   181   171   174    1
   182   178   176   ar
   183   192   193    1
   184   192   194    1
   185   174   175    1
   186   176   177   ar
   187   176   175    1
   188   203   201   am
   189   198   197    2
   190   201   200    1
   191   201   202    2
   192   200   199    1
   193   199   196    1
   194   196   197    1
   195   196   195    1
