@<TRIPOS>MOLECULE
tmp/3owcA00.pdb
 213 210 0 0 0
SMALL
GASTEIGER

@<TRIPOS>ATOM
      1  N         27.3260   -5.1710   35.8020 N.3    19  PHE19      -0.1241
      2  CA        26.1770   -5.6990   35.1170 C.3    19  PHE19       0.1605
      3  C         26.1930   -7.2220   35.1410 C.2    19  PHE19       0.2264
      4  O         27.0860   -7.8930   34.5600 O.2    19  PHE19      -0.2867
      5  CB        26.0910   -5.1610   33.6920 C.3    19  PHE19       0.0534
      6  CG        26.3420   -3.6800   33.5810 C.ar   19  PHE19      -0.0203
      7  CD1       25.2990   -2.7560   33.6890 C.ar   19  PHE19      -0.0042
      8  CD2       27.6080   -3.2200   33.3390 C.ar   19  PHE19      -0.0042
      9  CE1       25.5680   -1.4010   33.5850 C.ar   19  PHE19      -0.0003
     10  CE2       27.8710   -1.8920   33.2070 C.ar   19  PHE19      -0.0003
     11  CZ        26.8720   -0.9780   33.3320 C.ar   19  PHE19      -0.0000
     12  N         20.2010   -5.7660   32.7600 N.3    24  GLU24      -0.1245
     13  CA        20.8930   -4.6510   33.4090 C.3    24  GLU24       0.1567
     14  C         21.7620   -3.8780   32.4080 C.2    24  GLU24       0.2260
     15  O         21.8480   -2.6550   32.4750 O.2    24  GLU24      -0.2867
     16  CB        21.7780   -5.1660   34.5520 C.3    24  GLU24       0.0388
     17  CG        21.0110   -5.6030   35.7750 C.3    24  GLU24       0.1160
     18  CD        21.9150   -6.1250   36.8910 C.2    24  GLU24       0.3649
     19  OE1       23.1660   -6.1370   36.7500 O.co2  24  GLU24      -0.2457
     20  OE2       21.3410   -6.5530   37.9020 O.co2  24  GLU24      -0.2457
     21  N         19.1050   -1.7650   30.1820 N.3    27  GLN27      -0.1231
     22  CA        18.7250   -0.6090   30.9530 C.3    27  GLN27       0.1698
     23  C         19.8000    0.5100   30.8660 C.2    27  GLN27       0.2592
     24  O         19.4800    1.6690   30.6530 O.2    27  GLN27      -0.2718
     25  CB        18.3810   -1.0290   32.3960 C.3    27  GLN27       0.0381
     26  CG        18.1380    0.1690   33.4210 C.3    27  GLN27       0.0905
     27  CD        17.7560   -0.2840   34.8230 C.2    27  GLN27       0.2608
     28  OE1       17.2600   -1.3930   35.0090 O.2    27  GLN27      -0.2717
     29  NE2       17.9740    0.5830   35.8140 N.am   27  GLN27      -0.0878
     30  N         21.0650    0.1470   30.9870 N.am   28  TRP28      -0.1976
     31  CA        22.1240    1.0990   30.9800 C.3    28  TRP28       0.1640
     32  C         22.3920    1.6190   29.5720 C.2    28  TRP28       0.2290
     33  O         22.5910    2.8070   29.3940 O.2    28  TRP28      -0.2864
     34  CB        23.4050    0.4710   31.5670 C.3    28  TRP28       0.0576
     35  CG        24.6420    1.2090   31.3810 C.ar   28  TRP28       0.0006
     36  CD1       24.9590    2.4400   31.8880 C.ar   28  TRP28       0.0946
     37  CD2       25.8150    0.7290   30.7080 C.ar   28  TRP28       0.0152
     38  NE1       26.2560    2.7760   31.5200 N.ar   28  TRP28      -0.2442
     39  CE2       26.7950    1.7430   30.7930 C.ar   28  TRP28       0.0810
     40  CE3       26.1210   -0.4600   30.0130 C.ar   28  TRP28       0.0012
     41  CZ2       28.0540    1.6090   30.2170 C.ar   28  TRP28       0.0191
     42  CZ3       27.3780   -0.5930   29.4270 C.ar   28  TRP28       0.0001
     43  CH2       28.3500    0.4170   29.5750 C.ar   28  TRP28       0.0015
     44  N         24.4170    6.7910   29.4040 N.3    85  ARG85      -0.1231
     45  CA        25.1470    5.6760   29.9870 C.3    85  ARG85       0.1694
     46  C         25.6980    6.0190   31.3850 C.2    85  ARG85       0.2592
     47  O         26.7690    5.5830   31.7840 O.2    85  ARG85      -0.2718
     48  CB        26.2940    5.2230   29.0670 C.3    85  ARG85       0.0321
     49  CG        25.8340    4.2020   27.9890 C.3    85  ARG85       0.0489
     50  CD        24.9110    4.8530   26.9460 C.3    85  ARG85       0.2205
     51  NE        24.5790    3.9490   25.8450 N.pl3  85  ARG85      -0.0865
     52  CZ        25.3910    3.6060   24.8540 C.cat  85  ARG85       0.5346
     53  NH1       26.6590    4.0380   24.7940 N.pl3  85  ARG85       0.1354
     54  NH2       24.9640    2.7810   23.9130 N.pl3  85  ARG85       0.1354
     55  N         24.9030    6.7200   32.1600 N.am   86  ILE86      -0.1966
     56  CA        25.2650    7.0900   33.5220 C.3    86  ILE86       0.1727
     57  C         24.9890    5.8770   34.3950 C.2    86  ILE86       0.2616
     58  O         23.9080    5.2670   34.3020 O.2    86  ILE86      -0.2715
     59  CB        24.4100    8.2910   33.9730 C.3    86  ILE86       0.0290
     60  CG1       24.7350    9.5270   33.0760 C.3    86  ILE86       0.0022
     61  CG2       24.5920    8.5550   35.4290 C.3    86  ILE86       0.0023
     62  CD1       23.8100   10.7350   33.2700 C.3    86  ILE86       0.0001
     63  N         25.9800    5.4740   35.1900 N.am   87  VAL87      -0.1963
     64  CA        25.8420    4.3660   36.1400 C.3    87  VAL87       0.1727
     65  C         26.8210    4.5450   37.2710 C.2    87  VAL87       0.2616
     66  O         27.9330    5.0490   37.0810 O.2    87  VAL87      -0.2715
     67  CB        26.1150    3.0180   35.4340 C.3    87  VAL87       0.0290
     68  CG1       27.5070    2.9840   34.8250 C.3    87  VAL87       0.0023
     69  CG2       25.8300    1.8110   36.3300 C.3    87  VAL87       0.0023
     70  N         26.4110    4.0910   38.4430 N.am   88  LEU88      -0.1977
     71  CA        27.2680    3.9970   39.5720 C.3    88  LEU88       0.1596
     72  C         27.4310    2.5020   39.8410 C.2    88  LEU88       0.2287
     73  O         26.4410    1.7290   39.6370 O.2    88  LEU88      -0.2864
     74  CB        26.5720    4.6040   40.7780 C.3    88  LEU88       0.0297
     75  CG        26.6510    6.1150   40.9100 C.3    88  LEU88       0.0022
     76  CD1       25.8930    6.4780   42.1380 C.3    88  LEU88       0.0001
     77  CD2       28.1090    6.5890   41.0410 C.3    88  LEU88       0.0001
     78  N         28.0800    1.5840   45.2250 N.3    92  ALA92      -0.1231
     79  CA        28.2010    3.0110   45.4470 C.3    92  ALA92       0.1694
     80  C         26.8340    3.6570   45.4310 C.2    92  ALA92       0.2592
     81  O         26.7630    4.8600   45.6170 O.2    92  ALA92      -0.2718
     82  CB        29.1540    3.6960   44.3650 C.3    92  ALA92       0.0304
     83  N         25.7640    2.8770   45.1950 N.am   93  ARG93      -0.1966
     84  CA        24.4150    3.4280   45.0820 C.3    93  ARG93       0.1729
     85  C         23.8720    3.7460   46.4520 C.2    93  ARG93       0.2617
     86  O         24.3370    3.1850   47.4060 O.2    93  ARG93      -0.2715
     87  CB        23.4640    2.4700   44.3500 C.3    93  ARG93       0.0348
     88  CG        23.8720    2.3080   42.9490 C.3    93  ARG93       0.0492
     89  CD        23.0500    1.3590   42.1600 C.3    93  ARG93       0.2205
     90  NE        23.7960    1.0650   40.9470 N.pl3  93  ARG93      -0.0865
     91  CZ        23.5600    0.0610   40.1140 C.cat  93  ARG93       0.5346
     92  NH1       22.5720   -0.7900   40.3210 N.pl3  93  ARG93       0.1354
     93  NH2       24.3280   -0.0820   39.0500 N.pl3  93  ARG93       0.1354
     94  N         22.9130    4.6710   46.5350 N.am   94  GLY94      -0.1940
     95  CA        22.2340    4.9880   47.8160 C.3    94  GLY94       0.2014
     96  C         23.1090    5.7400   48.7900 C.2    94  GLY94       0.2639
     97  O         22.9250    5.6390   49.9960 O.2    94  GLY94      -0.2714
     98  N         24.0900    6.4860   48.2850 N.am   95  GLN95      -0.1963
     99  CA        25.0870    7.1640   49.1510 C.3    95  GLN95       0.1733
    100  C         25.2110    8.6530   48.7880 C.2    95  GLN95       0.2617
    101  O         26.2340    9.2850   49.0460 O.2    95  GLN95      -0.2715
    102  CB        26.4630    6.4710   49.0420 C.3    95  GLN95       0.0408
    103  CG        26.7060    5.3200   50.0330 C.3    95  GLN95       0.0908
    104  CD        27.7130    4.3040   49.5170 C.2    95  GLN95       0.2608
    105  OE1       28.9200    4.5840   49.3770 O.2    95  GLN95      -0.2717
    106  NE2       27.2330    3.1000   49.2670 N.am   95  GLN95      -0.0878
    107  N         24.1700    9.1930   48.1810 N.am   96  GLY96      -0.1940
    108  CA        24.2020   10.5290   47.5930 C.3    96  GLY96       0.2014
    109  C         25.4290   10.8100   46.7080 C.2    96  GLY96       0.2639
    110  O         25.9920   11.9140   46.7720 O.2    96  GLY96      -0.2714
    111  N         25.8480    9.8210   45.9110 N.am   97  LEU97      -0.1963
    112  CA        26.8980   10.0400   44.8940 C.3    97  LEU97       0.1728
    113  C         26.3090   10.3500   43.4870 C.2    97  LEU97       0.2616
    114  O         27.0360   10.8830   42.6110 O.2    97  LEU97      -0.2715
    115  CB        27.8540    8.8470   44.8260 C.3    97  LEU97       0.0311
    116  CG        28.7250    8.6840   46.0760 C.3    97  LEU97       0.0022
    117  CD1       29.4570    7.3450   46.1080 C.3    97  LEU97       0.0001
    118  CD2       29.7320    9.8240   46.1460 C.3    97  LEU97       0.0001
    119  N         25.0000   10.0850   43.3260 N.am   98  GLY98      -0.1955
    120  CA        24.2670   10.3670   42.0380 C.3    98  GLY98       0.1869
    121  C         24.3730   11.8110   41.6370 C.2    98  GLY98       0.2309
    122  O         24.8650   12.1240   40.5490 O.2    98  GLY98      -0.2863
    123  N         17.8390   11.0520   27.6070 N.3   120  ASN120     -0.1225
    124  CA        16.7210   10.1500   27.4920 C.3   120  ASN120      0.1785
    125  C         16.7580    9.2940   28.7180 C.2   120  ASN120      0.2597
    126  O         17.8600    8.8650   29.1120 O.2   120  ASN120     -0.2718
    127  CB        16.9420    9.2190   26.3220 C.3   120  ASN120      0.1169
    128  CG        16.8750    9.9400   25.0050 C.2   120  ASN120      0.2627
    129  OD1       16.0730   10.8550   24.8330 O.2   120  ASN120     -0.2716
    130  ND2       17.7450    9.5490   24.0820 N.am  120  ASN120     -0.0877
    131  N         15.6000    8.9720   29.2670 N.am  121  VAL121     -0.1966
    132  CA        15.4910    8.0580   30.3770 C.3   121  VAL121      0.1727
    133  C         14.2380    7.1790   30.2390 C.2   121  VAL121      0.2616
    134  O         13.1660    7.6640   29.8570 O.2   121  VAL121     -0.2715
    135  CB        15.5900    8.8040   31.8190 C.3   121  VAL121      0.0290
    136  CG1       14.4170    9.8410   32.0440 C.3   121  VAL121      0.0023
    137  CG2       15.5810    7.7500   32.9670 C.3   121  VAL121      0.0023
    138  N         14.3410    5.8540   30.4410 N.am  122  TYR122     -0.1974
    139  CA        13.1190    5.0550   30.3410 C.3   122  TYR122      0.1639
    140  C         12.1520    5.4700   31.4070 C.2   122  TYR122      0.2290
    141  O         12.5660    5.8550   32.5090 O.2   122  TYR122     -0.2864
    142  CB        13.3850    3.5200   30.3990 C.3   122  TYR122      0.0560
    143  CG        14.3130    3.0880   29.3170 C.ar  122  TYR122     -0.0198
    144  CD1       13.9420    3.2310   27.9590 C.ar  122  TYR122     -0.0009
    145  CD2       15.5480    2.5450   29.6190 C.ar  122  TYR122     -0.0009
    146  CE1       14.8250    2.8430   26.9420 C.ar  122  TYR122      0.0417
    147  CE2       16.4360    2.1540   28.6060 C.ar  122  TYR122      0.0417
    148  CZ        16.0560    2.3210   27.2790 C.ar  122  TYR122      0.1957
    149  OH        16.8470    1.9520   26.2690 O.3   122  TYR122     -0.2866
    150  N         12.3210    4.0550   34.9260 N.3   125  ASN125     -0.1225
    151  CA        13.5680    4.1520   35.6530 C.3   125  ASN125      0.1785
    152  C         13.4780    5.3120   36.6570 C.2   125  ASN125      0.2597
    153  O         13.9710    6.4260   36.4570 O.2   125  ASN125     -0.2718
    154  CB        14.7530    4.2580   34.7150 C.3   125  ASN125      0.1169
    155  CG        16.0560    3.9650   35.4410 C.2   125  ASN125      0.2627
    156  OD1       16.0670    4.0330   36.6850 O.2   125  ASN125     -0.2716
    157  ND2       17.1360    3.7120   34.7160 N.am  125  ASN125     -0.0877
    158  N         12.7250    5.0500   37.7160 N.am  126  ALA126     -0.1966
    159  CA        12.2930    6.0870   38.6780 C.3   126  ALA126      0.1728
    160  C         13.5090    6.7190   39.3800 C.2   126  ALA126      0.2616
    161  O         13.5700    7.9600   39.5610 O.2   126  ALA126     -0.2715
    162  CB        11.2670    5.4950   39.7150 C.3   126  ALA126      0.0334
    163  N         14.4850    5.8940   39.7460 N.am  127  ALA127     -0.1963
    164  CA        15.7190    6.3870   40.4160 C.3   127  ALA127      0.1728
    165  C         16.4330    7.4030   39.5500 C.2   127  ALA127      0.2616
    166  O         16.7940    8.5000   39.9870 O.2   127  ALA127     -0.2715
    167  CB        16.6350    5.2620   40.7150 C.3   127  ALA127      0.0334
    168  N         16.6530    7.0230   38.3060 N.am  128  ALA128     -0.1977
    169  CA        17.3080    7.8810   37.3450 C.3   128  ALA128      0.1597
    170  C         16.5090    9.1290   37.0600 C.2   128  ALA128      0.2287
    171  O         17.0030   10.2430   37.0940 O.2   128  ALA128     -0.2864
    172  CB        17.6450    7.1050   36.0430 C.3   128  ALA128      0.0319
    173  N         14.3160   10.6940   38.9350 N.3   130  HIS130     -0.1226
    174  CA        14.3370   11.6310   40.0700 C.3   130  HIS130      0.1752
    175  C         15.6960   12.3020   40.2020 C.2   130  HIS130      0.2596
    176  O         15.7910   13.4990   40.4500 O.2   130  HIS130     -0.2718
    177  CB        13.8830   10.9080   41.3730 C.3   130  HIS130      0.0759
    178  CG        14.0450   11.6990   42.6480 C.ar  130  HIS130      0.0818
    179  ND1       13.0860   12.5790   43.1270 N.ar  130  HIS130     -0.2268
    180  CD2       15.0440   11.7030   43.5680 C.ar  130  HIS130      0.1154
    181  CE1       13.5020   13.0980   44.2690 C.ar  130  HIS130      0.1986
    182  NE2       14.6750   12.5670   44.5720 N.ar  130  HIS130     -0.2212
    183  N         16.7480   11.5570   40.0120 N.am  131  LEU131     -0.1966
    184  CA        18.0940   12.1230   40.0720 C.3   131  LEU131      0.1728
    185  C         18.2440   13.2350   39.0170 C.2   131  LEU131      0.2616
    186  O         18.7350   14.3660   39.3300 O.2   131  LEU131     -0.2715
    187  CB        19.1260   11.0370   39.8810 C.3   131  LEU131      0.0311
    188  CG        20.5560   11.4710   39.6280 C.3   131  LEU131      0.0022
    189  CD1       21.1170   12.3050   40.8190 C.3   131  LEU131      0.0001
    190  CD2       21.5460   10.2640   39.2740 C.3   131  LEU131      0.0001
    191  N         17.8050   12.9500   37.8060 N.am  132  TYR132     -0.1974
    192  CA        17.8790   13.9420   36.7350 C.3   132  TYR132      0.1639
    193  C         17.1140   15.2310   37.0150 C.2   132  TYR132      0.2290
    194  O         17.6090   16.3210   36.7650 O.2   132  TYR132     -0.2864
    195  CB        17.4460   13.3390   35.3910 C.3   132  TYR132      0.0560
    196  CG        18.3060   12.1540   34.9160 C.ar  132  TYR132     -0.0198
    197  CD1       19.6590   12.0180   35.2650 C.ar  132  TYR132     -0.0009
    198  CD2       17.7510   11.1650   34.1160 C.ar  132  TYR132     -0.0009
    199  CE1       20.3800   10.9490   34.7940 C.ar  132  TYR132      0.0417
    200  CE2       18.4490   10.1150   33.6440 C.ar  132  TYR132      0.0417
    201  CZ        19.7620   10.0040   33.9800 C.ar  132  TYR132      0.1957
    202  OH        20.4600    8.9370   33.5000 O.3   132  TYR132     -0.2866
    203  N         16.3710   16.2690   40.0820 N.3   134  ARG134     -0.1245
    204  CA        17.1340   16.9630   41.1420 C.3   134  ARG134      0.1563
    205  C         18.3170   17.7550   40.6300 C.2   134  ARG134      0.2260
    206  O         18.6470   18.7740   41.1990 O.2   134  ARG134     -0.2867
    207  CB        17.6290   16.0010   42.2000 C.3   134  ARG134      0.0307
    208  CG        16.5160   15.4150   43.0110 C.3   134  ARG134      0.0489
    209  CD        17.1000   14.7770   44.2230 C.3   134  ARG134      0.2205
    210  NE        17.7250   15.7790   45.0860 N.pl3 134  ARG134     -0.0865
    211  CZ        18.8200   15.5790   45.8350 C.cat 134  ARG134      0.5346
    212  NH1       19.4620   14.4070   45.8090 N.pl3 134  ARG134      0.1354
    213  NH2       19.2990   16.5670   46.6000 N.pl3 134  ARG134      0.1354
@<TRIPOS>BOND
     1    54    52    1
     2   130   128   am
     3    53    52    1
     4   129   128    2
     5    52    51    2
     6   128   127    1
     7    51    50    1
     8   149   148    1
     9   127   124    1
    10   146   148   ar
    11   146   144   ar
    12    50    49    1
    13   148   147   ar
    14   124   123    1
    15   124   125    1
    16   144   143   ar
    17    49    48    1
    18   147   145   ar
    19   125   126    2
    20   125   131   am
    21    48    45    1
    22   131   132    1
    23   143   145   ar
    24   143   142    1
    25    33    32    2
    26    44    45    1
    27    42    43   ar
    28    42    40   ar
    29    32    31    1
    30    43    41   ar
    31   134   133    2
    32    45    46    1
    33    40    37   ar
    34    21    22    1
    35    41    39   ar
    36   133   132    1
    37   133   138   am
    38   139   142    1
    39   139   138    1
    40   139   140    1
    41   132   135    1
    42    24    23    2
    43    37    39   ar
    44    37    35   ar
    45    39    38   ar
    46    23    22    1
    47    23    30   am
    48    22    25    1
    49    31    30    1
    50    31    34    1
    51    35    34    1
    52    35    36   ar
    53    46    47    2
    54    46    55   am
    55   140   141    2
    56    38    36   ar
    57   135   136    1
    58   135   137    1
    59    55    56    1
    60    25    26    1
    61    14    15    2
    62    14    13    1
    63    12    13    1
    64    60    62    1
    65    60    59    1
    66    10    11   ar
    67    10     8   ar
    68    11     9   ar
    69     8     6   ar
    70    13    16    1
    71    26    27    1
    72   202   201    1
    73    56    59    1
    74    56    57    1
    75     6     7   ar
    76     6     5    1
    77     9     7   ar
    78   200   201   ar
    79   200   198   ar
    80     5     2    1
    81    59    61    1
    82   201   199   ar
    83   198   196   ar
    84    58    57    2
    85    57    63   am
    86    16    17    1
    87     4     3    2
    88   154   155    1
    89   154   151    1
    90   157   155   am
    91   199   197   ar
    92    27    28    2
    93    27    29   am
    94    68    67    1
    95   196   197   ar
    96   196   195    1
    97   150   151    1
    98     2     3    1
    99     2     1    1
   100    63    64    1
   101   195   192    1
   102    67    64    1
   103    67    69    1
   104   155   156    2
   105   151   152    1
   106    17    18    1
   107   172   169    1
   108    64    65    1
   109   153   152    2
   110   152   158   am
   111   192   193    1
   112   192   191    1
   113    19    18   ar
   114   194   193    2
   115    18    20   ar
   116   170   171    2
   117   170   169    1
   118    66    65    2
   119    65    70   am
   120   169   168    1
   121   158   159    1
   122   191   185   am
   123   168   165   am
   124    70    71    1
   125   159   160    1
   126   159   162    1
   127   173   174    1
   128   185   186    2
   129   185   184    1
   130    93    91    1
   131   190   188    1
   132   160   161    2
   133   160   163   am
   134   165   166    2
   135   165   164    1
   136    71    72    1
   137    71    74    1
   138   188   187    1
   139   188   189    1
   140    73    72    2
   141   163   164    1
   142   187   184    1
   143   183   184    1
   144   183   175   am
   145   174   175    1
   146   174   177    1
   147   203   204    1
   148    91    92    1
   149    91    90    2
   150   175   176    2
   151   164   167    1
   152   122   121    2
   153   205   204    1
   154   205   206    2
   155    74    75    1
   156    75    77    1
   157    75    76    1
   158    90    89    1
   159   204   207    1
   160   177   178    1
   161   121   120    1
   162   120   119    1
   163    89    88    1
   164   207   208    1
   165   114   113    2
   166   178   179   ar
   167   178   180   ar
   168    88    87    1
   169   208   209    1
   170   179   181   ar
   171   119   113   am
   172   113   112    1
   173   180   182   ar
   174   209   210    1
   175   181   182   ar
   176    87    84    1
   177    82    79    1
   178   115   112    1
   179   115   116    1
   180   112   111    1
   181    84    83    1
   182    84    85    1
   183   210   211    2
   184    83    80   am
   185    78    79    1
   186    80    79    1
   187    80    81    2
   188   212   211    1
   189   211   213    1
   190   111   109   am
   191   116   117    1
   192   116   118    1
   193    85    94   am
   194    85    86    2
   195    94    95    1
   196   109   110    2
   197   109   108    1
   198   108   107    1
   199    95    96    1
   200   107   100   am
   201    98    96   am
   202    98    99    1
   203   100   101    2
   204   100    99    1
   205    96    97    2
   206   102    99    1
   207   102   103    1
   208   106   104   am
   209   105   104    2
   210   104   103    1
