@<TRIPOS>MOLECULE
tmp/3owdA00.pdb
 140 127 0 0 0
SMALL
GASTEIGER

@<TRIPOS>ATOM
      1  N          0.7540   10.4860   31.9930 N.3    32  LEU32      -0.1245
      2  CA         1.3040   11.0370   30.7450 C.3    32  LEU32       0.1561
      3  C          2.5520   10.2640   30.3350 C.2    32  LEU32       0.2260
      4  O          2.7610    9.9870   29.1410 O.2    32  LEU32      -0.2867
      5  CB         1.5860   12.5350   30.8970 C.3    32  LEU32       0.0270
      6  CG         0.2660   13.3080   31.1150 C.3    32  LEU32       0.0019
      7  CD1        0.6230   14.8020   31.3670 C.3    32  LEU32       0.0001
      8  CD2       -0.7000   13.2130   29.8840 C.3    32  LEU32       0.0001
      9  N          1.4140    7.0630   28.6830 N.3    35  ASN35      -0.1225
     10  CA         1.0420    7.2710   27.2830 C.3    35  ASN35       0.1785
     11  C          2.2830    7.4260   26.3890 C.2    35  ASN35       0.2597
     12  O          2.3460    6.8430   25.3140 O.2    35  ASN35      -0.2718
     13  CB         0.1490    8.4960   27.1450 C.3    35  ASN35       0.1169
     14  CG        -1.2880    8.2020   27.5760 C.2    35  ASN35       0.2627
     15  OD1       -1.6350    7.0570   27.9230 O.2    35  ASN35      -0.2716
     16  ND2       -2.1560    9.1940   27.4440 N.am   35  ASN35      -0.0877
     17  N          3.2910    8.1390   26.8750 N.am   36  SER36      -0.1952
     18  CA         4.5370    8.3120   26.1130 C.3    36  SER36       0.1924
     19  C          5.2090    6.9430   25.9110 C.2    36  SER36       0.2314
     20  O          5.6780    6.6140   24.8180 O.2    36  SER36      -0.2863
     21  CB         5.4820    9.2540   26.8670 C.3    36  SER36       0.2116
     22  OG         5.0160   10.6120   26.8240 O.3    36  SER36      -0.2180
     23  N          3.7670    4.0410   25.7740 N.3    38  ASP38      -0.1225
     24  CA         3.0020    3.3050   24.7570 C.3    38  ASP38       0.1805
     25  C          3.4010    3.8040   23.3520 C.2    38  ASP38       0.2597
     26  O          3.5220    3.0140   22.4060 O.2    38  ASP38      -0.2718
     27  CB         1.5040    3.5170   24.9620 C.3    38  ASP38       0.1424
     28  CG         0.9700    2.8500   26.2400 C.2    38  ASP38       0.3668
     29  OD1        1.7120    2.0890   26.9040 O.co2  38  ASP38      -0.2456
     30  OD2       -0.2290    3.0700   26.5720 O.co2  38  ASP38      -0.2456
     31  N          3.5000    5.1210   23.1840 N.am   39  ALA39      -0.1979
     32  CA         3.8630    5.6740   21.8670 C.3    39  ALA39       0.1597
     33  C          5.2700    5.2590   21.4230 C.2    39  ALA39       0.2287
     34  O          5.5030    4.9990   20.2420 O.2    39  ALA39      -0.2864
     35  CB         3.7230    7.2020   21.8480 C.3    39  ALA39       0.0319
     36  N          5.2410    1.6820   20.3580 N.3    42  LYS42      -0.1245
     37  CA         4.6670    1.5290   19.0400 C.3    42  LYS42       0.1561
     38  C          5.6620    1.8650   17.9150 C.2    42  LYS42       0.2260
     39  O          5.7760    1.1020   16.9360 O.2    42  LYS42      -0.2867
     40  CB         3.3750    2.3180   18.8870 C.3    42  LYS42       0.0271
     41  CG         2.6870    1.9860   17.5670 C.3    42  LYS42       0.0035
     42  CD         1.2300    2.3930   17.5750 C.3    42  LYS42       0.0206
     43  CE         0.5600    1.9860   16.2660 C.3    42  LYS42       0.1093
     44  NZ        -0.8840    2.3370   16.3000 N.3    42  LYS42      -0.1314
     45  N          5.8830   17.5350   28.8020 N.3    75  ILE75      -0.1245
     46  CA         6.3460   16.1350   28.7380 C.3    75  ILE75       0.1561
     47  C          6.5670   15.8430   27.2710 C.2    75  ILE75       0.2260
     48  O          5.6100   15.9310   26.4890 O.2    75  ILE75      -0.2867
     49  CB         5.3100   15.1780   29.3210 C.3    75  ILE75       0.0252
     50  CG1        5.1160   15.4430   30.8310 C.3    75  ILE75       0.0019
     51  CG2        5.7500   13.7010   29.1010 C.3    75  ILE75       0.0019
     52  CD1        4.1020   16.5030   31.1370 C.3    75  ILE75       0.0001
     53  N          8.0020   13.3180   24.1690 N.3    77  ASP77      -0.1239
     54  CA         8.4890   11.9590   23.8700 C.3    77  ASP77       0.1674
     55  C          8.7230   11.8890   22.3650 C.2    77  ASP77       0.2266
     56  O          8.1820   12.6890   21.5890 O.2    77  ASP77      -0.2867
     57  CB         7.5260   10.8380   24.3330 C.3    77  ASP77       0.1410
     58  CG         6.2170   10.8170   23.5390 C.2    77  ASP77       0.3668
     59  OD1        6.2620   10.5390   22.3320 O.co2  77  ASP77      -0.2456
     60  OD2        5.1440   11.0750   24.1270 O.co2  77  ASP77      -0.2456
     61  N          5.5960    7.3910   18.3610 N.3    80  ILE80      -0.1231
     62  CA         5.0030    7.3870   17.0240 C.3    80  ILE80       0.1692
     63  C          4.2570    8.6650   16.6440 C.2    80  ILE80       0.2593
     64  O          4.0530    8.9230   15.4400 O.2    80  ILE80      -0.2718
     65  CB         4.0760    6.1590   16.8620 C.3    80  ILE80       0.0266
     66  CG1        3.6790    5.9640   15.4050 C.3    80  ILE80       0.0019
     67  CG2        2.8070    6.3350   17.7590 C.3    80  ILE80       0.0020
     68  CD1        3.1050    4.5690   15.1170 C.3    80  ILE80       0.0001
     69  N          3.8270    9.4450   17.6410 N.am   81  GLY81      -0.1942
     70  CA         3.1090   10.6790   17.3290 C.3    81  GLY81       0.2014
     71  C          1.6780   10.3910   16.8990 C.2    81  GLY81       0.2638
     72  O          1.1930    9.2420   16.9430 O.2    81  GLY81      -0.2714
     73  N          0.9900   11.4580   16.5050 N.am   82  MET82      -0.1976
     74  CA        -0.4030   11.3790   16.0920 C.3    82  MET82       0.1605
     75  C         -0.6230   12.2030   14.8370 C.2    82  MET82       0.2287
     76  O         -0.1840   13.3480   14.7650 O.2    82  MET82      -0.2864
     77  CB        -1.3200   11.9500   17.2020 C.3    82  MET82       0.0413
     78  CG        -1.4330   10.9810   18.4000 C.3    82  MET82       0.0598
     79  SD        -2.4120   11.6330   19.7930 S.3    82  MET82      -0.1393
     80  CE        -1.2480   12.7590   20.5300 C.3    82  MET82       0.0692
     81  N         -5.7470   11.1370   14.1070 N.3    86  ASP86      -0.1239
     82  CA        -5.4890   10.4690   15.3940 C.3    86  ASP86       0.1674
     83  C         -5.8360   11.4010   16.5560 C.2    86  ASP86       0.2266
     84  O         -6.3670   10.9410   17.5710 O.2    86  ASP86      -0.2867
     85  CB        -4.0110   10.0400   15.5400 C.3    86  ASP86       0.1410
     86  CG        -3.6220    8.9030   14.6130 C.2    86  ASP86       0.3668
     87  OD1       -4.5070    8.1450   14.1290 O.co2  86  ASP86      -0.2456
     88  OD2       -2.4040    8.8190   14.3100 O.co2  86  ASP86      -0.2456
     89  N         -8.7700   10.1560   18.9600 N.3    90  ASN90      -0.1225
     90  CA        -8.2970    9.6400   20.2420 C.3    90  ASN90       0.1785
     91  C         -8.2840   10.5980   21.4110 C.2    90  ASN90       0.2597
     92  O         -8.1840   10.1640   22.5560 O.2    90  ASN90      -0.2718
     93  CB        -6.9150    8.9870   20.0350 C.3    90  ASN90       0.1169
     94  CG        -6.9880    7.8000   19.0780 C.2    90  ASN90       0.2627
     95  OD1       -7.3650    6.7000   19.4880 O.2    90  ASN90      -0.2716
     96  ND2       -6.7690    8.0380   17.7830 N.am   90  ASN90      -0.0877
     97  N         -8.3700   11.9060   21.1290 N.am   91  LEU91      -0.1980
     98  CA        -8.3140   12.9170   22.1640 C.3    91  LEU91       0.1596
     99  C         -9.5800   13.7430   22.2280 C.2    91  LEU91       0.2287
    100  O         -9.5460   14.9530   22.4660 O.2    91  LEU91      -0.2864
    101  CB        -7.0640   13.8230   22.0680 C.3    91  LEU91       0.0297
    102  CG        -5.7170   13.1440   22.3500 C.3    91  LEU91       0.0022
    103  CD1       -4.6570   14.2720   22.4900 C.3    91  LEU91       0.0001
    104  CD2       -5.7740   12.2480   23.6330 C.3    91  LEU91       0.0001
    105  N         -7.9020    3.3710   30.4200 N.3   119  GLY119     -0.1225
    106  CA        -7.4000    3.8570   29.1480 C.3   119  GLY119      0.1811
    107  C         -7.7470    5.3030   28.8280 C.2   119  GLY119      0.2280
    108  O         -7.6830    5.6940   27.6530 O.2   119  GLY119     -0.2866
    109  N         -4.9650   10.2920   29.9290 N.3   122  PHE122     -0.1241
    110  CA        -4.5520   11.6110   29.4480 C.3   122  PHE122      0.1605
    111  C         -5.2880   12.7040   30.1980 C.2   122  PHE122      0.2264
    112  O         -4.7010   13.7400   30.5430 O.2   122  PHE122     -0.2867
    113  CB        -4.9100   11.7430   27.9630 C.3   122  PHE122      0.0534
    114  CG        -4.8550   13.1660   27.4570 C.ar  122  PHE122     -0.0203
    115  CD1       -3.6390   13.8150   27.3010 C.ar  122  PHE122     -0.0042
    116  CD2       -6.0300   13.8380   27.1440 C.ar  122  PHE122     -0.0042
    117  CE1       -3.5850   15.1250   26.8890 C.ar  122  PHE122     -0.0003
    118  CE2       -5.9960   15.1580   26.7070 C.ar  122  PHE122     -0.0003
    119  CZ        -4.7670   15.8000   26.5730 C.ar  122  PHE122     -0.0000
    120  N         -1.2470   20.0490   23.1410 N.3   134  VAL134     -0.1245
    121  CA        -0.5700   18.8320   22.6980 C.3   134  VAL134      0.1561
    122  C         -0.0380   19.1120   21.2930 C.2   134  VAL134      0.2260
    123  O         -0.8260   19.3330   20.3590 O.2   134  VAL134     -0.2867
    124  CB        -1.5160   17.6070   22.6860 C.3   134  VAL134      0.0252
    125  CG1       -0.7510   16.3770   22.1410 C.3   134  VAL134      0.0019
    126  CG2       -2.1000   17.3310   24.0920 C.3   134  VAL134      0.0019
    127  N          5.4080   13.5220   20.4280 N.3   168  THR168     -0.1218
    128  CA         4.3440   14.3190   21.0350 C.3   168  THR168      0.1862
    129  C          4.8870   15.1100   22.2170 C.2   168  THR168      0.2287
    130  O          5.6840   14.5900   23.0220 O.2   168  THR168     -0.2866
    131  CB         3.2190   13.3620   21.4570 C.3   168  THR168      0.1770
    132  OG1        2.5840   12.8330   20.2680 O.3   168  THR168     -0.2211
    133  CG2        2.1700   14.0820   22.3790 C.3   168  THR168      0.0375
    134  N          3.3580   17.3530   25.4220 N.3   170  VAL170     -0.1245
    135  CA         2.1670   17.7440   26.1660 C.3   170  VAL170      0.1561
    136  C          2.5860   18.9080   27.0370 C.2   170  VAL170      0.2260
    137  O          3.4310   18.7400   27.9300 O.2   170  VAL170     -0.2867
    138  CB         1.6330   16.5860   27.0280 C.3   170  VAL170      0.0252
    139  CG1        0.4460   17.1180   27.9040 C.3   170  VAL170      0.0019
    140  CG2        1.1380   15.4070   26.1270 C.3   170  VAL170      0.0019
@<TRIPOS>BOND
     1    81    82    1
     2    87    86   ar
     3    88    86   ar
     4    86    85    1
     5    76    75    2
     6    75    74    1
     7    68    66    1
     8    82    85    1
     9    82    83    1
    10    66    65    1
    11    64    63    2
    12    74    73    1
    13    74    77    1
    14    43    44    1
    15    43    42    1
    16    73    71   am
    17    83    84    2
    18    63    62    1
    19    63    69   am
    20    65    62    1
    21    65    67    1
    22    71    72    2
    23    71    70    1
    24    39    38    2
    25    62    61    1
    26    77    78    1
    27    70    69    1
    28    41    42    1
    29    41    40    1
    30    96    94   am
    31    38    37    1
    32    78    79    1
    33    40    37    1
    34    89    90    1
    35    37    36    1
    36    94    95    2
    37    94    93    1
    38    79    80    1
    39    93    90    1
    40    90    91    1
    41    34    33    2
    42   132   131    1
    43   123   122    2
    44   127   128    1
    45   128   131    1
    46   128   129    1
    47    97    91   am
    48    97    98    1
    49   122   121    1
    50    91    92    2
    51    33    32    1
    52   131   133    1
    53    56    55    2
    54    35    32    1
    55    32    31    1
    56   101    98    1
    57   101   102    1
    58   125   124    1
    59    98    99    1
    60   129   130    2
    61    99   100    2
    62    59    58   ar
    63   102   103    1
    64   102   104    1
    65    55    54    1
    66    26    25    2
    67   124   121    1
    68   124   126    1
    69   121   120    1
    70    31    25   am
    71    25    24    1
    72    58    60   ar
    73    58    57    1
    74    54    53    1
    75    54    57    1
    76    24    27    1
    77    24    23    1
    78    20    19    2
    79    27    28    1
    80    12    11    2
    81   134   135    1
    82    19    18    1
    83    18    21    1
    84    18    17    1
    85   140   138    1
    86   135   138    1
    87   135   136    1
    88    28    30   ar
    89    28    29   ar
    90    11    17   am
    91    11    10    1
    92    48    47    2
    93   119   118   ar
    94   119   117   ar
    95   118   116   ar
    96    22    21    1
    97   117   115   ar
    98   138   139    1
    99   136   137    2
   100   116   114   ar
   101    13    10    1
   102    13    14    1
   103    47    46    1
   104    10     9    1
   105   115   114   ar
   106    16    14   am
   107   114   113    1
   108    14    15    2
   109   108   107    2
   110   113   110    1
   111    46    45    1
   112    46    49    1
   113   107   106    1
   114    51    49    1
   115     4     3    2
   116   106   105    1
   117    49    50    1
   118   110   109    1
   119   110   111    1
   120     8     6    1
   121   111   112    2
   122     3     2    1
   123     2     5    1
   124     2     1    1
   125    50    52    1
   126     5     6    1
   127     6     7    1
