@<TRIPOS>MOLECULE
tmp/3owjA00.pdb
 143 135 0 0 0
SMALL
GASTEIGER

@<TRIPOS>ATOM
      1  N         28.3330   11.8780   18.6160 N.3    43  LEU43      -0.1231
      2  CA        26.9400   12.2550   18.3800 C.3    43  LEU43       0.1693
      3  C         26.0140   11.7970   19.5010 C.2    43  LEU43       0.2593
      4  O         25.0060   12.4480   19.7910 O.2    43  LEU43      -0.2718
      5  CB        26.4360   11.6970   17.0440 C.3    43  LEU43       0.0284
      6  CG        27.0350   12.2170   15.7400 C.3    43  LEU43       0.0019
      7  CD1       26.4970   11.4040   14.5710 C.3    43  LEU43       0.0001
      8  CD2       26.7400   13.7020   15.5260 C.3    43  LEU43       0.0001
      9  N         26.3480   10.6760   20.1280 N.am   44  GLY44      -0.1942
     10  CA        25.5040   10.1350   21.1720 C.3    44  GLY44       0.2014
     11  C         26.0390    8.8870   21.8270 C.2    44  GLY44       0.2639
     12  O         27.0220    8.2900   21.3870 O.2    44  GLY44      -0.2714
     13  N         25.3760    8.5090   22.9040 N.am   45  ARG45      -0.1963
     14  CA        25.7090    7.3130   23.6390 C.3    45  ARG45       0.1729
     15  C         24.3920    6.6210   23.9250 C.2    45  ARG45       0.2616
     16  O         23.3690    7.2750   24.1540 O.2    45  ARG45      -0.2715
     17  CB        26.4490    7.6810   24.9300 C.3    45  ARG45       0.0348
     18  CG        26.7150    6.5350   25.8920 C.3    45  ARG45       0.0492
     19  CD        27.3630    7.0400   27.1800 C.3    45  ARG45       0.2205
     20  NE        28.8200    7.1260   27.0680 N.pl3  45  ARG45      -0.0865
     21  CZ        29.6090    7.7740   27.9250 C.cat  45  ARG45       0.5346
     22  NH1       29.0940    8.4200   28.9650 N.pl3  45  ARG45       0.1354
     23  NH2       30.9210    7.7890   27.7340 N.pl3  45  ARG45       0.1354
     24  N         24.4140    5.2980   23.8560 N.am   46  GLY46      -0.1955
     25  CA        23.2760    4.4800   24.2460 C.3    46  GLY46       0.1869
     26  C         23.7230    3.5540   25.3540 C.2    46  GLY46       0.2309
     27  O         24.8230    3.7000   25.8960 O.2    46  GLY46      -0.2863
     28  N         26.1790    1.2170   23.0670 N.3    49  SER49      -0.1217
     29  CA        27.1420    1.7890   22.1210 C.3    49  SER49       0.1889
     30  C         27.4150    3.2880   22.2940 C.2    49  SER49       0.2288
     31  O         26.6280    4.0170   22.9030 O.2    49  SER49      -0.2866
     32  CB        26.6850    1.5190   20.6830 C.3    49  SER49       0.2089
     33  OG        25.4370    2.1400   20.4320 O.3    49  SER49      -0.2183
     34  N         28.2350    6.5200   19.6550 N.3    51  VAL51      -0.1245
     35  CA        28.0430    6.8290   18.2460 C.3    51  VAL51       0.1561
     36  C         28.8030    8.1020   17.8840 C.2    51  VAL51       0.2260
     37  O         28.6770    9.1280   18.5610 O.2    51  VAL51      -0.2867
     38  CB        26.5310    6.9790   17.9130 C.3    51  VAL51       0.0252
     39  CG1       26.3070    7.2660   16.4380 C.3    51  VAL51       0.0019
     40  CG2       25.7720    5.7290   18.3180 C.3    51  VAL51       0.0019
     41  N         29.0330    7.3580    9.8310 N.3    64  VAL64      -0.1245
     42  CA        28.6680    7.2400   11.2330 C.3    64  VAL64       0.1561
     43  C         29.2590    5.9530   11.8080 C.2    64  VAL64       0.2260
     44  O         29.1100    4.8710   11.2230 O.2    64  VAL64      -0.2867
     45  CB        27.1300    7.3100   11.4380 C.3    64  VAL64       0.0252
     46  CG1       26.7330    6.8540   12.8320 C.3    64  VAL64       0.0019
     47  CG2       26.6330    8.7280   11.1780 C.3    64  VAL64       0.0019
     48  N         29.4230    3.4140   14.9870 N.3    66  LYS66      -0.1245
     49  CA        28.7730    2.9210   16.1780 C.3    66  LYS66       0.1561
     50  C         29.7040    1.9230   16.8500 C.2    66  LYS66       0.2260
     51  O         29.8710    0.7960   16.3760 O.2    66  LYS66      -0.2867
     52  CB        27.4470    2.2730   15.7910 C.3    66  LYS66       0.0271
     53  CG        26.6180    1.7690   16.9300 C.3    66  LYS66       0.0035
     54  CD        25.4060    1.0710   16.3500 C.3    66  LYS66       0.0206
     55  CE        24.4870    0.5490   17.4080 C.3    66  LYS66       0.1093
     56  NZ        23.2180    0.1150   16.7610 N.3    66  LYS66      -0.1314
     57  N         18.9600    1.3270    6.8440 N.3    93  ILE93      -0.1245
     58  CA        20.3090    1.8530    6.9510 C.3    93  ILE93       0.1561
     59  C         21.3350    0.8400    6.4090 C.2    93  ILE93       0.2260
     60  O         21.2560   -0.3710    6.6920 O.2    93  ILE93      -0.2867
     61  CB        20.6150    2.3390    8.3970 C.3    93  ILE93       0.0252
     62  CG1       21.8210    3.2770    8.3990 C.3    93  ILE93       0.0019
     63  CG2       20.7760    1.1700    9.3650 C.3    93  ILE93       0.0019
     64  CD1       21.5200    4.6330    7.7530 C.3    93  ILE93       0.0001
     65  N         28.2080    3.0770    9.1630 N.3   111  PHE111     -0.1227
     66  CA        27.0250    3.2770    8.3220 C.3   111  PHE111      0.1736
     67  C         27.1440    4.5220    7.4560 C.2   111  PHE111      0.2595
     68  O         27.9260    5.4280    7.7540 O.2   111  PHE111     -0.2718
     69  CB        25.7730    3.4920    9.1720 C.3   111  PHE111      0.0547
     70  CG        25.5390    2.4520   10.2060 C.ar  111  PHE111     -0.0202
     71  CD1       24.8890    1.2550    9.8800 C.ar  111  PHE111     -0.0042
     72  CD2       25.9300    2.6720   11.5230 C.ar  111  PHE111     -0.0042
     73  CE1       24.6440    0.2910   10.8500 C.ar  111  PHE111     -0.0003
     74  CE2       25.7010    1.7050   12.5020 C.ar  111  PHE111     -0.0003
     75  CZ        25.0500    0.5110   12.1630 C.ar  111  PHE111     -0.0000
     76  N         26.3290    4.5600    6.3990 N.am  112  GLU112     -0.1965
     77  CA        26.0830    5.7690    5.6190 C.3   112  GLU112      0.1733
     78  C         25.6300    6.8750    6.5730 C.2   112  GLU112      0.2616
     79  O         24.8900    6.6160    7.5250 O.2   112  GLU112     -0.2715
     80  CB        25.0030    5.5050    4.5450 C.3   112  GLU112      0.0429
     81  CG        23.5620    5.3760    5.0880 C.3   112  GLU112      0.1163
     82  CD        22.5380    4.8940    4.0580 C.2   112  GLU112      0.3649
     83  OE1       22.4540    5.4750    2.9530 O.co2 112  GLU112     -0.2457
     84  OE2       21.8100    3.9310    4.3630 O.co2 112  GLU112     -0.2457
     85  N         26.0920    8.0960    6.3370 N.am  113  HIS113     -0.1959
     86  CA        25.6810    9.2300    7.1580 C.3   113  HIS113      0.1787
     87  C         24.3200    9.7600    6.6990 C.2   113  HIS113      0.2620
     88  O         24.0520    9.8370    5.4990 O.2   113  HIS113     -0.2715
     89  CB        26.7340   10.3370    7.0870 C.3   113  HIS113      0.0785
     90  CG        26.3470   11.5920    7.8040 C.ar  113  HIS113      0.0821
     91  ND1       25.7130   12.6430    7.1760 N.ar  113  HIS113     -0.2267
     92  CD2       26.5100   11.9680    9.0940 C.ar  113  HIS113      0.1154
     93  CE1       25.4960   13.6090    8.0510 C.ar  113  HIS113      0.1986
     94  NE2       25.9750   13.2270    9.2210 N.ar  113  HIS113     -0.2212
     95  N         23.4620   10.1090    7.6540 N.am  114  VAL114     -0.1977
     96  CA        22.2020   10.7860    7.3420 C.3   114  VAL114      0.1596
     97  C         22.2170   12.1880    7.9410 C.2   114  VAL114      0.2287
     98  O         22.2150   12.3450    9.1700 O.2   114  VAL114     -0.2864
     99  CB        20.9590   10.0040    7.8590 C.3   114  VAL114      0.0276
    100  CG1       19.6900   10.8590    7.7540 C.3   114  VAL114      0.0022
    101  CG2       20.7860    8.6920    7.1000 C.3   114  VAL114      0.0022
    102  N         20.5540   14.7100    9.3950 N.3   116  ASN116     -0.1240
    103  CA        19.2830   14.5050   10.0780 C.3   116  ASN116      0.1653
    104  C         18.5850   15.7630   10.5620 C.2   116  ASN116      0.2266
    105  O         19.2280   16.7230   10.9900 O.2   116  ASN116     -0.2867
    106  CB        19.4760   13.5680   11.2690 C.3   116  ASN116      0.1155
    107  CG        18.1630   13.1730   11.9160 C.2   116  ASN116      0.2627
    108  OD1       17.2770   12.6220   11.2610 O.2   116  ASN116     -0.2716
    109  ND2       18.0370   13.4420   13.2110 N.am  116  ASN116     -0.0877
    110  N         13.2210    8.2670   17.3240 N.3   158  HIS158     -0.1241
    111  CA        14.6830    8.3920   17.3090 C.3   158  HIS158      0.1621
    112  C         15.3280    7.4690   16.2800 C.2   158  HIS158      0.2264
    113  O         16.3830    7.7990   15.7240 O.2   158  HIS158     -0.2867
    114  CB        15.2960    8.1210   18.6890 C.3   158  HIS158      0.0745
    115  CG        16.7920    8.1620   18.6890 C.ar  158  HIS158      0.0817
    116  ND1       17.5710    7.0290   18.5720 N.ar  158  HIS158     -0.2268
    117  CD2       17.6520    9.2040   18.7510 C.ar  158  HIS158      0.1154
    118  CE1       18.8470    7.3740   18.5780 C.ar  158  HIS158      0.1986
    119  NE2       18.9220    8.6880   18.6900 N.ar  158  HIS158     -0.2212
    120  N         15.4530    8.0660   11.0020 N.3   161  MET161     -0.1245
    121  CA        16.3210    9.1880   10.6210 C.3   161  MET161      0.1570
    122  C         15.8540    9.8180    9.3180 C.2   161  MET161      0.2261
    123  O         15.8140    9.1470    8.2850 O.2   161  MET161     -0.2867
    124  CB        17.7680    8.7090   10.4620 C.3   161  MET161      0.0387
    125  CG        18.5090    8.5240   11.7670 C.3   161  MET161      0.0595
    126  SD        19.0440   10.0980   12.4670 S.3   161  MET161     -0.1393
    127  CE        19.3810    9.5870   14.1500 C.3   161  MET161      0.0692
    128  N         16.9050    2.9160   11.5450 N.3   172  ILE172     -0.1231
    129  CA        18.2060    2.6020   12.1360 C.3   172  ILE172      0.1692
    130  C         18.0970    1.8000   13.4370 C.2   172  ILE172      0.2592
    131  O         16.9990    1.4970   13.9070 O.2   172  ILE172     -0.2718
    132  CB        19.0250    3.8970   12.4200 C.3   172  ILE172      0.0266
    133  CG1       18.3690    4.7040   13.5550 C.3   172  ILE172      0.0019
    134  CG2       19.1800    4.7230   11.1360 C.3   172  ILE172      0.0020
    135  CD1       19.3240    5.6330   14.3330 C.3   172  ILE172      0.0001
    136  N         19.2640    1.5070   14.0190 N.am  173  ASP173     -0.1974
    137  CA        19.4180    0.7830   15.2770 C.3   173  ASP173      0.1709
    138  C         18.6850   -0.5440   15.3120 C.2   173  ASP173      0.2293
    139  O         17.6380   -0.6990   15.9460 O.2   173  ASP173     -0.2864
    140  CB        19.1130    1.6330   16.5130 C.3   173  ASP173      0.1436
    141  CG        19.7680    1.0670   17.7700 C.2   173  ASP173      0.3671
    142  OD1       19.7430    1.7460   18.8140 O.co2 173  ASP173     -0.2456
    143  OD2       20.3330   -0.0490   17.7100 O.co2 173  ASP173     -0.2456
@<TRIPOS>BOND
     1    83    82   ar
     2    82    84   ar
     3    82    81    1
     4    80    81    1
     5    80    77    1
     6    88    87    2
     7    77    76    1
     8    77    78    1
     9    85    78   am
    10    85    86    1
    11    76    67   am
    12    59    60    2
    13    59    58    1
    14    78    79    2
    15    87    86    1
    16    87    95   am
    17    57    58    1
    18    58    61    1
    19    89    86    1
    20    89    90    1
    21   101    99    1
    22    91    90   ar
    23    91    93   ar
    24    96    95    1
    25    96    99    1
    26    96    97    1
    27    67    68    2
    28    67    66    1
    29    64    62    1
    30   100    99    1
    31    90    92   ar
    32    97    98    2
    33    93    94   ar
    34   123   122    2
    35    66    65    1
    36    66    69    1
    37    61    62    1
    38    61    63    1
    39    92    94   ar
    40    69    70    1
    41   122   121    1
    42   102   103    1
    43    41    42    1
    44    71    70   ar
    45    71    73   ar
    46   103   104    1
    47   103   106    1
    48    70    72   ar
    49   124   121    1
    50   124   125    1
    51   104   105    2
    52   121   120    1
    53    73    75   ar
    54   134   132    1
    55    47    45    1
    56    44    43    2
    57    42    45    1
    58    42    43    1
    59   108   107    2
    60   106   107    1
    61    45    46    1
    62    72    74   ar
    63   128   129    1
    64   125   126    1
    65   107   109   am
    66   129   132    1
    67   129   130    1
    68    75    74   ar
    69   132   133    1
    70   126   127    1
    71   130   131    2
    72   130   136   am
    73   133   135    1
    74   136   137    1
    75     7     6    1
    76    48    49    1
    77   137   138    1
    78   137   140    1
    79   138   139    2
    80     8     6    1
    81   113   112    2
    82     6     5    1
    83    52    49    1
    84    52    53    1
    85    49    50    1
    86   112   111    1
    87    54    53    1
    88    54    55    1
    89    51    50    2
    90    39    38    1
    91   140   141    1
    92    56    55    1
    93     5     2    1
    94   111   110    1
    95   111   114    1
    96   143   141   ar
    97   141   142   ar
    98    36    35    1
    99    36    37    2
   100    38    35    1
   101    38    40    1
   102    35    34    1
   103     2     1    1
   104     2     3    1
   105   116   118   ar
   106   116   115   ar
   107   118   119   ar
   108   114   115    1
   109   115   117   ar
   110   119   117   ar
   111     3     4    2
   112     3     9   am
   113     9    10    1
   114    33    32    1
   115    32    29    1
   116    10    11    1
   117    12    11    2
   118    11    13   am
   119    29    30    1
   120    29    28    1
   121    30    31    2
   122    13    14    1
   123    14    15    1
   124    14    17    1
   125    24    15   am
   126    24    25    1
   127    15    16    2
   128    25    26    1
   129    17    18    1
   130    26    27    2
   131    18    19    1
   132    20    19    1
   133    20    21    2
   134    23    21    1
   135    21    22    1
