@<TRIPOS>MOLECULE
tmp/3owkA00.pdb
 168 159 0 0 0
SMALL
GASTEIGER

@<TRIPOS>ATOM
      1  N         28.1580   11.9460   18.8400 N.3    44  LEU44      -0.1231
      2  CA        26.7360   12.2170   18.5890 C.3    44  LEU44       0.1693
      3  C         25.8140   11.7420   19.7080 C.2    44  LEU44       0.2593
      4  O         24.7330   12.3020   19.9010 O.2    44  LEU44      -0.2718
      5  CB        26.2720   11.5970   17.2620 C.3    44  LEU44       0.0284
      6  CG        26.8070   12.1530   15.9410 C.3    44  LEU44       0.0019
      7  CD1       26.3060   11.3020   14.7750 C.3    44  LEU44       0.0001
      8  CD2       26.4340   13.6220   15.7390 C.3    44  LEU44       0.0001
      9  N         26.2220   10.7080   20.4330 N.am   45  GLY45      -0.1942
     10  CA        25.3850   10.1790   21.4970 C.3    45  GLY45       0.2014
     11  C         25.9030    8.9080   22.1300 C.2    45  GLY45       0.2638
     12  O         26.7570    8.2100   21.5740 O.2    45  GLY45      -0.2714
     13  N         25.3790    8.6210   23.3120 N.am   46  ARG46      -0.1977
     14  CA        25.7200    7.4160   24.0350 C.3    46  ARG46       0.1597
     15  C         24.4350    6.7050   24.4480 C.2    46  ARG46       0.2287
     16  O         23.5060    7.3370   24.9500 O.2    46  ARG46      -0.2864
     17  CB        26.5760    7.7670   25.2560 C.3    46  ARG46       0.0334
     18  CG        26.7910    6.6310   26.2330 C.3    46  ARG46       0.0492
     19  CD        27.4160    7.1270   27.5240 C.3    46  ARG46       0.2205
     20  NE        28.8470    7.3880   27.3740 N.pl3  46  ARG46      -0.0865
     21  CZ        29.5780    8.1020   28.2300 C.cat  46  ARG46       0.5346
     22  NH1       29.0200    8.6420   29.3070 N.pl3  46  ARG46       0.1354
     23  NH2       30.8710    8.2840   28.0070 N.pl3  46  ARG46       0.1354
     24  N         26.2320    1.3070   23.4150 N.3    50  SER50      -0.1217
     25  CA        27.1920    1.8600   22.4730 C.3    50  SER50       0.1889
     26  C         27.4100    3.3740   22.5700 C.2    50  SER50       0.2288
     27  O         26.6360    4.0980   23.2020 O.2    50  SER50      -0.2866
     28  CB        26.7670    1.5060   21.0470 C.3    50  SER50       0.2089
     29  OG        25.5850    2.1990   20.6920 O.3    50  SER50      -0.2183
     30  N         28.1060    6.5410   19.7670 N.3    52  VAL52      -0.1245
     31  CA        27.9370    6.8580   18.3570 C.3    52  VAL52       0.1561
     32  C         28.6320    8.1760   18.0110 C.2    52  VAL52       0.2260
     33  O         28.4410    9.1880   18.6920 O.2    52  VAL52      -0.2867
     34  CB        26.4300    6.8870   17.9540 C.3    52  VAL52       0.0252
     35  CG1       26.2440    7.3850   16.5250 C.3    52  VAL52       0.0019
     36  CG2       25.8260    5.5090   18.0940 C.3    52  VAL52       0.0019
     37  N         29.0770    7.4120    9.9260 N.3    65  VAL65      -0.1245
     38  CA        28.6710    7.3030   11.3250 C.3    65  VAL65       0.1561
     39  C         29.2540    6.0250   11.9340 C.2    65  VAL65       0.2260
     40  O         29.1430    4.9390   11.3580 O.2    65  VAL65      -0.2867
     41  CB        27.1290    7.4030   11.4990 C.3    65  VAL65       0.0252
     42  CG1       26.6890    6.9960   12.8940 C.3    65  VAL65       0.0019
     43  CG2       26.6690    8.8200   11.2200 C.3    65  VAL65       0.0019
     44  N         29.4060    3.4930   15.1620 N.3    67  LYS67      -0.1245
     45  CA        28.8180    2.9950   16.3920 C.3    67  LYS67       0.1561
     46  C         29.7750    2.0090   17.0440 C.2    67  LYS67       0.2260
     47  O         30.0210    0.9320   16.5110 O.2    67  LYS67      -0.2867
     48  CB        27.4550    2.3430   16.1230 C.3    67  LYS67       0.0271
     49  CG        26.9010    1.5970   17.3250 C.3    67  LYS67       0.0035
     50  CD        25.3970    1.5900   17.3620 C.3    67  LYS67       0.0206
     51  CE        24.8110    0.4250   16.6270 C.3    67  LYS67       0.1093
     52  NZ        23.3410    0.2760   16.9170 N.3    67  LYS67      -0.1314
     53  N         23.2790   -8.3540   15.5810 N.3    80  GLU80      -0.1245
     54  CA        23.1160   -7.0670   14.8950 C.3    80  GLU80       0.1567
     55  C         23.8580   -7.0200   13.5630 C.2    80  GLU80       0.2260
     56  O         23.3440   -6.5020   12.5550 O.2    80  GLU80      -0.2867
     57  CB        23.5420   -5.8860   15.7880 C.3    80  GLU80       0.0388
     58  CG        23.3300   -4.5160   15.1300 C.3    80  GLU80       0.1160
     59  CD        23.6450   -3.3270   16.0440 C.2    80  GLU80       0.3649
     60  OE1       24.1100   -3.5320   17.1810 O.co2  80  GLU80      -0.2457
     61  OE2       23.4220   -2.1710   15.6100 O.co2  80  GLU80      -0.2457
     62  N         22.0680   -6.6830    9.8180 N.3    84  LEU84      -0.1245
     63  CA        22.3940   -5.5530    8.9570 C.3    84  LEU84       0.1561
     64  C         22.9180   -6.0000    7.5850 C.2    84  LEU84       0.2260
     65  O         22.6090   -5.3750    6.5490 O.2    84  LEU84      -0.2867
     66  CB        23.4050   -4.6260    9.6460 C.3    84  LEU84       0.0270
     67  CG        22.8830   -3.7060   10.7590 C.3    84  LEU84       0.0019
     68  CD1       24.0240   -3.2430   11.6800 C.3    84  LEU84       0.0001
     69  CD2       22.1310   -2.4990   10.1800 C.3    84  LEU84       0.0001
     70  N         19.1010    1.6300    6.7750 N.3    94  ILE94      -0.1245
     71  CA        20.4620    2.1510    6.8810 C.3    94  ILE94       0.1561
     72  C         21.4840    1.1180    6.3550 C.2    94  ILE94       0.2260
     73  O         21.3630   -0.0860    6.6130 O.2    94  ILE94      -0.2867
     74  CB        20.7820    2.6010    8.3410 C.3    94  ILE94       0.0252
     75  CG1       21.9810    3.5550    8.3730 C.3    94  ILE94       0.0019
     76  CG2       20.9740    1.4210    9.2510 C.3    94  ILE94       0.0019
     77  CD1       21.6380    4.9740    7.9490 C.3    94  ILE94       0.0001
     78  N         28.3310    3.1890    9.3250 N.3   112  PHE112     -0.1227
     79  CA        27.1220    3.3840    8.5150 C.3   112  PHE112      0.1736
     80  C         27.2380    4.5950    7.5850 C.2   112  PHE112      0.2595
     81  O         27.9440    5.5640    7.8900 O.2   112  PHE112     -0.2718
     82  CB        25.8930    3.6200    9.4110 C.3   112  PHE112      0.0547
     83  CG        25.6450    2.5400   10.4160 C.ar  112  PHE112     -0.0202
     84  CD1       24.9350    1.3870   10.0640 C.ar  112  PHE112     -0.0042
     85  CD2       26.1120    2.6710   11.7150 C.ar  112  PHE112     -0.0042
     86  CE1       24.6950    0.3820   11.0020 C.ar  112  PHE112     -0.0003
     87  CE2       25.8880    1.6710   12.6530 C.ar  112  PHE112     -0.0003
     88  CZ        25.1750    0.5260   12.3000 C.ar  112  PHE112     -0.0000
     89  N         26.5060    4.5420    6.4690 N.am  113  GLU113     -0.1965
     90  CA        26.2550    5.7100    5.6090 C.3   113  GLU113      0.1733
     91  C         25.7390    6.8890    6.4410 C.2   113  GLU113      0.2616
     92  O         25.0300    6.6860    7.4280 O.2   113  GLU113     -0.2715
     93  CB        25.2210    5.3530    4.5270 C.3   113  GLU113      0.0429
     94  CG        23.8170    5.0100    5.0790 C.3   113  GLU113      0.1163
     95  CD        22.7330    4.8810    4.0040 C.2   113  GLU113      0.3649
     96  OE1       22.8690    5.4680    2.9030 O.co2 113  GLU113     -0.2457
     97  OE2       21.7390    4.1800    4.2670 O.co2 113  GLU113     -0.2457
     98  N         26.0870    8.1160    6.0520 N.am  114  HIS114     -0.1959
     99  CA        25.6420    9.3020    6.7940 C.3   114  HIS114      0.1787
    100  C         24.2600    9.7740    6.3360 C.2   114  HIS114      0.2620
    101  O         23.9190    9.6340    5.1620 O.2   114  HIS114     -0.2715
    102  CB        26.6680   10.4360    6.6570 C.3   114  HIS114      0.0785
    103  CG        26.2740   11.6990    7.3610 C.ar  114  HIS114      0.0821
    104  ND1       25.8850   12.8350    6.6860 N.ar  114  HIS114     -0.2267
    105  CD2       26.1910   11.9990    8.6780 C.ar  114  HIS114      0.1154
    106  CE1       25.5840   13.7830    7.5560 C.ar  114  HIS114      0.1986
    107  NE2       25.7630   13.3020    8.7730 N.ar  114  HIS114     -0.2212
    108  N         23.4720   10.3140    7.2710 N.am  115  VAL115     -0.1977
    109  CA        22.1720   10.9380    6.9710 C.3   115  VAL115      0.1596
    110  C         22.0830   12.3000    7.6650 C.2   115  VAL115      0.2287
    111  O         22.3460   12.4020    8.8620 O.2   115  VAL115     -0.2864
    112  CB        20.9720   10.0530    7.4360 C.3   115  VAL115      0.0276
    113  CG1       19.6330   10.6710    7.0150 C.3   115  VAL115      0.0022
    114  CG2       21.0920    8.6400    6.9000 C.3   115  VAL115      0.0022
    115  N         20.1060   14.3830    9.3710 N.3   117  ASN117     -0.1240
    116  CA        18.8670   14.4090   10.1520 C.3   117  ASN117      0.1653
    117  C         18.5070   15.7580   10.7750 C.2   117  ASN117      0.2266
    118  O         19.3810   16.5720   11.0710 O.2   117  ASN117     -0.2867
    119  CB        18.9250   13.3400   11.2540 C.3   117  ASN117      0.1155
    120  CG        17.6990   13.3570   12.1610 C.2   117  ASN117      0.2627
    121  OD1       16.5910   13.0140   11.7390 O.2   117  ASN117     -0.2716
    122  ND2       17.8960   13.7510   13.4150 N.am  117  ASN117     -0.0877
    123  N         14.7240    6.6120   16.1030 N.3   160  ASN160     -0.1240
    124  CA        15.3090    5.5810   15.2270 C.3   160  ASN160      0.1653
    125  C         14.9060    5.6990   13.7590 C.2   160  ASN160      0.2266
    126  O         15.1140    4.7830   12.9550 O.2   160  ASN160     -0.2867
    127  CB        14.9930    4.1850   15.7780 C.3   160  ASN160      0.1155
    128  CG        15.8410    3.8370   16.9860 C.2   160  ASN160      0.2627
    129  OD1       16.8930    4.4370   17.2160 O.2   160  ASN160     -0.2716
    130  ND2       15.3860    2.8800   17.7690 N.am  160  ASN160     -0.0877
    131  N         15.7470    8.3460   10.9670 N.3   162  MET162     -0.1245
    132  CA        16.5430    9.5160   10.5930 C.3   162  MET162      0.1570
    133  C         16.0190   10.1190    9.2910 C.2   162  MET162      0.2261
    134  O         15.9290    9.4300    8.2720 O.2   162  MET162     -0.2867
    135  CB        18.0280    9.1490   10.4730 C.3   162  MET162      0.0387
    136  CG        18.7170    8.8040   11.8100 C.3   162  MET162      0.0595
    137  SD        18.7690   10.2210   12.9470 S.3   162  MET162     -0.1393
    138  CE        19.4480    9.5200   14.4380 C.3   162  MET162      0.0692
    139  N         17.0000    3.1760   11.5390 N.3   173  ILE173     -0.1231
    140  CA        18.2800    2.8490   12.1470 C.3   173  ILE173      0.1692
    141  C         18.1500    2.0480   13.4390 C.2   173  ILE173      0.2592
    142  O         17.0440    1.7170   13.8860 O.2   173  ILE173     -0.2718
    143  CB        19.1120    4.1360   12.4350 C.3   173  ILE173      0.0266
    144  CG1       18.3870    5.0260   13.4470 C.3   173  ILE173      0.0019
    145  CG2       19.3400    4.9150   11.1310 C.3   173  ILE173      0.0020
    146  CD1       19.2890    5.9200   14.2570 C.3   173  ILE173      0.0001
    147  N         19.3160    1.7660   14.0240 N.am  174  ASP174     -0.1960
    148  CA        19.4920    1.0680   15.2950 C.3   174  ASP174      0.1840
    149  C         18.8170   -0.2800   15.3590 C.2   174  ASP174      0.2622
    150  O         17.7520   -0.4430   15.9660 O.2   174  ASP174     -0.2715
    151  CB        19.1400    1.9210   16.5240 C.3   174  ASP174      0.1450
    152  CG        19.7790    1.3700   17.7980 C.2   174  ASP174      0.3671
    153  OD1       19.8190    2.0920   18.8050 O.co2 174  ASP174     -0.2456
    154  OD2       20.2750    0.2120   17.7870 O.co2 174  ASP174     -0.2456
    155  N         19.4880   -1.2430   14.7340 N.am  175  TRP175     -0.1974
    156  CA        19.0190   -2.6180   14.6420 C.3   175  TRP175      0.1640
    157  C         19.5640   -3.4940   15.7780 C.2   175  TRP175      0.2290
    158  O         19.5490   -4.7150   15.6840 O.2   175  TRP175     -0.2864
    159  CB        19.3800   -3.1800   13.2510 C.3   175  TRP175      0.0576
    160  CG        18.6500   -2.4400   12.1730 C.ar  175  TRP175      0.0006
    161  CD1       18.9960   -1.2360   11.6150 C.ar  175  TRP175      0.0946
    162  CD2       17.4230   -2.8330   11.5550 C.ar  175  TRP175      0.0152
    163  NE1       18.0480   -0.8600   10.6820 N.ar  175  TRP175     -0.2442
    164  CE2       17.0770   -1.8270   10.6290 C.ar  175  TRP175      0.0810
    165  CE3       16.5740   -3.9440   11.6990 C.ar  175  TRP175      0.0012
    166  CZ2       15.9190   -1.9010    9.8370 C.ar  175  TRP175      0.0191
    167  CZ3       15.4180   -4.0080   10.9190 C.ar  175  TRP175      0.0001
    168  CH2       15.1050   -2.9920   10.0000 C.ar  175  TRP175      0.0015
@<TRIPOS>BOND
     1    96    95   ar
     2    95    97   ar
     3    95    94    1
     4    93    94    1
     5    93    90    1
     6   101   100    2
     7    90    91    1
     8    90    89    1
     9    98    91   am
    10    98    99    1
    11   100    99    1
    12   100   108   am
    13    72    73    2
    14    72    71    1
    15    91    92    2
    16    89    80   am
    17    65    64    2
    18   102    99    1
    19   102   103    1
    20   104   103   ar
    21   104   106   ar
    22    70    71    1
    23    71    74    1
    24   114   112    1
    25   109   108    1
    26   109   112    1
    27   109   110    1
    28   113   112    1
    29   103   105   ar
    30   106   107   ar
    31    64    63    1
    32    80    81    2
    33    80    79    1
    34   110   111    2
    35    77    75    1
    36   134   133    2
    37    74    75    1
    38    74    76    1
    39    79    78    1
    40    79    82    1
    41   105   107   ar
    42    63    66    1
    43    63    62    1
    44   133   132    1
    45   115   116    1
    46    82    83    1
    47    66    67    1
    48   166   168   ar
    49   166   164   ar
    50    37    38    1
    51   168   167   ar
    52    84    83   ar
    53    84    86   ar
    54   116   117    1
    55   116   119    1
    56    69    67    1
    57    83    85   ar
    58   135   132    1
    59   135   136    1
    60   132   131    1
    61   164   163   ar
    62   164   162   ar
    63   163   161   ar
    64    67    68    1
    65   117   118    2
    66   167   165   ar
    67    86    88   ar
    68   145   143    1
    69    43    41    1
    70   119   120    1
    71    38    41    1
    72    38    39    1
    73    40    39    2
    74    41    42    1
    75   139   140    1
    76   162   165   ar
    77   162   160   ar
    78   161   160   ar
    79    85    87   ar
    80   121   120    2
    81   136   137    1
    82   140   143    1
    83   140   141    1
    84   120   122   am
    85   160   159    1
    86    88    87   ar
    87   143   144    1
    88    56    55    2
    89   137   138    1
    90   126   125    2
    91   159   156    1
    92   141   142    2
    93   141   147   am
    94   144   146    1
    95    55    54    1
    96   125   124    1
    97   147   148    1
    98   156   155    1
    99   156   157    1
   100   155   149   am
   101     7     6    1
   102    54    53    1
   103    54    57    1
   104    58    57    1
   105    58    59    1
   106    44    45    1
   107   124   127    1
   108   124   123    1
   109   148   149    1
   110   148   151    1
   111   149   150    2
   112    61    59   ar
   113   158   157    2
   114     8     6    1
   115   127   128    1
   116     6     5    1
   117    59    60   ar
   118    48    45    1
   119    48    49    1
   120    45    46    1
   121    47    46    2
   122   151   152    1
   123    35    34    1
   124    51    52    1
   125    51    50    1
   126   128   129    2
   127   128   130   am
   128     5     2    1
   129    49    50    1
   130   154   152   ar
   131   152   153   ar
   132    34    36    1
   133    34    31    1
   134    32    31    1
   135    32    33    2
   136    31    30    1
   137     2     1    1
   138     2     3    1
   139     3     4    2
   140     3     9   am
   141     9    10    1
   142    29    28    1
   143    28    25    1
   144    10    11    1
   145    12    11    2
   146    11    13   am
   147    25    26    1
   148    25    24    1
   149    26    27    2
   150    13    14    1
   151    14    15    1
   152    14    17    1
   153    15    16    2
   154    17    18    1
   155    18    19    1
   156    20    19    1
   157    20    21    2
   158    23    21    1
   159    21    22    1
