@<TRIPOS>MOLECULE
tmp/3owlA00.pdb
 123 113 0 0 0
SMALL
GASTEIGER

@<TRIPOS>ATOM
      1  N         28.4100   11.9480   18.6750 N.3    44  LEU44      -0.1231
      2  CA        26.9880   12.2520   18.4740 C.3    44  LEU44       0.1696
      3  C         26.0790   11.7590   19.5910 C.2    44  LEU44       0.2632
      4  O         25.0050   12.3190   19.8030 O.2    44  LEU44      -0.2714
      5  CB        26.4970   11.6810   17.1440 C.3    44  LEU44       0.0284
      6  CG        27.0080   12.2870   15.8400 C.3    44  LEU44       0.0019
      7  CD1       26.7160   11.3170   14.6920 C.3    44  LEU44       0.0001
      8  CD2       26.3600   13.6310   15.5810 C.3    44  LEU44       0.0001
      9  N         26.4840   10.7030   20.2900 N.am   45  GLY45      -0.1718
     10  CA        25.6490   10.1500   21.3430 C.2    45  GLY45       0.1480
     11  C         26.1710    8.8780   21.9810 C.2    45  GLY45       0.2820
     12  O         27.0110    8.1720   21.4150 O.2    45  GLY45      -0.2669
     13  N         25.6730    8.6120   23.1840 N.am   46  ARG46      -0.1929
     14  CA        25.9700    7.3850   23.9030 C.3    46  ARG46       0.1732
     15  C         24.6580    6.6430   24.0980 C.2    46  ARG46       0.2616
     16  O         23.7170    7.1640   24.7060 O.2    46  ARG46      -0.2715
     17  CB        26.6350    7.6930   25.2490 C.3    46  ARG46       0.0348
     18  CG        27.0130    6.4750   26.1040 C.3    46  ARG46       0.0492
     19  CD        27.6360    6.9200   27.4290 C.3    46  ARG46       0.2205
     20  NE        29.0340    7.3370   27.2840 N.pl3  46  ARG46      -0.0865
     21  CZ        29.6820    8.1380   28.1320 C.cat  46  ARG46       0.5346
     22  NH1       29.0660    8.6350   29.1970 N.pl3  46  ARG46       0.1354
     23  NH2       30.9500    8.4560   27.9070 N.pl3  46  ARG46       0.1354
     24  N         24.5870    5.4380   23.5460 N.am   47  GLY47      -0.1955
     25  CA        23.4620    4.5540   23.8040 C.3    47  GLY47       0.1869
     26  C         23.7050    3.7610   25.0800 C.2    47  GLY47       0.2309
     27  O         24.6280    4.0590   25.8540 O.2    47  GLY47      -0.2863
     28  N         26.4260    1.2610   23.4930 N.3    50  SER50      -0.1217
     29  CA        27.3830    1.7810   22.5290 C.3    50  SER50       0.1889
     30  C         27.6480    3.2780   22.6250 C.2    50  SER50       0.2288
     31  O         26.9950    4.0020   23.3760 O.2    50  SER50      -0.2866
     32  CB        26.9160    1.4480   21.1150 C.3    50  SER50       0.2089
     33  OG        25.8260    2.2800   20.7590 O.3    50  SER50      -0.2183
     34  N         28.4840    6.5130   19.7820 N.3    52  VAL52      -0.1245
     35  CA        28.2710    6.8320   18.3750 C.3    52  VAL52       0.1561
     36  C         28.9790    8.1280   18.0020 C.2    52  VAL52       0.2260
     37  O         28.8920    9.1200   18.7190 O.2    52  VAL52      -0.2867
     38  CB        26.7570    6.9860   18.0630 C.3    52  VAL52       0.0252
     39  CG1       26.5220    7.3600   16.5960 C.3    52  VAL52       0.0019
     40  CG2       25.9970    5.7180   18.4260 C.3    52  VAL52       0.0019
     41  N         29.3330    7.3280    9.8570 N.3    65  VAL65      -0.1245
     42  CA        28.9230    7.2270   11.2550 C.3    65  VAL65       0.1561
     43  C         29.4500    5.9250   11.8600 C.2    65  VAL65       0.2260
     44  O         29.2350    4.8420   11.3040 O.2    65  VAL65      -0.2867
     45  CB        27.3910    7.3390   11.4300 C.3    65  VAL65       0.0252
     46  CG1       26.9650    6.9720   12.8590 C.3    65  VAL65       0.0019
     47  CG2       26.9080    8.7250   11.0620 C.3    65  VAL65       0.0019
     48  N         29.7070    3.4000   15.1800 N.3    67  LYS67      -0.1245
     49  CA        29.1330    2.9590   16.4430 C.3    67  LYS67       0.1561
     50  C         30.0540    1.9480   17.1170 C.2    67  LYS67       0.2260
     51  O         30.2280    0.8260   16.6410 O.2    67  LYS67      -0.2867
     52  CB        27.7180    2.3890   16.2480 C.3    67  LYS67       0.0271
     53  CG        27.2210    1.5490   17.4130 C.3    67  LYS67       0.0035
     54  CD        25.7120    1.6070   17.5600 C.3    67  LYS67       0.0206
     55  CE        25.0170    0.5320   16.7600 C.3    67  LYS67       0.1093
     56  NZ        23.5290    0.7350   16.7100 N.3    67  LYS67      -0.1314
     57  N         19.2060    1.6740    6.7900 N.3    94  ILE94      -0.1245
     58  CA        20.5780    2.1540    6.9210 C.3    94  ILE94       0.1561
     59  C         21.6070    1.1140    6.3810 C.2    94  ILE94       0.2260
     60  O         21.4850   -0.0880    6.6460 O.2    94  ILE94      -0.2867
     61  CB        20.8910    2.5590    8.3910 C.3    94  ILE94       0.0252
     62  CG1       22.0420    3.5690    8.4500 C.3    94  ILE94       0.0019
     63  CG2       21.1550    1.3130    9.2640 C.3    94  ILE94       0.0019
     64  CD1       21.6770    4.9640    7.9330 C.3    94  ILE94       0.0001
     65  N         28.5540    3.0440    9.4180 N.3   112  PHE112     -0.1227
     66  CA        27.3310    3.2180    8.6300 C.3   112  PHE112      0.1736
     67  C         27.4930    4.3380    7.6100 C.2   112  PHE112      0.2595
     68  O         28.4010    5.1650    7.7410 O.2   112  PHE112     -0.2718
     69  CB        26.1230    3.5060    9.5350 C.3   112  PHE112      0.0547
     70  CG        25.8430    2.4270   10.5590 C.ar  112  PHE112     -0.0202
     71  CD1       25.0640    1.3130   10.2300 C.ar  112  PHE112     -0.0042
     72  CD2       26.3640    2.5200   11.8480 C.ar  112  PHE112     -0.0042
     73  CE1       24.8010    0.3130   11.1700 C.ar  112  PHE112     -0.0003
     74  CE2       26.1090    1.5200   12.8010 C.ar  112  PHE112     -0.0003
     75  CZ        25.3230    0.4160   12.4640 C.ar  112  PHE112     -0.0000
     76  N         26.6210    4.3450    6.5940 N.am  113  GLU113     -0.1979
     77  CA        26.4440    5.4850    5.6900 C.3   113  GLU113      0.1602
     78  C         26.0130    6.7030    6.4990 C.2   113  GLU113      0.2287
     79  O         25.3110    6.5790    7.5100 O.2   113  GLU113     -0.2864
     80  CB        25.3560    5.1860    4.6370 C.3   113  GLU113      0.0415
     81  CG        23.9270    5.0700    5.2330 C.3   113  GLU113      0.1163
     82  CD        22.8190    4.9200    4.1960 C.2   113  GLU113      0.3649
     83  OE1       22.8340    5.6570    3.1910 O.co2 113  GLU113     -0.2457
     84  OE2       21.9250    4.0720    4.3950 O.co2 113  GLU113     -0.2457
     85  N         23.7970    9.8880    7.2570 N.3   115  VAL115     -0.1245
     86  CA        22.5280   10.5450    6.9800 C.3   115  VAL115      0.1561
     87  C         22.5070   11.7910    7.8510 C.2   115  VAL115      0.2260
     88  O         22.7880   11.7130    9.0440 O.2   115  VAL115     -0.2867
     89  CB        21.3040    9.6280    7.2590 C.3   115  VAL115      0.0252
     90  CG1       20.0060   10.3430    6.9510 C.3   115  VAL115      0.0019
     91  CG2       21.3860    8.3650    6.4230 C.3   115  VAL115      0.0019
     92  N         14.7340    6.4970   16.2150 N.3   160  ASN160     -0.1240
     93  CA        15.3150    5.4980   15.3280 C.3   160  ASN160      0.1653
     94  C         14.9400    5.6320   13.8520 C.2   160  ASN160      0.2266
     95  O         15.1130    4.6950   13.0720 O.2   160  ASN160     -0.2867
     96  CB        15.0350    4.0980   15.8690 C.3   160  ASN160      0.1155
     97  CG        15.9050    3.7640   17.0690 C.2   160  ASN160      0.2627
     98  OD1       16.8390    4.4980   17.3710 O.2   160  ASN160     -0.2716
     99  ND2       15.6190    2.6510   17.7470 N.am  160  ASN160     -0.0877
    100  N         15.8980    8.2280   10.9950 N.3   162  MET162     -0.1245
    101  CA        16.6970    9.3950   10.5980 C.3   162  MET162      0.1570
    102  C         16.1460   10.0080    9.3230 C.2   162  MET162      0.2261
    103  O         15.8880    9.3100    8.3340 O.2   162  MET162     -0.2867
    104  CB        18.1960    9.0620   10.4430 C.3   162  MET162      0.0387
    105  CG        18.9500    8.8520   11.7720 C.3   162  MET162      0.0595
    106  SD        18.8720   10.2620   12.9190 S.3   162  MET162     -0.1393
    107  CE        19.1780    9.4780   14.5000 C.3   162  MET162      0.0692
    108  N         17.1940    3.1750   11.5590 N.3   173  ILE173     -0.1231
    109  CA        18.4750    2.9220   12.1910 C.3   173  ILE173      0.1692
    110  C         18.3450    2.0650   13.4800 C.2   173  ILE173      0.2592
    111  O         17.2360    1.6790   13.8850 O.2   173  ILE173     -0.2718
    112  CB        19.2170    4.2630   12.5110 C.3   173  ILE173      0.0266
    113  CG1       18.4370    5.0870   13.5380 C.3   173  ILE173      0.0019
    114  CG2       19.4310    5.1160   11.2420 C.3   173  ILE173      0.0020
    115  CD1       19.2870    6.0790   14.3070 C.3   173  ILE173      0.0001
    116  N         19.4950    1.8160   14.1130 N.am  174  ASP174     -0.1974
    117  CA        19.6270    1.0900   15.3950 C.3   174  ASP174      0.1709
    118  C         18.9080   -0.2430   15.4590 C.2   174  ASP174      0.2293
    119  O         17.8120   -0.3520   16.0140 O.2   174  ASP174     -0.2864
    120  CB        19.2740    1.9620   16.6130 C.3   174  ASP174      0.1436
    121  CG        19.7380    1.3280   17.9290 C.2   174  ASP174      0.3671
    122  OD1       19.6970    2.0220   18.9580 O.co2 174  ASP174     -0.2456
    123  OD2       20.1720    0.1490   17.9340 O.co2 174  ASP174     -0.2456
@<TRIPOS>BOND
     1    83    82   ar
     2    82    84   ar
     3    82    81    1
     4    80    81    1
     5    80    77    1
     6    77    78    1
     7    77    76    1
     8    59    60    2
     9    59    58    1
    10    91    89    1
    11    78    79    2
    12    76    67   am
    13    57    58    1
    14    58    61    1
    15    90    89    1
    16    86    85    1
    17    86    89    1
    18    86    87    1
    19    67    68    2
    20    67    66    1
    21    87    88    2
    22    64    62    1
    23   103   102    2
    24    61    62    1
    25    61    63    1
    26    66    65    1
    27    66    69    1
    28   102   101    1
    29    69    70    1
    30    41    42    1
    31    71    70   ar
    32    71    73   ar
    33   104   101    1
    34   104   105    1
    35    70    72   ar
    36   101   100    1
    37    47    45    1
    38    73    75   ar
    39   114   112    1
    40    42    45    1
    41    42    43    1
    42    44    43    2
    43    45    46    1
    44   108   109    1
    45   105   106    1
    46    72    74   ar
    47   109   112    1
    48   109   110    1
    49    75    74   ar
    50   112   113    1
    51   106   107    1
    52    95    94    2
    53   110   111    2
    54   110   116   am
    55   113   115    1
    56    94    93    1
    57   116   117    1
    58     7     6    1
    59    48    49    1
    60    93    96    1
    61    93    92    1
    62   117   118    1
    63   117   120    1
    64   118   119    2
    65     8     6    1
    66     6     5    1
    67    96    97    1
    68    52    49    1
    69    52    53    1
    70    49    50    1
    71    39    38    1
    72   120   121    1
    73    51    50    2
    74    56    55    1
    75    55    54    1
    76    97    98    2
    77    97    99   am
    78     5     2    1
    79    53    54    1
    80   121   123   ar
    81   121   122   ar
    82    36    35    1
    83    36    37    2
    84    38    35    1
    85    38    40    1
    86    35    34    1
    87     2     1    1
    88     2     3    1
    89     3     4    2
    90     3     9    1
    91     9    10    2
    92    33    32    1
    93    32    29    1
    94    10    11    1
    95    12    11    2
    96    11    13   am
    97    29    30    1
    98    29    28    1
    99    30    31    2
   100    13    14    1
   101    24    25    1
   102    24    15   am
   103    25    26    1
   104    14    15    1
   105    14    17    1
   106    15    16    2
   107    26    27    2
   108    17    18    1
   109    18    19    1
   110    20    19    1
   111    20    21    2
   112    23    21    1
   113    21    22    1
