@<TRIPOS>MOLECULE
tmp/3owmA10.pdb
 83 80 0 0 0
SMALL
GASTEIGER

@<TRIPOS>ATOM
      1  N         40.9700   13.4600  162.3560 N.3   305  TYR305     -0.1227
      2  CA        41.4750   12.6420  163.4590 C.3   305  TYR305      0.1736
      3  C         40.7220   12.9850  164.7030 C.2   305  TYR305      0.2595
      4  O         40.1310   14.0580  164.8300 O.2   305  TYR305     -0.2718
      5  CB        42.9550   12.9270  163.6730 C.3   305  TYR305      0.0548
      6  CG        43.7820   12.6860  162.4520 C.ar  305  TYR305     -0.0200
      7  CD1       44.2470   11.4100  162.1220 C.ar  305  TYR305     -0.0009
      8  CD2       44.0890   13.7360  161.5980 C.ar  305  TYR305     -0.0009
      9  CE1       44.9990   11.2000  160.9720 C.ar  305  TYR305      0.0417
     10  CE2       44.8290   13.5410  160.4590 C.ar  305  TYR305      0.0417
     11  CZ        45.2780   12.2840  160.1400 C.ar  305  TYR305      0.1957
     12  OH        46.0170   12.1630  159.0020 O.3   305  TYR305     -0.2866
     13  N         40.7460   12.0890  165.6940 N.am  306  GLN306     -0.1965
     14  CA        40.1210   12.4020  166.9450 C.3   306  GLN306      0.1733
     15  C         41.0880   13.0860  167.8850 C.2   306  GLN306      0.2616
     16  O         42.2570   12.7170  167.9730 O.2   306  GLN306     -0.2715
     17  CB        39.5710   11.1260  167.6000 C.3   306  GLN306      0.0408
     18  CG        38.5650   10.4040  166.7460 C.3   306  GLN306      0.0908
     19  CD        37.6990    9.4470  167.5440 C.2   306  GLN306      0.2608
     20  OE1       36.4710    9.3850  167.3530 O.2   306  GLN306     -0.2717
     21  NE2       38.3320    8.7030  168.4820 N.am  306  GLN306     -0.0878
     22  N         40.5970   14.0850  168.5820 N.am  307  LEU307     -0.1963
     23  CA        41.3800   14.7940  169.5720 C.3   307  LEU307      0.1728
     24  C         41.7420   13.8550  170.7180 C.2   307  LEU307      0.2617
     25  O         42.8470   13.9480  171.2610 O.2   307  LEU307     -0.2715
     26  CB        40.6090   15.9690  170.1360 C.3   307  LEU307      0.0311
     27  CG        40.5270   17.2100  169.2320 C.3   307  LEU307      0.0022
     28  CD1       39.3640   18.1240  169.6490 C.3   307  LEU307      0.0001
     29  CD2       41.8460   17.9370  169.2490 C.3   307  LEU307      0.0001
     30  N         40.8060   12.9670  171.0410 N.am  308  SER308     -0.1936
     31  CA        40.9630   12.0410  172.1870 C.3   308  SER308      0.2055
     32  C         42.1590   11.1270  172.0310 C.2   308  SER308      0.2643
     33  O         43.0110   11.0680  172.9130 O.2   308  SER308     -0.2714
     34  CB        39.6880   11.2360  172.3930 C.3   308  SER308      0.2130
     35  OG        39.4140   10.4160  171.2720 O.3   308  SER308     -0.2179
     36  N         42.2550   10.4300  170.9090 N.am  309  ASP309     -0.1957
     37  CA        43.2580    9.3960  170.7390 C.3   309  ASP309      0.1840
     38  C         44.0310    9.4520  169.4410 C.2   309  ASP309      0.2622
     39  O         44.8310    8.5640  169.1610 O.2   309  ASP309     -0.2715
     40  CB        42.6020    8.0130  170.9280 C.3   309  ASP309      0.1450
     41  CG        41.6220    7.6470  169.8190 C.2   309  ASP309      0.3671
     42  OD1       41.2430    8.5240  168.9990 O.co2 309  ASP309     -0.2456
     43  OD2       41.2300    6.4570  169.7500 O.co2 309  ASP309     -0.2456
     44  N         43.7980   10.4830  168.6090 N.am  310  GLY310     -0.1954
     45  CA        44.5080   10.5810  167.3560 C.3   310  GLY310      0.1869
     46  C         44.0740    9.6340  166.2650 C.2   310  GLY310      0.2309
     47  O         44.6690    9.6330  165.1860 O.2   310  GLY310     -0.2863
     48  N         39.8190   16.8060  164.9970 N.3   341  PHE341     -0.1241
     49  CA        40.7240   17.8050  164.4420 C.3   341  PHE341      0.1605
     50  C         41.1190   17.4640  163.0380 C.2   341  PHE341      0.2264
     51  O         40.9070   16.3460  162.5570 O.2   341  PHE341     -0.2867
     52  CB        41.9300   18.1110  165.3380 C.3   341  PHE341      0.0534
     53  CG        42.9920   17.0470  165.3490 C.ar  341  PHE341     -0.0203
     54  CD1       42.9170   16.0020  166.2510 C.ar  341  PHE341     -0.0042
     55  CD2       44.0810   17.1050  164.5060 C.ar  341  PHE341     -0.0042
     56  CE1       43.9080   15.0430  166.2890 C.ar  341  PHE341     -0.0003
     57  CE2       45.0700   16.1410  164.5290 C.ar  341  PHE341     -0.0003
     58  CZ        44.9750   15.1040  165.4430 C.ar  341  PHE341     -0.0000
     59  N         47.7760   17.4680  161.7450 N.3   344  ARG344     -0.1245
     60  CA        48.8920   17.7270  162.6270 C.3   344  ARG344      0.1563
     61  C         49.8860   18.6450  161.9510 C.2   344  ARG344      0.2260
     62  O         50.3380   18.3870  160.8250 O.2   344  ARG344     -0.2867
     63  CB        49.5830   16.4150  163.0060 C.3   344  ARG344      0.0307
     64  CG        50.3890   16.5680  164.2270 C.3   344  ARG344      0.0489
     65  CD        50.8490   15.2340  164.8070 C.3   344  ARG344      0.2205
     66  NE        49.7540   14.3650  165.2530 N.pl3 344  ARG344     -0.0865
     67  CZ        49.0800   14.4910  166.3970 C.cat 344  ARG344      0.5346
     68  NH1       49.3120   15.4830  167.2640 N.pl3 344  ARG344      0.1354
     69  NH2       48.1440   13.6000  166.6900 N.pl3 344  ARG344      0.1354
     70  N         48.0580   19.0780  167.0520 N.3   351  ALA351     -0.1245
     71  CA        46.7330   18.8480  166.4910 C.3   351  ALA351      0.1562
     72  C         46.0880   20.2000  166.2470 C.2   351  ALA351      0.2260
     73  O         45.9980   21.0140  167.1590 O.2   351  ALA351     -0.2867
     74  CB        45.8500   18.0510  167.4810 C.3   351  ALA351      0.0290
     75  N         49.2250   22.6770  172.7740 N.3   466  GLU466     -0.1245
     76  CA        47.8870   23.0350  173.1830 C.3   466  GLU466      0.1567
     77  C         47.6730   24.5220  172.9270 C.2   466  GLU466      0.2260
     78  O         46.5770   24.9310  172.5370 O.2   466  GLU466     -0.2867
     79  CB        47.6620   22.7260  174.6730 C.3   466  GLU466      0.0388
     80  CG        47.6290   21.2380  174.9750 C.3   466  GLU466      0.1160
     81  CD        46.3630   20.5490  174.4790 C.2   466  GLU466      0.3649
     82  OE1       45.3390   21.2480  174.2480 O.co2 466  GLU466     -0.2457
     83  OE2       46.3890   19.3060  174.3090 O.co2 466  GLU466     -0.2457
@<TRIPOS>BOND
     1    12    11    1
     2    11    10   ar
     3    11     9   ar
     4    10     8   ar
     5    62    61    2
     6     9     7   ar
     7     8     6   ar
     8    59    60    1
     9    61    60    1
    10     7     6   ar
    11     1     2    1
    12     6     5    1
    13    51    50    2
    14    60    63    1
    15    63    64    1
    16    50    49    1
    17     2     5    1
    18     2     3    1
    19    64    65    1
    20    49    48    1
    21    49    52    1
    22    55    57   ar
    23    55    53   ar
    24    57    58   ar
    25     3     4    2
    26     3    13   am
    27    65    66    1
    28    47    46    2
    29    66    67    2
    30    52    53    1
    31    53    54   ar
    32    58    56   ar
    33    13    14    1
    34    72    71    1
    35    72    73    2
    36    54    56   ar
    37    46    45    1
    38    67    69    1
    39    67    68    1
    40    71    70    1
    41    71    74    1
    42    18    19    1
    43    18    17    1
    44    14    17    1
    45    14    15    1
    46    20    19    2
    47    45    44    1
    48    19    21   am
    49    15    16    2
    50    15    22   am
    51    22    23    1
    52    44    38   am
    53    42    41   ar
    54    39    38    2
    55    27    29    1
    56    27    28    1
    57    27    26    1
    58    38    37    1
    59    23    26    1
    60    23    24    1
    61    43    41   ar
    62    41    40    1
    63    24    30   am
    64    24    25    2
    65    37    36    1
    66    37    40    1
    67    36    32   am
    68    30    31    1
    69    35    34    1
    70    32    31    1
    71    32    33    2
    72    31    34    1
    73    78    77    2
    74    75    76    1
    75    77    76    1
    76    76    79    1
    77    82    81   ar
    78    83    81   ar
    79    81    80    1
    80    79    80    1
