@<TRIPOS>MOLECULE
tmp/3owmB01.pdb
 82 78 0 0 0
SMALL
GASTEIGER

@<TRIPOS>ATOM
      1  N        -12.1830   65.0040   99.1050 N.3   306  GLN306     -0.1231
      2  CA       -11.8700   64.3660   97.8560 C.3   306  GLN306      0.1698
      3  C        -11.1740   65.3050   96.9010 C.2   306  GLN306      0.2592
      4  O        -11.5440   66.4660   96.7820 O.2   306  GLN306     -0.2718
      5  CB       -13.1490   63.8050   97.1910 C.3   306  GLN306      0.0381
      6  CG       -13.8180   62.7600   97.9990 C.3   306  GLN306      0.0905
      7  CD       -14.7770   61.8850   97.1950 C.2   306  GLN306      0.2608
      8  OE1      -14.8490   60.6770   97.4230 O.2   306  GLN306     -0.2717
      9  NE2      -15.5240   62.5010   96.2410 N.am  306  GLN306     -0.0878
     10  N        -10.1840   64.7900   96.2040 N.am  307  LEU307     -0.1966
     11  CA        -9.4720   65.5630   95.1910 C.3   307  LEU307      0.1728
     12  C        -10.4240   65.9340   94.0580 C.2   307  LEU307      0.2617
     13  O        -10.3300   67.0340   93.5040 O.2   307  LEU307     -0.2715
     14  CB        -8.3110   64.7690   94.6470 C.3   307  LEU307      0.0311
     15  CG        -7.0350   64.7420   95.5030 C.3   307  LEU307      0.0022
     16  CD1       -6.0960   63.5830   95.0490 C.3   307  LEU307      0.0001
     17  CD2       -6.3350   66.0810   95.4820 C.3   307  LEU307      0.0001
     18  N        -11.3280   65.0170   93.7550 N.am  308  SER308     -0.1936
     19  CA       -12.1870   65.1610   92.5680 C.3   308  SER308      0.2055
     20  C        -13.1240   66.3270   92.7310 C.2   308  SER308      0.2643
     21  O        -13.2200   67.1700   91.8270 O.2   308  SER308     -0.2714
     22  CB       -12.9800   63.8820   92.3280 C.3   308  SER308      0.2130
     23  OG       -13.7710   63.5260   93.4300 O.3   308  SER308     -0.2179
     24  N        -13.8240   66.3940   93.8550 N.am  309  ASP309     -0.1957
     25  CA       -14.8590   67.4140   94.0340 C.3   309  ASP309      0.1840
     26  C        -14.7980   68.2170   95.3180 C.2   309  ASP309      0.2622
     27  O        -15.6400   69.0560   95.5650 O.2   309  ASP309     -0.2715
     28  CB       -16.2410   66.7760   93.8610 C.3   309  ASP309      0.1450
     29  CG       -16.6070   65.8220   94.9730 C.2   309  ASP309      0.3671
     30  OD1      -15.7480   65.4970   95.8300 O.co2 309  ASP309     -0.2456
     31  OD2      -17.7820   65.3740   94.9990 O.co2 309  ASP309     -0.2456
     32  N        -13.7810   67.9880   96.1560 N.am  310  GLY310     -0.1954
     33  CA       -13.6660   68.7060   97.4090 C.3   310  GLY310      0.1869
     34  C        -14.6290   68.3280   98.5180 C.2   310  GLY310      0.2309
     35  O        -14.6580   68.9930   99.5710 O.2   310  GLY310     -0.2863
     36  N         -7.4390   64.0750   99.7640 N.3   341  PHE341     -0.1241
     37  CA        -6.4160   64.9620  100.3240 C.3   341  PHE341      0.1605
     38  C         -6.7830   65.3900  101.7350 C.2   341  PHE341      0.2264
     39  O         -7.9240   65.2290  102.2080 O.2   341  PHE341     -0.2867
     40  CB        -6.1280   66.1650   99.4160 C.3   341  PHE341      0.0534
     41  CG        -7.2070   67.2090   99.3880 C.ar  341  PHE341     -0.0203
     42  CD1       -8.2790   67.1150   98.4780 C.ar  341  PHE341     -0.0042
     43  CD2       -7.1560   68.3130  100.2120 C.ar  341  PHE341     -0.0042
     44  CE1       -9.2230   68.1050   98.4490 C.ar  341  PHE341     -0.0003
     45  CE2       -8.1200   69.2830  100.1910 C.ar  341  PHE341     -0.0003
     46  CZ        -9.1540   69.1810   99.2850 C.ar  341  PHE341     -0.0000
     47  N         -6.7500   72.0420  102.9950 N.3   344  ARG344     -0.1245
     48  CA        -6.4820   73.1350  102.0900 C.3   344  ARG344      0.1563
     49  C         -5.5970   74.1410  102.7800 C.2   344  ARG344      0.2260
     50  O         -5.8740   74.5780  103.8840 O.2   344  ARG344     -0.2867
     51  CB        -7.7840   73.8140  101.6640 C.3   344  ARG344      0.0307
     52  CG        -8.6290   73.0290  100.6650 C.3   344  ARG344      0.0489
     53  CD        -9.4090   73.9520   99.6810 C.3   344  ARG344      0.2205
     54  NE       -10.2110   73.1580   98.7580 N.pl3 344  ARG344     -0.0865
     55  CZ        -9.8260   72.8480   97.5340 C.cat 344  ARG344      0.5346
     56  NH1       -8.6540   73.2960   97.0850 N.pl3 344  ARG344      0.1354
     57  NH2      -10.6090   72.1110   96.7650 N.pl3 344  ARG344      0.1354
     58  N         -5.1980   72.2490   97.6620 N.3   351  ALA351     -0.1245
     59  CA        -5.4360   70.9590   98.2650 C.3   351  ALA351      0.1562
     60  C         -4.0670   70.3210   98.5100 C.2   351  ALA351      0.2260
     61  O         -3.2500   70.2680   97.5900 O.2   351  ALA351     -0.2867
     62  CB        -6.2520   70.0650   97.3140 C.3   351  ALA351      0.0290
     63  N         -1.4510   76.1860   92.5380 N.3   465  ARG465     -0.1231
     64  CA        -1.9110   75.2450   93.5570 C.3   465  ARG465      0.1694
     65  C         -1.5660   73.8050   93.2040 C.2   465  ARG465      0.2591
     66  O         -1.2430   72.9880   94.0720 O.2   465  ARG465     -0.2718
     67  CB        -3.4140   75.3860   93.8030 C.3   465  ARG465      0.0321
     68  CG        -3.7870   76.6700   94.4370 C.3   465  ARG465      0.0489
     69  CD        -5.2890   76.9020   94.4660 C.3   465  ARG465      0.2205
     70  NE        -5.5550   78.1800   95.0830 N.pl3 465  ARG465     -0.0865
     71  CZ        -6.3690   79.1370   94.6340 C.cat 465  ARG465      0.5346
     72  NH1       -7.1210   78.9620   93.5550 N.pl3 465  ARG465      0.1354
     73  NH2       -6.4910   80.2630   95.3230 N.pl3 465  ARG465      0.1354
     74  N         -1.6150   73.4630   91.9190 N.am  466  GLU466     -0.1979
     75  CA        -1.2570   72.1200   91.5180 C.3   466  GLU466      0.1602
     76  C          0.2290   71.8850   91.7800 C.2   466  GLU466      0.2287
     77  O          0.6160   70.7920   92.2100 O.2   466  GLU466     -0.2864
     78  CB        -1.5780   71.8980   90.0310 C.3   466  GLU466      0.0415
     79  CG        -3.0680   71.9040   89.7660 C.3   466  GLU466      0.1163
     80  CD        -3.7600   70.6290   90.1990 C.2   466  GLU466      0.3649
     81  OE1       -3.0490   69.6120   90.4780 O.co2 466  GLU466     -0.2457
     82  OE2       -5.0190   70.6470   90.2590 O.co2 466  GLU466     -0.2457
@<TRIPOS>BOND
     1    79    78    1
     2    79    80    1
     3    78    75    1
     4    80    82   ar
     5    80    81   ar
     6    75    76    1
     7    75    74    1
     8    76    77    2
     9    21    20    2
    10    74    65   am
    11    22    19    1
    12    22    23    1
    13    63    64    1
    14    19    20    1
    15    19    18    1
    16    20    24   am
    17    65    64    1
    18    65    66    2
    19    13    12    2
    20    72    71    1
    21    64    67    1
    22    18    12   am
    23    67    68    1
    24    24    25    1
    25    28    25    1
    26    28    29    1
    27    25    26    1
    28    12    11    1
    29    68    69    1
    30    69    70    1
    31    71    70    2
    32    71    73    1
    33    14    11    1
    34    14    15    1
    35    29    31   ar
    36    29    30   ar
    37    16    15    1
    38    11    10    1
    39    26    27    2
    40    26    32   am
    41    17    15    1
    42    32    33    1
    43    10     3   am
    44     9     7   am
    45    57    55    1
    46     4     3    2
    47     3     2    1
    48    56    55    1
    49     5     2    1
    50     5     6    1
    51     7     8    2
    52     7     6    1
    53    62    59    1
    54    33    34    1
    55    55    54    2
    56    61    60    2
    57    58    59    1
    58     2     1    1
    59    59    60    1
    60    44    42   ar
    61    44    46   ar
    62    42    41   ar
    63    34    35    2
    64    54    53    1
    65    46    45   ar
    66    41    40    1
    67    41    43   ar
    68    40    37    1
    69    53    52    1
    70    36    37    1
    71    45    43   ar
    72    37    38    1
    73    52    51    1
    74    51    48    1
    75    38    39    2
    76    48    49    1
    77    48    47    1
    78    49    50    2
