@<TRIPOS>MOLECULE
tmp/3owqC00.pdb
 90 80 0 0 0
SMALL
GASTEIGER

@<TRIPOS>ATOM
      1  N        -13.8220   17.9790   33.5190 N.3     9  LEU9       -0.1245
      2  CA       -13.1060   16.7680   33.9440 C.3     9  LEU9        0.1561
      3  C        -13.0550   16.8070   35.4660 C.2     9  LEU9        0.2260
      4  O        -12.6410   17.8080   36.0470 O.2     9  LEU9       -0.2867
      5  CB       -11.6620   16.7300   33.3930 C.3     9  LEU9        0.0270
      6  CG       -11.4080   16.5480   31.8860 C.3     9  LEU9        0.0019
      7  CD1      -12.6410   15.9680   31.2320 C.3     9  LEU9        0.0001
      8  CD2      -11.0410   17.8830   31.2230 C.3     9  LEU9        0.0001
      9  N        -12.3630   14.3840   39.2640 N.3    10  GLY10      -0.1225
     10  CA       -11.9080   13.1780   39.9290 C.3    10  GLY10       0.1811
     11  C        -12.4240   13.1250   41.3560 C.2    10  GLY10       0.2280
     12  O        -12.2910   14.0910   42.1160 O.2    10  GLY10      -0.2866
     13  N        -10.9880   16.9700   42.3130 N.3    16  THR16      -0.1218
     14  CA       -10.2410   17.7220   41.3100 C.3    16  THR16       0.1862
     15  C        -11.2770   18.2010   40.3180 C.2    16  THR16       0.2287
     16  O        -12.1370   17.4340   39.8990 O.2    16  THR16      -0.2866
     17  CB        -9.1750   16.8720   40.5720 C.3    16  THR16       0.1770
     18  OG1       -8.2110   16.3780   41.5100 O.3    16  THR16      -0.2211
     19  CG2       -8.4430   17.7290   39.5430 C.3    16  THR16       0.0375
     20  N        -11.6650   20.5020   36.7260 N.3    18  ILE18      -0.1245
     21  CA       -11.1010   21.2420   35.6160 C.3    18  ILE18       0.1561
     22  C        -12.1600   21.4900   34.5390 C.2    18  ILE18       0.2260
     23  O        -12.7590   20.5500   34.0160 O.2    18  ILE18      -0.2867
     24  CB        -9.9380   20.4880   34.9830 C.3    18  ILE18       0.0252
     25  CG1       -8.9870   20.0130   36.0730 C.3    18  ILE18       0.0019
     26  CG2       -9.2210   21.3910   33.9960 C.3    18  ILE18       0.0019
     27  CD1       -7.7170   19.4140   35.5550 C.3    18  ILE18       0.0001
     28  N        -16.6900   14.3590   32.2100 N.3    71  ILE71      -0.1245
     29  CA       -16.0300   13.0660   32.4090 C.3    71  ILE71       0.1561
     30  C        -15.5700   13.0070   33.8640 C.2    71  ILE71       0.2260
     31  O        -14.8170   13.8770   34.3230 O.2    71  ILE71      -0.2867
     32  CB       -14.7700   12.8490   31.5310 C.3    71  ILE71       0.0252
     33  CG1      -15.0970   12.9230   30.0390 C.3    71  ILE71       0.0019
     34  CG2      -14.1980   11.4950   31.8330 C.3    71  ILE71       0.0019
     35  CD1      -15.2860   14.3350   29.5270 C.3    71  ILE71       0.0001
     36  N        -13.9240   10.3470   36.8510 N.3    73  ILE73      -0.1245
     37  CA       -13.2260    9.0850   37.1090 C.3    73  ILE73       0.1561
     38  C        -12.5540    9.0770   38.4730 C.2    73  ILE73       0.2260
     39  O        -12.0640   10.1010   38.9260 O.2    73  ILE73      -0.2867
     40  CB       -12.1350    8.8210   36.0450 C.3    73  ILE73       0.0252
     41  CG1      -11.2620   10.0670   35.8630 C.3    73  ILE73       0.0019
     42  CG2      -12.7680    8.4200   34.7380 C.3    73  ILE73       0.0019
     43  CD1      -10.1090   10.1570   36.8250 C.3    73  ILE73       0.0001
     44  N         -8.6190    6.1190   36.9510 N.3    77  PHE77      -0.1241
     45  CA        -7.5950    6.9460   36.3340 C.3    77  PHE77       0.1605
     46  C         -6.5070    5.9700   35.8850 C.2    77  PHE77       0.2264
     47  O         -6.1710    5.9050   34.7080 O.2    77  PHE77      -0.2867
     48  CB        -7.0320    7.9380   37.3620 C.3    77  PHE77       0.0534
     49  CG        -5.8340    8.7200   36.8830 C.ar   77  PHE77      -0.0203
     50  CD1       -5.9640    9.7060   35.9140 C.ar   77  PHE77      -0.0042
     51  CD2       -4.5670    8.4570   37.4040 C.ar   77  PHE77      -0.0042
     52  CE1       -4.8490   10.4320   35.4690 C.ar   77  PHE77      -0.0003
     53  CE2       -3.4490    9.1700   36.9720 C.ar   77  PHE77      -0.0003
     54  CZ        -3.5880   10.1590   35.9970 C.ar   77  PHE77      -0.0000
     55  N         -7.2910    3.8700   32.8950 N.3    80  LEU80      -0.1245
     56  CA        -7.4060    4.6440   31.6660 C.3    80  LEU80       0.1561
     57  C         -6.0330    4.7970   31.0340 C.2    80  LEU80       0.2260
     58  O         -5.8440    4.4960   29.8520 O.2    80  LEU80      -0.2867
     59  CB        -8.0060    6.0140   31.9500 C.3    80  LEU80       0.0270
     60  CG        -7.9730    7.0560   30.8310 C.3    80  LEU80       0.0019
     61  CD1       -8.6360    6.5520   29.5580 C.3    80  LEU80       0.0001
     62  CD2       -8.6770    8.2840   31.3540 C.3    80  LEU80       0.0001
     63  N         -3.0110   14.9220   31.6530 N.3   139  ILE139     -0.1245
     64  CA        -4.2820   14.9980   30.9370 C.3   139  ILE139      0.1561
     65  C         -4.0400   15.0330   29.4310 C.2   139  ILE139      0.2260
     66  O         -4.7610   14.4040   28.6630 O.2   139  ILE139     -0.2867
     67  CB        -5.0730   16.2730   31.3110 C.3   139  ILE139      0.0252
     68  CG1       -5.4180   16.2700   32.8000 C.3   139  ILE139      0.0019
     69  CG2       -6.3380   16.3640   30.4810 C.3   139  ILE139      0.0019
     70  CD1       -5.9770   17.5760   33.3000 C.3   139  ILE139      0.0001
     71  N         -2.7990   11.6630   28.0780 N.3   142  ILE142     -0.1231
     72  CA        -3.9040   10.7370   27.8460 C.3   142  ILE142      0.1692
     73  C         -4.5870   11.0780   26.5260 C.2   142  ILE142      0.2591
     74  O         -4.8640   10.2020   25.7080 O.2   142  ILE142     -0.2718
     75  CB        -4.9640   10.8130   28.9750 C.3   142  ILE142      0.0266
     76  CG1       -4.4120   10.1810   30.2570 C.3   142  ILE142      0.0019
     77  CG2       -6.2510   10.1240   28.5310 C.3   142  ILE142      0.0020
     78  CD1       -5.3830   10.1700   31.4150 C.3   142  ILE142      0.0001
     79  N         -4.8480   12.3610   26.3160 N.am  143  ALA143     -0.1980
     80  CA        -5.5090   12.7880   25.0960 C.3   143  ALA143      0.1597
     81  C         -4.6970   12.4080   23.8640 C.2   143  ALA143      0.2287
     82  O         -5.2640   12.0040   22.8540 O.2   143  ALA143     -0.2864
     83  CB        -5.7530   14.2900   25.1230 C.3   143  ALA143      0.0319
     84  N         -5.2050    9.0410   22.9640 N.3   146  VAL146     -0.1245
     85  CA        -6.6090    8.8750   22.6080 C.3   146  VAL146      0.1561
     86  C         -6.8060    9.1120   21.1120 C.2   146  VAL146      0.2260
     87  O         -7.8210    8.7300   20.5470 O.2   146  VAL146     -0.2867
     88  CB        -7.5060    9.8620   23.3710 C.3   146  VAL146      0.0252
     89  CG1       -8.8690    9.9200   22.7360 C.3   146  VAL146      0.0019
     90  CG2       -7.6390    9.4200   24.8100 C.3   146  VAL146      0.0019
@<TRIPOS>BOND
     1    87    86    2
     2    86    85    1
     3    85    84    1
     4    85    88    1
     5    89    88    1
     6    82    81    2
     7    88    90    1
     8    81    80    1
     9    80    83    1
    10    80    79    1
    11    74    73    2
    12    79    73   am
    13    73    72    1
    14    72    71    1
    15    72    75    1
    16    77    75    1
    17    66    65    2
    18    75    76    1
    19    65    64    1
    20    35    33    1
    21    61    60    1
    22    58    57    2
    23    33    32    1
    24    76    78    1
    25    69    67    1
    26    60    62    1
    27    60    59    1
    28    64    67    1
    29    64    63    1
    30    57    56    1
    31     8     6    1
    32     7     6    1
    33    67    68    1
    34    32    34    1
    35    32    29    1
    36    56    59    1
    37    56    55    1
    38     6     5    1
    39    28    29    1
    40    29    30    1
    41    68    70    1
    42     5     2    1
    43     1     2    1
    44    30    31    2
    45     2     3    1
    46    26    24    1
    47    23    22    2
    48    22    21    1
    49    47    46    2
    50    42    40    1
    51    24    21    1
    52    24    25    1
    53     3     4    2
    54    52    50   ar
    55    52    54   ar
    56    27    25    1
    57    21    20    1
    58    41    40    1
    59    41    43    1
    60    46    45    1
    61    50    49   ar
    62    54    53   ar
    63    40    37    1
    64    45    44    1
    65    45    48    1
    66    36    37    1
    67    49    48    1
    68    49    51   ar
    69    53    51   ar
    70    37    38    1
    71    38    39    2
    72     9    10    1
    73    19    17    1
    74    16    15    2
    75    10    11    1
    76    15    14    1
    77    17    14    1
    78    17    18    1
    79    14    13    1
    80    11    12    2
