@<TRIPOS>MOLECULE
tmp/3owqD00.pdb
 90 83 0 0 0
SMALL
GASTEIGER

@<TRIPOS>ATOM
      1  N         19.7910   17.4070    4.2130 N.3    10  GLY10      -0.1210
      2  CA        19.3690   16.1120    3.7220 C.3    10  GLY10       0.1956
      3  C         19.9770   16.0600    2.3330 C.2    10  GLY10       0.2613
      4  O         19.5750   16.8300    1.4660 O.2    10  GLY10      -0.2717
      5  N         20.9630   15.1930    2.1180 N.am   11  SER11      -0.1938
      6  CA        21.6090   15.1010    0.8100 C.3    11  SER11       0.2055
      7  C         21.2760   13.8190    0.0550 C.2    11  SER11       0.2643
      8  O         20.1410   13.3410    0.0920 O.2    11  SER11      -0.2714
      9  CB        23.1290   15.2140    0.9590 C.3    11  SER11       0.2130
     10  OG        23.6580   14.0640    1.5960 O.3    11  SER11      -0.2179
     11  N         22.2810   13.2760   -0.6310 N.am   12  ASP12      -0.1971
     12  CA        22.1360   12.0570   -1.4290 C.3    12  ASP12       0.1709
     13  C         23.2640   11.0660   -1.1390 C.2    12  ASP12       0.2293
     14  O         24.2000   10.9340   -1.9270 O.2    12  ASP12      -0.2864
     15  CB        22.1520   12.4010   -2.9210 C.3    12  ASP12       0.1436
     16  CG        21.2650   13.5890   -3.2610 C.2    12  ASP12       0.3671
     17  OD1       20.0420   13.5160   -3.0010 O.co2  12  ASP12      -0.2456
     18  OD2       21.7960   14.5920   -3.7920 O.co2  12  ASP12      -0.2456
     19  N         20.5310   19.0480   -0.7070 N.3    16  ASP16      -0.1225
     20  CA        19.2320   19.4340   -1.2530 C.3    16  ASP16       0.1805
     21  C         18.1810   19.8760   -0.2420 C.2    16  ASP16       0.2598
     22  O         17.0850   20.2960   -0.6160 O.2    16  ASP16      -0.2718
     23  CB        18.6850   18.3050   -2.1270 C.3    16  ASP16       0.1424
     24  CG        19.5770   18.0200   -3.3370 C.2    16  ASP16       0.3668
     25  OD1       20.6540   17.4090   -3.1580 O.co2  16  ASP16      -0.2456
     26  OD2       19.2120   18.4220   -4.4660 O.co2  16  ASP16      -0.2456
     27  N         18.5080   19.7810    1.0400 N.am   17  THR17      -0.1953
     28  CA        17.6030   20.2230    2.0900 C.3    17  THR17       0.1897
     29  C         18.4810   20.9130    3.1030 C.2    17  THR17       0.2313
     30  O         19.4480   20.3420    3.5890 O.2    17  THR17      -0.2863
     31  CB        16.8670   19.0640    2.7550 C.3    17  THR17       0.1794
     32  OG1       16.0310   18.4200    1.7880 O.3    17  THR17      -0.2208
     33  CG2       15.9980   19.5750    3.8880 C.3    17  THR17       0.0378
     34  N         10.3470    8.5520    5.3880 N.3   119  LEU119     -0.1245
     35  CA        10.8730    9.1260    4.1580 C.3   119  LEU119      0.1561
     36  C          9.7250    9.4610    3.2250 C.2   119  LEU119      0.2260
     37  O          9.6000   10.5910    2.7640 O.2   119  LEU119     -0.2867
     38  CB        11.8190    8.1500    3.4630 C.3   119  LEU119      0.0270
     39  CG        12.3810    8.7330    2.1640 C.3   119  LEU119      0.0019
     40  CD1       13.1730    9.9990    2.4760 C.3   119  LEU119      0.0001
     41  CD2       13.2520    7.7090    1.4660 C.3   119  LEU119      0.0001
     42  N          7.2300   12.3590    4.2790 N.3   122  VAL122     -0.1231
     43  CA         7.7770   13.6970    4.0160 C.3   122  VAL122      0.1692
     44  C          8.0260   13.9880    2.5430 C.2   122  VAL122      0.2591
     45  O          8.4000   15.1090    2.1810 O.2   122  VAL122     -0.2718
     46  CB         9.1170   13.9500    4.7540 C.3   122  VAL122      0.0266
     47  CG1        8.9730   13.6240    6.2080 C.3   122  VAL122      0.0020
     48  CG2       10.2340   13.1380    4.1200 C.3   122  VAL122      0.0020
     49  N          7.8450   12.9820    1.6950 N.am  123  ARG123     -0.1980
     50  CA         8.0560   13.1760    0.2700 C.3   123  ARG123      0.1597
     51  C          6.7470   13.4500   -0.4420 C.2   123  ARG123      0.2287
     52  O          6.7400   13.8670   -1.6020 O.2   123  ARG123     -0.2864
     53  CB         8.7490   11.9620   -0.3420 C.3   123  ARG123      0.0334
     54  CG        10.2590   11.9300   -0.0650 C.3   123  ARG123      0.0492
     55  CD        10.9640   10.8550   -0.8890 C.3   123  ARG123      0.2205
     56  NE        12.4210   10.9440   -0.7990 N.pl3 123  ARG123     -0.0865
     57  CZ        13.2530   10.0540   -1.3340 C.cat 123  ARG123      0.5346
     58  NH1       12.7570    9.0130   -2.0010 N.pl3 123  ARG123      0.1354
     59  NH2       14.5720   10.1860   -1.1800 N.pl3 123  ARG123      0.1354
     60  N          3.7360   15.1000   -2.0320 N.3   125  ARG125     -0.1245
     61  CA         3.6320   16.4320   -2.6170 C.3   125  ARG125      0.1563
     62  C          2.2400   16.7630   -3.1480 C.2   125  ARG125      0.2260
     63  O          1.5690   17.6470   -2.6320 O.2   125  ARG125     -0.2867
     64  CB         4.6610   16.6170   -3.7430 C.3   125  ARG125      0.0307
     65  CG         6.0710   16.9940   -3.2790 C.3   125  ARG125      0.0489
     66  CD         6.9460   17.3410   -4.4790 C.3   125  ARG125      0.2205
     67  NE         8.2510   17.8950   -4.1130 N.pl3 125  ARG125     -0.0865
     68  CZ         9.2910   17.1780   -3.6920 C.cat 125  ARG125      0.5346
     69  NH1        9.1970   15.8560   -3.5770 N.pl3 125  ARG125      0.1354
     70  NH2       10.4310   17.7860   -3.3870 N.pl3 125  ARG125      0.1354
     71  N          4.6050   20.3580    2.9580 N.3   135  ARG135     -0.1245
     72  CA         5.8920   19.6530    2.9450 C.3   135  ARG135      0.1563
     73  C          6.8590   20.2460    3.9710 C.2   135  ARG135      0.2260
     74  O          7.6910   19.5310    4.5240 O.2   135  ARG135     -0.2867
     75  CB         6.5210   19.6880    1.5400 C.3   135  ARG135      0.0307
     76  CG         7.6080   18.6280    1.3030 C.3   135  ARG135      0.0489
     77  CD         8.1670   18.6890   -0.1300 C.3   135  ARG135      0.2205
     78  NE         8.9690   17.5190   -0.5040 N.pl3 135  ARG135     -0.0865
     79  CZ        10.1060   17.1460    0.0860 C.cat 135  ARG135      0.5346
     80  NH1       10.6050   17.8420    1.1000 N.pl3 135  ARG135      0.1354
     81  NH2       10.7590   16.0730   -0.3470 N.pl3 135  ARG135      0.1354
     82  N          8.2500   18.1340    7.1590 N.3   139  GLN139     -0.1245
     83  CA         9.6620   17.8580    7.3900 C.3   139  GLN139      0.1566
     84  C         10.0360   18.3580    8.7900 C.2   139  GLN139      0.2260
     85  O         11.0930   18.0210    9.3190 O.2   139  GLN139     -0.2867
     86  CB        10.5610   18.4910    6.3130 C.3   139  GLN139      0.0367
     87  CG        10.6080   20.0070    6.2760 C.3   139  GLN139      0.0905
     88  CD        11.8350   20.5340    5.5290 C.2   139  GLN139      0.2608
     89  OE1       12.1680   20.0610    4.4360 O.2   139  GLN139     -0.2717
     90  NE2       12.5060   21.5250    6.1170 N.am  139  GLN139     -0.0878
@<TRIPOS>BOND
     1    66    67    1
     2    66    65    1
     3    26    24   ar
     4    67    68    2
     5    18    16   ar
     6    64    65    1
     7    64    61    1
     8    68    69    1
     9    68    70    1
    10    24    25   ar
    11    24    23    1
    12    16    17   ar
    13    16    15    1
    14    62    63    2
    15    62    61    1
    16    15    12    1
    17    61    60    1
    18    23    20    1
    19    58    57    1
    20    14    13    2
    21    52    51    2
    22    12    13    1
    23    12    11    1
    24    57    59    1
    25    57    56    2
    26    20    19    1
    27    20    21    1
    28    55    56    1
    29    55    54    1
    30    11     7   am
    31    22    21    2
    32    78    77    1
    33    78    79    2
    34    51    50    1
    35    81    79    1
    36    53    54    1
    37    53    50    1
    38    21    27   am
    39    77    76    1
    40     7     8    2
    41     7     6    1
    42    79    80    1
    43    50    49    1
    44     6     9    1
    45     6     5    1
    46     9    10    1
    47    27    28    1
    48    76    75    1
    49     4     3    2
    50    41    39    1
    51    75    72    1
    52    49    44   am
    53    32    31    1
    54    28    31    1
    55    28    29    1
    56     5     3   am
    57    39    40    1
    58    39    38    1
    59    45    44    2
    60     3     2    1
    61    44    43    1
    62    31    33    1
    63    37    36    2
    64    72    71    1
    65    72    73    1
    66    29    30    2
    67    36    35    1
    68    38    35    1
    69     2     1    1
    70    73    74    2
    71    43    42    1
    72    43    46    1
    73    48    46    1
    74    35    34    1
    75    89    88    2
    76    46    47    1
    77    88    90   am
    78    88    87    1
    79    87    86    1
    80    86    83    1
    81    82    83    1
    82    83    84    1
    83    84    85    2
