@<TRIPOS>MOLECULE
tmp/3owxB01.pdb
 85 81 0 0 0
SMALL
GASTEIGER

@<TRIPOS>ATOM
      1  N         -2.3510    7.0170   -9.0730 N.3    65  ASN65      -0.1240
      2  CA        -2.4600    5.6200   -9.4960 C.3    65  ASN65       0.1653
      3  C         -1.9730    5.5670  -10.9430 C.2    65  ASN65       0.2266
      4  O         -2.6170    6.1300  -11.8390 O.2    65  ASN65      -0.2867
      5  CB        -3.9170    5.1360   -9.3770 C.3    65  ASN65       0.1155
      6  CG        -4.0970    3.6720   -9.7650 C.2    65  ASN65       0.2627
      7  OD1       -3.6170    3.2120  -10.8060 O.2    65  ASN65      -0.2716
      8  ND2       -4.8210    2.9340   -8.9280 N.am   65  ASN65      -0.0877
      9  N         -1.7350    3.2930  -13.3470 N.3    67  GLY67      -0.1210
     10  CA        -2.5780    2.6450  -14.3590 C.3    67  GLY67       0.1956
     11  C         -3.7590    3.5380  -14.7370 C.2    67  GLY67       0.2611
     12  O         -4.0480    3.7450  -15.9270 O.2    67  GLY67      -0.2717
     13  N         -4.4240    4.0770  -13.7240 N.am   68  VAL68      -0.1979
     14  CA        -5.5840    4.9710  -13.9330 C.3    68  VAL68       0.1595
     15  C         -5.1510    6.2180  -14.7190 C.2    68  VAL68       0.2287
     16  O         -5.7760    6.5840  -15.7350 O.2    68  VAL68      -0.2864
     17  CB        -6.2270    5.3680  -12.5760 C.3    68  VAL68       0.0276
     18  CG1       -7.2530    6.5100  -12.7520 C.3    68  VAL68       0.0022
     19  CG2       -6.8820    4.1330  -11.9360 C.3    68  VAL68       0.0022
     20  N         -3.0910    0.7950  -20.8910 N.3   121  GLN121     -0.1245
     21  CA        -4.4990    0.4940  -21.1300 C.3   121  GLN121      0.1566
     22  C         -5.0380    1.5360  -22.0980 C.2   121  GLN121      0.2260
     23  O         -4.6830    2.7250  -22.0110 O.2   121  GLN121     -0.2867
     24  CB        -5.2980    0.4810  -19.8140 C.3   121  GLN121      0.0367
     25  CG        -6.7860    0.0820  -19.9870 C.3   121  GLN121      0.0905
     26  CD        -7.4850   -0.1320  -18.6670 C.2   121  GLN121      0.2608
     27  OE1       -6.8750    0.0030  -17.6140 O.2   121  GLN121     -0.2717
     28  NE2       -8.7740   -0.4880  -18.7170 N.am  121  GLN121     -0.0878
     29  N         -4.3570   -2.8450  -24.6290 N.3   125  PHE125     -0.1241
     30  CA        -5.4440   -3.6730  -24.1220 C.3   125  PHE125      0.1605
     31  C         -6.4900   -2.7760  -23.4820 C.2   125  PHE125      0.2264
     32  O         -6.2470   -1.6010  -23.2170 O.2   125  PHE125     -0.2867
     33  CB        -4.9320   -4.6770  -23.0740 C.3   125  PHE125      0.0534
     34  CG        -4.5250   -4.0350  -21.7540 C.ar  125  PHE125     -0.0203
     35  CD1       -3.2370   -3.5060  -21.5860 C.ar  125  PHE125     -0.0042
     36  CD2       -5.4280   -3.9400  -20.6980 C.ar  125  PHE125     -0.0042
     37  CE1       -2.8540   -2.9130  -20.3880 C.ar  125  PHE125     -0.0003
     38  CE2       -5.0540   -3.3290  -19.4710 C.ar  125  PHE125     -0.0003
     39  CZ        -3.7620   -2.8150  -19.3260 C.ar  125  PHE125     -0.0000
     40  N        -10.1350   -3.4160  -20.6290 N.3   127  ILE127     -0.1245
     41  CA       -10.8650   -4.3640  -19.8030 C.3   127  ILE127      0.1561
     42  C        -12.3360   -4.0320  -20.0400 C.2   127  ILE127      0.2260
     43  O        -12.8140   -3.0130  -19.5280 O.2   127  ILE127     -0.2867
     44  CB       -10.5160   -4.2130  -18.2960 C.3   127  ILE127      0.0252
     45  CG1       -9.0090   -4.0010  -18.0710 C.3   127  ILE127      0.0019
     46  CG2      -11.0560   -5.4010  -17.4820 C.3   127  ILE127      0.0019
     47  CD1       -8.1540   -5.2470  -18.2430 C.3   127  ILE127      0.0001
     48  N         -8.6230   -8.0940  -23.9750 N.3   130  PHE130     -0.1227
     49  CA        -7.2980   -8.6520  -23.6880 C.3   130  PHE130      0.1736
     50  C         -7.2390  -10.1110  -24.1360 C.2   130  PHE130      0.2595
     51  O         -8.2660  -10.6790  -24.5220 O.2   130  PHE130     -0.2718
     52  CB        -6.9360   -8.4960  -22.2010 C.3   130  PHE130      0.0547
     53  CG        -7.9630   -9.0710  -21.2540 C.ar  130  PHE130     -0.0202
     54  CD1       -8.9650   -8.2660  -20.7230 C.ar  130  PHE130     -0.0042
     55  CD2       -7.9210  -10.4160  -20.8890 C.ar  130  PHE130     -0.0042
     56  CE1       -9.9240   -8.7990  -19.8440 C.ar  130  PHE130     -0.0003
     57  CE2       -8.8790  -10.9610  -20.0140 C.ar  130  PHE130     -0.0003
     58  CZ        -9.8790  -10.1450  -19.4990 C.ar  130  PHE130     -0.0000
     59  N         -6.0530  -10.7110  -24.0420 N.am  131  TYR131     -0.1976
     60  CA        -5.7190  -11.9830  -24.6990 C.3   131  TYR131      0.1639
     61  C         -6.1930  -11.9770  -26.1580 C.2   131  TYR131      0.2290
     62  O         -5.8190  -11.0700  -26.9010 O.2   131  TYR131     -0.2864
     63  CB        -6.1520  -13.2200  -23.8770 C.3   131  TYR131      0.0560
     64  CG        -5.3540  -13.3780  -22.5960 C.ar  131  TYR131     -0.0198
     65  CD1       -3.9660  -13.5260  -22.6290 C.ar  131  TYR131     -0.0009
     66  CD2       -5.9810  -13.3640  -21.3560 C.ar  131  TYR131     -0.0009
     67  CE1       -3.2310  -13.6530  -21.4630 C.ar  131  TYR131      0.0417
     68  CE2       -5.2580  -13.5030  -20.1800 C.ar  131  TYR131      0.0417
     69  CZ        -3.8830  -13.6380  -20.2420 C.ar  131  TYR131      0.1957
     70  OH        -3.1500  -13.7720  -19.0840 O.3   131  TYR131     -0.2866
     71  N          1.6920  -13.4400  -20.3690 N.3   173  GLY173     -0.1225
     72  CA         1.2270  -12.4010  -19.4620 C.3   173  GLY173      0.1811
     73  C          1.2900  -11.0260  -20.1130 C.2   173  GLY173      0.2280
     74  O          0.5120  -10.1540  -19.7640 O.2   173  GLY173     -0.2866
     75  N         -1.5220  -11.2840  -23.8340 N.3   177  PHE177     -0.1241
     76  CA        -2.4840  -10.4130  -23.1490 C.3   177  PHE177      0.1605
     77  C         -2.8980   -9.2180  -24.0130 C.2   177  PHE177      0.2264
     78  O         -4.0940   -8.8840  -24.0970 O.2   177  PHE177     -0.2867
     79  CB        -1.9420   -9.9470  -21.7790 C.3   177  PHE177      0.0534
     80  CG        -2.9600   -9.2650  -20.9390 C.ar  177  PHE177     -0.0203
     81  CD1       -3.8110  -10.0110  -20.1200 C.ar  177  PHE177     -0.0042
     82  CD2       -3.0910   -7.8790  -20.9580 C.ar  177  PHE177     -0.0042
     83  CE1       -4.7790   -9.3750  -19.3460 C.ar  177  PHE177     -0.0003
     84  CE2       -4.0570   -7.2450  -20.1830 C.ar  177  PHE177     -0.0003
     85  CZ        -4.9030   -8.0030  -19.3790 C.ar  177  PHE177     -0.0000
@<TRIPOS>BOND
     1    62    61    2
     2    61    60    1
     3    60    59    1
     4    60    63    1
     5    29    30    1
     6    51    50    2
     7    50    59   am
     8    50    49    1
     9    30    31    1
    10    30    33    1
    11    78    77    2
    12    77    76    1
    13    48    49    1
    14    63    64    1
    15    75    76    1
    16    49    52    1
    17    31    32    2
    18    76    79    1
    19    33    34    1
    20    65    64   ar
    21    65    67   ar
    22    64    66   ar
    23    52    53    1
    24    22    23    2
    25    22    21    1
    26    79    80    1
    27    34    35   ar
    28    34    36   ar
    29    35    37   ar
    30    67    69   ar
    31    66    68   ar
    32    53    55   ar
    33    53    54   ar
    34    21    20    1
    35    21    24    1
    36    82    80   ar
    37    82    84   ar
    38    80    81   ar
    39    55    57   ar
    40    54    56   ar
    41    36    38   ar
    42    40    41    1
    43    37    39   ar
    44    71    72    1
    45    69    68   ar
    46    69    70    1
    47    84    85   ar
    48    81    83   ar
    49    73    74    2
    50    73    72    1
    51    42    41    1
    52    42    43    2
    53    57    58   ar
    54    25    24    1
    55    25    26    1
    56    56    58   ar
    57    41    44    1
    58    38    39   ar
    59    85    83   ar
    60    28    26   am
    61    26    27    2
    62    44    45    1
    63    44    46    1
    64    47    45    1
    65    12    11    2
    66    16    15    2
    67    11    10    1
    68    11    13   am
    69    15    14    1
    70    10     9    1
    71    14    13    1
    72    14    17    1
    73    18    17    1
    74    17    19    1
    75     4     3    2
    76     3     2    1
    77     7     6    2
    78     6     5    1
    79     6     8   am
    80     2     5    1
    81     2     1    1
