@<TRIPOS>MOLECULE
tmp/3owxB03.pdb
 85 84 0 0 0
SMALL
GASTEIGER

@<TRIPOS>ATOM
      1  N         17.9700  -12.3410  -14.9780 N.3   104  TRP104     -0.1227
      2  CA        17.1240  -12.9130  -13.9250 C.3   104  TRP104      0.1737
      3  C         15.8260  -13.5310  -14.4770 C.2   104  TRP104      0.2595
      4  O         14.6950  -13.1880  -14.0420 O.2   104  TRP104     -0.2718
      5  CB        16.8210  -11.8690  -12.8290 C.3   104  TRP104      0.0564
      6  CG        18.0420  -11.4800  -12.0640 C.ar  104  TRP104      0.0003
      7  CD1       18.5970  -10.2380  -11.9730 C.ar  104  TRP104      0.0946
      8  CD2       18.8830  -12.3570  -11.3070 C.ar  104  TRP104      0.0152
      9  NE1       19.7350  -10.2820  -11.1920 N.ar  104  TRP104     -0.2442
     10  CE2       19.9300  -11.5710  -10.7680 C.ar  104  TRP104      0.0810
     11  CE3       18.8530  -13.7330  -11.0340 C.ar  104  TRP104      0.0012
     12  CZ2       20.9390  -12.1130   -9.9630 C.ar  104  TRP104      0.0191
     13  CZ3       19.8620  -14.2850  -10.2270 C.ar  104  TRP104      0.0001
     14  CH2       20.8960  -13.4690   -9.7080 C.ar  104  TRP104      0.0015
     15  N         15.9990  -14.4250  -15.4570 N.am  105  PHE105     -0.1976
     16  CA        14.8760  -15.2010  -16.0200 C.3   105  PHE105      0.1639
     17  C         13.8420  -14.2840  -16.6860 C.2   105  PHE105      0.2290
     18  O         12.6620  -14.6350  -16.7900 O.2   105  PHE105     -0.2864
     19  CB        14.1890  -16.0400  -14.9160 C.3   105  PHE105      0.0560
     20  CG        14.8430  -17.3880  -14.6340 C.ar  105  PHE105     -0.0200
     21  CD1       16.2240  -17.5340  -14.6090 C.ar  105  PHE105     -0.0042
     22  CD2       14.0390  -18.5080  -14.3470 C.ar  105  PHE105     -0.0042
     23  CE1       16.8180  -18.7870  -14.3300 C.ar  105  PHE105     -0.0003
     24  CE2       14.6170  -19.7530  -14.0530 C.ar  105  PHE105     -0.0003
     25  CZ        16.0050  -19.8890  -14.0440 C.ar  105  PHE105     -0.0000
     26  N         23.1270  -16.9450  -20.3460 N.3   148  GLY148     -0.1210
     27  CA        24.4020  -17.4180  -19.8040 C.3   148  GLY148      0.1956
     28  C         24.3850  -18.9280  -19.6530 C.2   148  GLY148      0.2612
     29  O         25.4150  -19.5870  -19.8190 O.2   148  GLY148     -0.2717
     30  N         23.2150  -19.4710  -19.3190 N.am  149  GLY149     -0.1956
     31  CA        23.0400  -20.9080  -19.0980 C.3   149  GLY149      0.1869
     32  C         22.9950  -21.6880  -20.4000 C.2   149  GLY149      0.2309
     33  O         22.5430  -21.1740  -21.4360 O.2   149  GLY149     -0.2863
     34  N         21.1880  -26.8400  -18.9940 N.3   153  MET153     -0.1230
     35  CA        20.7030  -26.2390  -17.7480 C.3   153  MET153      0.1702
     36  C         19.2340  -25.8510  -17.8400 C.2   153  MET153      0.2592
     37  O         18.5140  -25.8990  -16.8370 O.2   153  MET153     -0.2718
     38  CB        21.5510  -25.0280  -17.3550 C.3   153  MET153      0.0401
     39  CG        23.0100  -25.3670  -17.0950 C.3   153  MET153      0.0596
     40  SD        24.0310  -23.8880  -17.0250 S.3   153  MET153     -0.1393
     41  CE        25.6400  -24.5270  -17.4880 C.3   153  MET153      0.0692
     42  N         18.7970  -25.4790  -19.0430 N.am  154  TYR154     -0.1976
     43  CA        17.4060  -25.0980  -19.2800 C.3   154  TYR154      0.1639
     44  C         16.5040  -26.2260  -19.7810 C.2   154  TYR154      0.2290
     45  O         15.7000  -26.0290  -20.7000 O.2   154  TYR154     -0.2864
     46  CB        17.3200  -23.8830  -20.2080 C.3   154  TYR154      0.0560
     47  CG        17.6890  -22.6000  -19.5040 C.ar  154  TYR154     -0.0198
     48  CD1       16.8230  -22.0320  -18.5710 C.ar  154  TYR154     -0.0009
     49  CD2       18.9080  -21.9680  -19.7540 C.ar  154  TYR154     -0.0009
     50  CE1       17.1550  -20.8480  -17.8990 C.ar  154  TYR154      0.0417
     51  CE2       19.2480  -20.7860  -19.0940 C.ar  154  TYR154      0.0417
     52  CZ        18.3630  -20.2330  -18.1750 C.ar  154  TYR154      0.1957
     53  OH        18.6780  -19.0690  -17.5080 O.3   154  TYR154     -0.2866
     54  N         18.8820  -27.5900  -13.5290 N.3   159  VAL159     -0.1231
     55  CA        18.7260  -26.7330  -12.3330 C.3   159  VAL159      0.1692
     56  C         17.7370  -25.5900  -12.5570 C.2   159  VAL159      0.2592
     57  O         16.9000  -25.2890  -11.6900 O.2   159  VAL159     -0.2718
     58  CB        20.0900  -26.1450  -11.8170 C.3   159  VAL159      0.0266
     59  CG1       20.8070  -27.1360  -10.9110 C.3   159  VAL159      0.0020
     60  CG2       20.9960  -25.6790  -12.9720 C.3   159  VAL159      0.0020
     61  N         17.8300  -24.9800  -13.7380 N.am  160  ASN160     -0.1974
     62  CA        17.0430  -23.7960  -14.0710 C.3   160  ASN160      0.1688
     63  C         15.6280  -24.0970  -14.5420 C.2   160  ASN160      0.2292
     64  O         14.8440  -23.1780  -14.7700 O.2   160  ASN160     -0.2864
     65  CB        17.7740  -22.9720  -15.1280 C.3   160  ASN160      0.1181
     66  CG        18.9750  -22.2140  -14.5660 C.2   160  ASN160      0.2629
     67  OD1       19.6690  -21.5120  -15.3010 O.2   160  ASN160     -0.2716
     68  ND2       19.2160  -22.3440  -13.2730 N.am  160  ASN160     -0.0877
     69  N         28.6620  -16.9460  -24.5610 N.3   192  GLU192     -0.1231
     70  CA        29.9500  -16.6950  -23.9080 C.3   192  GLU192      0.1699
     71  C         30.7470  -17.9910  -23.7170 C.2   192  GLU192      0.2592
     72  O         31.9800  -17.9760  -23.7650 O.2   192  GLU192     -0.2718
     73  CB        29.7620  -15.9590  -22.5780 C.3   192  GLU192      0.0402
     74  CG        29.2890  -14.5010  -22.7550 C.3   192  GLU192      0.1161
     75  CD        28.7270  -13.8890  -21.4860 C.2   192  GLU192      0.3649
     76  OE1       27.6780  -14.3700  -20.9870 O.co2 192  GLU192     -0.2457
     77  OE2       29.3390  -12.9130  -20.9950 O.co2 192  GLU192     -0.2457
     78  N         30.0350  -19.0940  -23.5030 N.am  193  ILE193     -0.1980
     79  CA        30.6270  -20.4360  -23.3760 C.3   193  ILE193      0.1595
     80  C         30.9470  -21.0450  -24.7530 C.2   193  ILE193      0.2287
     81  O         31.9900  -21.6770  -24.9310 O.2   193  ILE193     -0.2864
     82  CB        29.7090  -21.3850  -22.5260 C.3   193  ILE193      0.0276
     83  CG1       29.7410  -20.9630  -21.0550 C.3   193  ILE193      0.0022
     84  CG2       30.1260  -22.8570  -22.6400 C.3   193  ILE193      0.0022
     85  CD1       28.7990  -21.7300  -20.1490 C.3   193  ILE193      0.0001
@<TRIPOS>BOND
     1    81    80    2
     2    80    79    1
     3    69    70    1
     4    70    71    1
     5    70    73    1
     6    72    71    2
     7    71    78   am
     8    78    79    1
     9    79    82    1
    10    74    73    1
    11    74    75    1
    12    84    82    1
    13    82    83    1
    14    75    77   ar
    15    75    76   ar
    16    33    32    2
    17    83    85    1
    18    45    44    2
    19    32    31    1
    20    26    27    1
    21    46    47    1
    22    46    43    1
    23    29    28    2
    24    27    28    1
    25    44    43    1
    26    49    47   ar
    27    49    51   ar
    28    28    30   am
    29    47    48   ar
    30    30    31    1
    31    43    42    1
    32    51    52   ar
    33    42    36   am
    34    34    35    1
    35    48    50   ar
    36    52    50   ar
    37    52    53    1
    38    36    35    1
    39    36    37    2
    40    35    38    1
    41    41    40    1
    42    38    39    1
    43    39    40    1
    44    18    17    2
    45    17    16    1
    46    16    15    1
    47    16    19    1
    48    15     3   am
    49    67    66    2
    50    65    66    1
    51    65    62    1
    52     1     2    1
    53    19    20    1
    54    64    63    2
    55    20    21   ar
    56    20    22   ar
    57    21    23   ar
    58    66    68   am
    59    63    62    1
    60     3     4    2
    61     3     2    1
    62    22    24   ar
    63    23    25   ar
    64    62    61    1
    65    24    25   ar
    66     2     5    1
    67    61    56   am
    68    54    55    1
    69    60    58    1
    70     5     6    1
    71    56    55    1
    72    56    57    2
    73    55    58    1
    74     6     7   ar
    75     6     8   ar
    76     7     9   ar
    77    58    59    1
    78     8    11   ar
    79     8    10   ar
    80     9    10   ar
    81    11    13   ar
    82    10    12   ar
    83    13    14   ar
    84    12    14   ar
