@<TRIPOS>MOLECULE
tmp/3ox1A02.pdb
 89 89 0 0 0
SMALL
GASTEIGER

@<TRIPOS>ATOM
      1  N          3.3390   -5.9290  -11.9140 N.3   103  TYR103     -0.1227
      2  CA         3.3690   -5.2620  -13.2070 C.3   103  TYR103      0.1736
      3  C          3.7430   -6.3040  -14.2440 C.2   103  TYR103      0.2595
      4  O          4.8630   -6.8410  -14.2180 O.2   103  TYR103     -0.2718
      5  CB         4.4240   -4.1470  -13.2490 C.3   103  TYR103      0.0548
      6  CG         4.0260   -2.7780  -12.7120 C.ar  103  TYR103     -0.0200
      7  CD1        2.9510   -2.6140  -11.8130 C.ar  103  TYR103     -0.0009
      8  CD2        4.7530   -1.6460  -13.0810 C.ar  103  TYR103     -0.0009
      9  CE1        2.6220   -1.3560  -11.3070 C.ar  103  TYR103      0.0417
     10  CE2        4.4280   -0.3790  -12.5770 C.ar  103  TYR103      0.0417
     11  CZ         3.3710   -0.2490  -11.6890 C.ar  103  TYR103      0.1957
     12  OH         3.0600    1.0070  -11.2160 O.3   103  TYR103     -0.2866
     13  N          2.8180   -6.5710  -15.1580 N.am  104  TRP104     -0.1962
     14  CA         3.0250   -7.5830  -16.2110 C.3   104  TRP104      0.1771
     15  C          3.5130   -8.8980  -15.6390 C.2   104  TRP104      0.2619
     16  O          4.4990   -9.4640  -16.1010 O.2   104  TRP104     -0.2715
     17  CB         3.9710   -7.0610  -17.2900 C.3   104  TRP104      0.0590
     18  CG         3.3490   -5.9590  -18.0270 C.ar  104  TRP104      0.0006
     19  CD1        3.7390   -4.6440  -18.0510 C.ar  104  TRP104      0.0946
     20  CD2        2.1700   -6.0520  -18.8270 C.ar  104  TRP104      0.0152
     21  NE1        2.8750   -3.9150  -18.8380 N.ar  104  TRP104     -0.2442
     22  CE2        1.9030   -4.7630  -19.3280 C.ar  104  TRP104      0.0810
     23  CE3        1.3190   -7.1140  -19.1820 C.ar  104  TRP104      0.0012
     24  CZ2        0.8160   -4.4990  -20.1760 C.ar  104  TRP104      0.0191
     25  CZ3        0.2330   -6.8490  -20.0130 C.ar  104  TRP104      0.0001
     26  CH2       -0.0060   -5.5430  -20.5020 C.ar  104  TRP104      0.0015
     27  N          2.8150   -9.3590  -14.5990 N.am  105  PHE105     -0.1974
     28  CA         3.1040  -10.6590  -13.9740 C.3   105  PHE105      0.1639
     29  C          4.5280  -10.7440  -13.4330 C.2   105  PHE105      0.2290
     30  O          5.1260  -11.8150  -13.3710 O.2   105  PHE105     -0.2864
     31  CB         2.7260  -11.7930  -14.9430 C.3   105  PHE105      0.0560
     32  CG         1.2690  -11.7240  -15.3690 C.ar  105  PHE105     -0.0200
     33  CD1        0.8910  -10.9970  -16.4910 C.ar  105  PHE105     -0.0042
     34  CD2        0.2740  -12.2980  -14.5880 C.ar  105  PHE105     -0.0042
     35  CE1       -0.4670  -10.9040  -16.8750 C.ar  105  PHE105     -0.0003
     36  CE2       -1.0800  -12.2090  -14.9560 C.ar  105  PHE105     -0.0003
     37  CZ        -1.4510  -11.5120  -16.1080 C.ar  105  PHE105     -0.0000
     38  N         -4.0900   -6.4610   -9.7050 N.3   148  GLY148     -0.1210
     39  CA        -5.3290   -5.9430  -10.2650 C.3   148  GLY148      0.1956
     40  C         -6.3840   -7.0410  -10.2740 C.2   148  GLY148      0.2612
     41  O         -7.5360   -6.8120   -9.8960 O.2   148  GLY148     -0.2717
     42  N         -5.9650   -8.2390  -10.6780 N.am  149  GLY149     -0.1956
     43  CA        -6.8470   -9.3950  -10.8410 C.3   149  GLY149      0.1869
     44  C         -7.2670  -10.1040   -9.5640 C.2   149  GLY149      0.2309
     45  O         -6.4510  -10.3450   -8.6660 O.2   149  GLY149     -0.2863
     46  N         -9.3250  -15.2360  -10.8370 N.3   153  MET153     -0.1230
     47  CA        -8.5830  -15.0840  -12.0990 C.3   153  MET153      0.1702
     48  C         -7.2010  -15.7520  -12.0630 C.2   153  MET153      0.2592
     49  O         -6.6330  -16.0640  -13.1150 O.2   153  MET153     -0.2718
     50  CB        -8.4540  -13.6070  -12.4920 C.3   153  MET153      0.0401
     51  CG        -9.7780  -12.8980  -12.7270 C.3   153  MET153      0.0596
     52  SD        -9.5760  -11.1090  -12.8180 S.3   153  MET153     -0.1393
     53  CE       -11.2430  -10.5180  -12.5320 C.3   153  MET153      0.0692
     54  N         -6.6820  -15.9810  -10.8530 N.am  154  TYR154     -0.1976
     55  CA        -5.3660  -16.6060  -10.6550 C.3   154  TYR154      0.1639
     56  C         -5.4090  -18.0860  -10.2200 C.2   154  TYR154      0.2290
     57  O         -4.5970  -18.5400   -9.4130 O.2   154  TYR154     -0.2864
     58  CB        -4.4900  -15.7630   -9.7090 C.3   154  TYR154      0.0560
     59  CG        -3.9530  -14.5080  -10.3640 C.ar  154  TYR154     -0.0198
     60  CD1       -2.9000  -14.5720  -11.2790 C.ar  154  TYR154     -0.0009
     61  CD2       -4.5100  -13.2590  -10.0820 C.ar  154  TYR154     -0.0009
     62  CE1       -2.4160  -13.4240  -11.8930 C.ar  154  TYR154      0.0417
     63  CE2       -4.0330  -12.1070  -10.6890 C.ar  154  TYR154      0.0417
     64  CZ        -2.9860  -12.1980  -11.5900 C.ar  154  TYR154      0.1957
     65  OH        -2.5130  -11.0590  -12.1880 O.3   154  TYR154     -0.2866
     66  N         -8.5850  -16.8900  -15.8510 N.3   159  VAL159     -0.1231
     67  CA        -8.0430  -16.1900  -17.0320 C.3   159  VAL159      0.1692
     68  C         -6.5030  -16.1040  -17.0720 C.2   159  VAL159      0.2592
     69  O         -5.8970  -16.2520  -18.1380 O.2   159  VAL159     -0.2718
     70  CB        -8.7000  -14.7860  -17.2670 C.3   159  VAL159      0.0266
     71  CG1      -10.2090  -14.9210  -17.4190 C.3   159  VAL159      0.0020
     72  CG2       -8.3640  -13.8010  -16.1500 C.3   159  VAL159      0.0020
     73  N         -5.8770  -15.8860  -15.9140 N.am  160  ASN160     -0.1974
     74  CA        -4.4300  -15.6540  -15.8510 C.3   160  ASN160      0.1688
     75  C         -3.6000  -16.8850  -15.5240 C.2   160  ASN160      0.2292
     76  O         -2.3690  -16.8290  -15.5430 O.2   160  ASN160     -0.2864
     77  CB        -4.1080  -14.5470  -14.8450 C.3   160  ASN160      0.1181
     78  CG        -4.6760  -13.2000  -15.2460 C.2   160  ASN160      0.2629
     79  OD1       -4.8550  -12.9060  -16.4340 O.2   160  ASN160     -0.2716
     80  ND2       -4.9620  -12.3660  -14.2500 N.am  160  ASN160     -0.0877
     81  N         -8.1940   -2.6910   -5.3130 N.3   192  GLU192     -0.1245
     82  CA        -8.8870   -1.5420   -5.9000 C.3   192  GLU192      0.1567
     83  C        -10.3990   -1.7390   -5.9880 C.2   192  GLU192      0.2260
     84  O        -11.1640   -0.7710   -5.9330 O.2   192  GLU192     -0.2867
     85  CB        -8.3240   -1.2140   -7.2850 C.3   192  GLU192      0.0388
     86  CG        -6.9720   -0.5080   -7.2760 C.3   192  GLU192      0.1160
     87  CD        -6.2750   -0.5990   -8.6240 C.2   192  GLU192      0.3649
     88  OE1       -5.7220   -1.6780   -8.9480 O.co2 192  GLU192     -0.2457
     89  OE2       -6.2940    0.4100   -9.3600 O.co2 192  GLU192     -0.2457
@<TRIPOS>BOND
     1    26    24   ar
     2    26    25   ar
     3    24    22   ar
     4    25    23   ar
     5    22    21   ar
     6    22    20   ar
     7    23    20   ar
     8    21    19   ar
     9    20    18   ar
    10    69    68    2
    11    19    18   ar
    12    18    17    1
    13    71    70    1
    14    17    14    1
    15    70    67    1
    16    70    72    1
    17    68    67    1
    18    68    73   am
    19    67    66    1
    20    35    33   ar
    21    35    37   ar
    22    33    32   ar
    23    79    78    2
    24    14    15    1
    25    14    13    1
    26    37    36   ar
    27    16    15    2
    28    73    74    1
    29    74    75    1
    30    74    77    1
    31    15    27   am
    32    76    75    2
    33    32    31    1
    34    32    34   ar
    35    78    77    1
    36    78    80   am
    37    13     3   am
    38    36    34   ar
    39    31    28    1
    40    27    28    1
    41     3     4    2
    42     3     2    1
    43    28    29    1
    44    29    30    2
    45     5     2    1
    46     5     6    1
    47     2     1    1
    48    49    48    2
    49     8     6   ar
    50     8    10   ar
    51    52    51    1
    52    52    53    1
    53    51    50    1
    54     6     7   ar
    55    10    11   ar
    56    50    47    1
    57    65    64    1
    58    47    48    1
    59    47    46    1
    60    48    54   am
    61    62    64   ar
    62    62    60   ar
    63     7     9   ar
    64    11     9   ar
    65    11    12    1
    66    64    63   ar
    67    60    59   ar
    68    54    55    1
    69    43    42    1
    70    43    44    1
    71    63    61   ar
    72    42    40   am
    73    55    56    1
    74    55    58    1
    75    59    61   ar
    76    59    58    1
    77    40    39    1
    78    40    41    2
    79    39    38    1
    80    56    57    2
    81    44    45    2
    82    89    87   ar
    83    88    87   ar
    84    87    86    1
    85    85    86    1
    86    85    82    1
    87    83    84    2
    88    83    82    1
    89    82    81    1
