@<TRIPOS>MOLECULE
tmp/3ox2A01.pdb
 100 96 0 0 0
SMALL
GASTEIGER

@<TRIPOS>ATOM
      1  N         28.6980   -5.9340  -19.2440 N.3    67  TYR67      -0.1227
      2  CA        28.1330   -5.6250  -17.9200 C.3    67  TYR67       0.1736
      3  C         28.4190   -6.6540  -16.8180 C.2    67  TYR67       0.2596
      4  O         28.8830   -6.2920  -15.7400 O.2    67  TYR67      -0.2718
      5  CB        26.6180   -5.3440  -17.9960 C.3    67  TYR67       0.0548
      6  CG        26.0940   -4.7880  -16.6900 C.ar   67  TYR67      -0.0200
      7  CD1       26.2470   -3.4290  -16.3870 C.ar   67  TYR67      -0.0009
      8  CD2       25.4870   -5.6240  -15.7270 C.ar   67  TYR67      -0.0009
      9  CE1       25.7980   -2.9090  -15.2020 C.ar   67  TYR67       0.0417
     10  CE2       25.0210   -5.1000  -14.5390 C.ar   67  TYR67       0.0417
     11  CZ        25.1870   -3.7440  -14.2760 C.ar   67  TYR67       0.1957
     12  OH        24.7700   -3.2150  -13.0730 O.3    67  TYR67      -0.2866
     13  N         28.1150   -7.9240  -17.0850 N.am   68  GLY68      -0.1957
     14  CA        28.3500   -8.9990  -16.1330 C.3    68  GLY68       0.1869
     15  C         29.7850   -9.0210  -15.6690 C.2    68  GLY68       0.2309
     16  O         30.0620   -8.9870  -14.4700 O.2    68  GLY68      -0.2863
     17  N         31.0480   -5.6610  -13.7510 N.3    71  THR71      -0.1218
     18  CA        30.4700   -5.4340  -12.4360 C.3    71  THR71       0.1862
     19  C         31.0200   -6.4440  -11.4500 C.2    71  THR71       0.2287
     20  O         31.2240   -6.1060  -10.3030 O.2    71  THR71      -0.2866
     21  CB        28.9000   -5.4090  -12.4050 C.3    71  THR71       0.1770
     22  OG1       28.3620   -6.6470  -12.8980 O.3    71  THR71      -0.2211
     23  CG2       28.3770   -4.2320  -13.1910 C.3    71  THR71       0.0375
     24  N         17.2560   -5.6010   -8.8100 N.3   116  MET116     -0.1230
     25  CA        17.7220   -6.9800   -8.8890 C.3   116  MET116      0.1702
     26  C         18.8630   -7.1170   -9.8800 C.2   116  MET116      0.2592
     27  O         19.8720   -7.7590   -9.5820 O.2   116  MET116     -0.2718
     28  CB        16.5700   -7.8720   -9.2900 C.3   116  MET116      0.0401
     29  CG        15.5450   -7.9760   -8.2080 C.3   116  MET116      0.0596
     30  SD        13.9820   -8.5970   -8.8510 S.3   116  MET116     -0.1393
     31  CE        13.3590   -8.8100   -7.1420 C.3   116  MET116      0.0692
     32  N         18.6920   -6.5430  -11.0690 N.am  117  ASP117     -0.1974
     33  CA        19.7790   -6.5260  -12.0890 C.3   117  ASP117      0.1709
     34  C         21.0770   -5.9150  -11.5370 C.2   117  ASP117      0.2293
     35  O         22.1590   -6.4240  -11.8150 O.2   117  ASP117     -0.2864
     36  CB        19.3930   -5.7390  -13.3690 C.3   117  ASP117      0.1436
     37  CG        18.2220   -6.3550  -14.1480 C.2   117  ASP117      0.3671
     38  OD1       17.8210   -7.5210  -13.8880 O.co2 117  ASP117     -0.2456
     39  OD2       17.7030   -5.6550  -15.0640 O.co2 117  ASP117     -0.2456
     40  N         22.2810   -7.3900   -7.1340 N.3   120  LEU120     -0.1231
     41  CA        22.5720   -8.7840   -6.9510 C.3   120  LEU120      0.1693
     42  C         23.6090   -9.2710   -7.9780 C.2   120  LEU120      0.2592
     43  O         23.3120  -10.1380   -8.8000 O.2   120  LEU120     -0.2718
     44  CB        21.2790   -9.6110   -7.0980 C.3   120  LEU120      0.0284
     45  CG        20.0570   -9.2570   -6.2480 C.3   120  LEU120      0.0019
     46  CD1       18.8930  -10.1890   -6.5600 C.3   120  LEU120      0.0001
     47  CD2       20.3600   -9.3270   -4.7700 C.3   120  LEU120      0.0001
     48  N         24.8130   -8.7120   -7.9340 N.am  121  CYS121     -0.1956
     49  CA        25.8330   -9.0400   -8.9250 C.3   121  CYS121      0.1843
     50  C         26.6610  -10.2940   -8.5740 C.2   121  CYS121      0.2625
     51  O         26.5880  -10.8170   -7.4530 O.2   121  CYS121     -0.2714
     52  CB        26.7260   -7.8210   -9.2080 C.3   121  CYS121      0.0997
     53  SG        27.9140   -7.4350   -7.9150 S.3   121  CYS121     -0.0797
     54  N         27.4120  -10.7910   -9.5630 N.am  122  GLN122     -0.1977
     55  CA        28.3710  -11.8850   -9.3460 C.3   122  GLN122      0.1601
     56  C         29.4400  -11.4270   -8.3430 C.2   122  GLN122      0.2287
     57  O         30.0190  -10.3340   -8.4730 O.2   122  GLN122     -0.2864
     58  CB        29.0220  -12.3470  -10.6720 C.3   122  GLN122      0.0394
     59  CG        29.7900  -13.6570  -10.5390 C.3   122  GLN122      0.0908
     60  CD        30.0150  -14.4230  -11.8590 C.2   122  GLN122      0.2608
     61  OE1       29.5670  -14.0020  -12.9430 O.2   122  GLN122     -0.2717
     62  NE2       30.7010  -15.5730  -11.7600 N.am  122  GLN122     -0.0878
     63  N         25.9880  -14.4200   -5.7510 N.3   126  PHE126     -0.1241
     64  CA        26.1990  -15.7340   -6.3100 C.3   126  PHE126      0.1605
     65  C         27.5610  -15.7030   -6.9400 C.2   126  PHE126      0.2264
     66  O         28.1230  -14.6300   -7.2160 O.2   126  PHE126     -0.2867
     67  CB        25.1550  -16.0750   -7.4060 C.3   126  PHE126      0.0534
     68  CG        25.3280  -15.2650   -8.6670 C.ar  126  PHE126     -0.0203
     69  CD1       24.7390  -13.9910   -8.7820 C.ar  126  PHE126     -0.0042
     70  CD2       26.1270  -15.7420   -9.7150 C.ar  126  PHE126     -0.0042
     71  CE1       24.9270  -13.2180   -9.9300 C.ar  126  PHE126     -0.0003
     72  CE2       26.3180  -14.9710  -10.8720 C.ar  126  PHE126     -0.0003
     73  CZ        25.7190  -13.7120  -10.9720 C.ar  126  PHE126     -0.0000
     74  N         22.0420  -21.4220   -6.2060 N.3   132  TYR132     -0.1241
     75  CA        20.8810  -22.0920   -5.6180 C.3   132  TYR132      0.1605
     76  C         21.0840  -22.3740   -4.1210 C.2   132  TYR132      0.2264
     77  O         21.2910  -21.4310   -3.3480 O.2   132  TYR132     -0.2867
     78  CB        20.4470  -23.3200   -6.4390 C.3   132  TYR132      0.0534
     79  CG        19.7820  -22.9210   -7.7470 C.ar  132  TYR132     -0.0201
     80  CD1       18.5530  -22.2430   -7.7490 C.ar  132  TYR132     -0.0009
     81  CD2       20.3890  -23.2050   -8.9730 C.ar  132  TYR132     -0.0009
     82  CE1       17.9500  -21.8650   -8.9310 C.ar  132  TYR132      0.0417
     83  CE2       19.7900  -22.8350  -10.1710 C.ar  132  TYR132      0.0417
     84  CZ        18.5670  -22.1640  -10.1480 C.ar  132  TYR132      0.1957
     85  OH        17.9690  -21.7910  -11.3370 O.3   132  TYR132     -0.2866
     86  N         14.1980  -18.4090  -10.0380 N.3   174  GLY174     -0.1225
     87  CA        15.2240  -17.8680  -10.9260 C.3   174  GLY174      0.1811
     88  C         16.0840  -16.7800  -10.3100 C.2   174  GLY174      0.2280
     89  O         17.2620  -16.6380  -10.6700 O.2   174  GLY174     -0.2866
     90  N         18.2090  -18.7220   -6.4560 N.3   178  PHE178     -0.1241
     91  CA        19.5340  -18.8250   -7.0880 C.3   178  PHE178      0.1605
     92  C         20.6120  -18.1610   -6.2500 C.2   178  PHE178      0.2264
     93  O         21.7910  -18.5500   -6.2850 O.2   178  PHE178     -0.2867
     94  CB        19.4670  -18.2110   -8.4970 C.3   178  PHE178      0.0534
     95  CG        20.7310  -18.3190   -9.3100 C.ar  178  PHE178     -0.0203
     96  CD1       20.9740  -19.4340  -10.1150 C.ar  178  PHE178     -0.0042
     97  CD2       21.6360  -17.2690   -9.3510 C.ar  178  PHE178     -0.0042
     98  CE1       22.1360  -19.5180  -10.9260 C.ar  178  PHE178     -0.0003
     99  CE2       22.7960  -17.3320  -10.1550 C.ar  178  PHE178     -0.0003
    100  CZ        23.0410  -18.4730  -10.9420 C.ar  178  PHE178     -0.0000
@<TRIPOS>BOND
     1     1     2    1
     2     5     2    1
     3     5     6    1
     4     2     3    1
     5    13     3   am
     6    13    14    1
     7     3     4    2
     8     6     7   ar
     9     6     8   ar
    10     7     9   ar
    11    14    15    1
    12     8    10   ar
    13    15    16    2
    14     9    11   ar
    15    39    37   ar
    16    10    11   ar
    17    11    12    1
    18    37    38   ar
    19    37    36    1
    20    17    18    1
    21    36    33    1
    22    23    21    1
    23    61    60    2
    24    22    21    1
    25    18    21    1
    26    18    19    1
    27    33    34    1
    28    33    32    1
    29    60    62   am
    30    60    59    1
    31    35    34    2
    32    19    20    2
    33    85    84    1
    34    32    26   am
    35    73    72   ar
    36    73    71   ar
    37   100    98   ar
    38   100    99   ar
    39    98    96   ar
    40    87    88    1
    41    87    86    1
    42    72    70   ar
    43    58    59    1
    44    58    55    1
    45    89    88    2
    46    83    84   ar
    47    83    81   ar
    48    99    97   ar
    49    84    82   ar
    50    96    95   ar
    51    71    69   ar
    52    26    27    2
    53    26    25    1
    54    70    68   ar
    55    54    55    1
    56    54    50   am
    57    97    95   ar
    58    55    56    1
    59    95    94    1
    60    28    25    1
    61    28    29    1
    62    52    49    1
    63    52    53    1
    64    81    79   ar
    65    82    80   ar
    66    49    50    1
    67    49    48    1
    68    25    24    1
    69    30    29    1
    70    30    31    1
    71    43    42    2
    72    69    68   ar
    73    68    67    1
    74    50    51    2
    75    94    91    1
    76    57    56    2
    77    42    48   am
    78    42    41    1
    79    80    79   ar
    80    79    78    1
    81    67    64    1
    82    66    65    2
    83    40    41    1
    84    44    41    1
    85    44    45    1
    86    91    90    1
    87    91    92    1
    88    65    64    1
    89    46    45    1
    90    78    75    1
    91    64    63    1
    92    93    92    2
    93    45    47    1
    94    74    75    1
    95    75    76    1
    96    76    77    2
