@<TRIPOS>MOLECULE
tmp/3ox3B03.pdb
 99 95 0 0 0
SMALL
GASTEIGER

@<TRIPOS>ATOM
      1  N         -2.5490    6.7230   -9.1650 N.3    65  ASN65      -0.1240
      2  CA        -2.5750    5.3370   -9.6440 C.3    65  ASN65       0.1653
      3  C         -2.0750    5.3260  -11.0800 C.2    65  ASN65       0.2266
      4  O         -2.7530    5.8300  -11.9820 O.2    65  ASN65      -0.2867
      5  CB        -3.9870    4.7350   -9.5710 C.3    65  ASN65       0.1155
      6  CG        -4.0220    3.2590   -9.9870 C.2    65  ASN65       0.2627
      7  OD1       -3.6830    2.9010  -11.1200 O.2    65  ASN65      -0.2716
      8  ND2       -4.4320    2.3920   -9.0570 N.am   65  ASN65      -0.0877
      9  N         -1.6740    3.0960  -13.5190 N.3    67  GLY67      -0.1210
     10  CA        -2.5270    2.4820  -14.5450 C.3    67  GLY67       0.1956
     11  C         -3.7180    3.3600  -14.9290 C.2    67  GLY67       0.2611
     12  O         -3.9860    3.5700  -16.1200 O.2    67  GLY67      -0.2717
     13  N         -4.4320    3.8620  -13.9210 N.am   68  VAL68      -0.1979
     14  CA        -5.6070    4.7360  -14.1410 C.3    68  VAL68       0.1595
     15  C         -5.1940    5.9960  -14.8930 C.2    68  VAL68       0.2287
     16  O         -5.7950    6.3520  -15.9140 O.2    68  VAL68      -0.2864
     17  CB        -6.3050    5.1290  -12.7910 C.3    68  VAL68       0.0276
     18  CG1       -7.3190    6.2570  -12.9950 C.3    68  VAL68       0.0022
     19  CG2       -6.9710    3.9000  -12.1550 C.3    68  VAL68       0.0022
     20  N          2.8900   -0.2150  -23.0510 N.3   119  LEU119     -0.1231
     21  CA         1.7100   -1.0630  -23.2670 C.3   119  LEU119      0.1693
     22  C          0.5680   -0.6950  -22.3310 C.2   119  LEU119      0.2592
     23  O          0.1240   -1.5130  -21.5350 O.2   119  LEU119     -0.2718
     24  CB         2.1110   -2.5410  -23.1410 C.3   119  LEU119      0.0284
     25  CG         3.2210   -3.0350  -24.0920 C.3   119  LEU119      0.0019
     26  CD1        3.6400   -4.4620  -23.7200 C.3   119  LEU119      0.0001
     27  CD2        2.8030   -2.9690  -25.5740 C.3   119  LEU119      0.0001
     28  N          0.0890    0.5430  -22.4270 N.am  120  CYS120     -0.1956
     29  CA        -0.8910    1.0450  -21.4640 C.3   120  CYS120      0.1843
     30  C         -2.3050    0.6280  -21.8590 C.2   120  CYS120      0.2625
     31  O         -2.5510    0.2330  -23.0090 O.2   120  CYS120     -0.2714
     32  CB        -0.7800    2.5650  -21.3290 C.3   120  CYS120      0.0997
     33  SG        -1.3590    3.4970  -22.7600 S.3   120  CYS120     -0.0797
     34  N         -3.2330    0.6870  -20.9040 N.am  121  GLN121     -0.1977
     35  CA        -4.6240    0.4010  -21.2080 C.3   121  GLN121      0.1601
     36  C         -5.1190    1.4490  -22.1960 C.2   121  GLN121      0.2287
     37  O         -4.7240    2.6180  -22.1180 O.2   121  GLN121     -0.2864
     38  CB        -5.4730    0.4140  -19.9410 C.3   121  GLN121      0.0394
     39  CG        -6.9170   -0.0680  -20.1670 C.3   121  GLN121      0.0908
     40  CD        -7.6410   -0.2910  -18.8640 C.2   121  GLN121      0.2608
     41  OE1       -7.0070   -0.3710  -17.8090 O.2   121  GLN121     -0.2717
     42  NE2       -8.9800   -0.4280  -18.9260 N.am  121  GLN121     -0.0878
     43  N         -4.4230   -2.9500  -24.6640 N.3   125  PHE125     -0.1241
     44  CA        -5.5420   -3.7680  -24.2120 C.3   125  PHE125      0.1605
     45  C         -6.5820   -2.8490  -23.5980 C.2   125  PHE125      0.2264
     46  O         -6.3090   -1.6830  -23.2960 O.2   125  PHE125     -0.2867
     47  CB        -5.0970   -4.7960  -23.1510 C.3   125  PHE125      0.0534
     48  CG        -4.7730   -4.1740  -21.8130 C.ar  125  PHE125     -0.0203
     49  CD1       -3.5180   -3.5970  -21.5820 C.ar  125  PHE125     -0.0042
     50  CD2       -5.7340   -4.1250  -20.7980 C.ar  125  PHE125     -0.0042
     51  CE1       -3.2180   -2.9970  -20.3620 C.ar  125  PHE125     -0.0003
     52  CE2       -5.4420   -3.5180  -19.5610 C.ar  125  PHE125     -0.0003
     53  CZ        -4.1830   -2.9510  -19.3560 C.ar  125  PHE125     -0.0000
     54  N        -10.4970   -3.4180  -20.9790 N.3   127  ILE127     -0.1245
     55  CA       -11.3660   -4.3340  -20.2510 C.3   127  ILE127      0.1561
     56  C        -12.8120   -4.0930  -20.7060 C.2   127  ILE127      0.2260
     57  O        -13.3930   -3.0540  -20.3820 O.2   127  ILE127     -0.2867
     58  CB       -11.2740   -4.1300  -18.6980 C.3   127  ILE127      0.0252
     59  CG1       -9.8230   -3.9270  -18.2060 C.3   127  ILE127      0.0019
     60  CG2      -12.0260   -5.2480  -17.9480 C.3   127  ILE127      0.0019
     61  CD1       -8.8580   -5.1120  -18.3950 C.3   127  ILE127      0.0001
     62  N         -8.6970   -8.1640  -24.1220 N.3   130  PHE130     -0.1227
     63  CA        -7.3890   -8.7190  -23.7630 C.3   130  PHE130      0.1736
     64  C         -7.2940  -10.1950  -24.1460 C.2   130  PHE130      0.2595
     65  O         -8.2860  -10.7870  -24.5840 O.2   130  PHE130     -0.2718
     66  CB        -7.0640   -8.4880  -22.2760 C.3   130  PHE130      0.0547
     67  CG        -8.0670   -9.0990  -21.3160 C.ar  130  PHE130     -0.0202
     68  CD1       -9.1590   -8.3610  -20.8680 C.ar  130  PHE130     -0.0042
     69  CD2       -7.8960  -10.3970  -20.8420 C.ar  130  PHE130     -0.0042
     70  CE1      -10.0860   -8.9220  -19.9720 C.ar  130  PHE130     -0.0003
     71  CE2       -8.8120  -10.9700  -19.9470 C.ar  130  PHE130     -0.0003
     72  CZ        -9.9040  -10.2300  -19.5170 C.ar  130  PHE130     -0.0000
     73  N         -6.1060  -10.7790  -23.9670 N.am  131  TYR131     -0.1976
     74  CA        -5.7580  -12.0860  -24.5360 C.3   131  TYR131      0.1639
     75  C         -6.1920  -12.1280  -26.0110 C.2   131  TYR131      0.2290
     76  O         -5.8110  -11.2390  -26.7690 O.2   131  TYR131     -0.2864
     77  CB        -6.2450  -13.2630  -23.6600 C.3   131  TYR131      0.0560
     78  CG        -5.4460  -13.3910  -22.3640 C.ar  131  TYR131     -0.0198
     79  CD1       -4.0610  -13.5600  -22.3950 C.ar  131  TYR131     -0.0009
     80  CD2       -6.0710  -13.3310  -21.1180 C.ar  131  TYR131     -0.0009
     81  CE1       -3.3110  -13.6590  -21.2180 C.ar  131  TYR131      0.0417
     82  CE2       -5.3350  -13.4340  -19.9380 C.ar  131  TYR131      0.0417
     83  CZ        -3.9540  -13.5860  -19.9970 C.ar  131  TYR131      0.1957
     84  OH        -3.2080  -13.6940  -18.8400 O.3   131  TYR131     -0.2866
     85  N          1.7030  -13.5860  -20.2650 N.3   173  GLY173     -0.1225
     86  CA         1.2770  -12.5070  -19.3890 C.3   173  GLY173      0.1811
     87  C          1.3110  -11.1580  -20.0830 C.2   173  GLY173      0.2280
     88  O          0.5070  -10.2760  -19.7750 O.2   173  GLY173     -0.2866
     89  N         -1.4970  -11.3790  -23.7810 N.3   177  PHE177     -0.1241
     90  CA        -2.4790  -10.5350  -23.1120 C.3   177  PHE177      0.1605
     91  C         -2.8570   -9.3330  -23.9780 C.2   177  PHE177      0.2264
     92  O         -4.0300   -8.9360  -24.0170 O.2   177  PHE177     -0.2867
     93  CB        -1.9600  -10.0590  -21.7450 C.3   177  PHE177      0.0534
     94  CG        -2.9710   -9.3080  -20.9520 C.ar  177  PHE177     -0.0203
     95  CD1       -3.9080   -9.9910  -20.1650 C.ar  177  PHE177     -0.0042
     96  CD2       -3.0020   -7.9150  -20.9780 C.ar  177  PHE177     -0.0042
     97  CE1       -4.8590   -9.2840  -19.4310 C.ar  177  PHE177     -0.0003
     98  CE2       -3.9490   -7.2100  -20.2490 C.ar  177  PHE177     -0.0003
     99  CZ        -4.8790   -7.9080  -19.4620 C.ar  177  PHE177     -0.0000
@<TRIPOS>BOND
     1    76    75    2
     2    75    74    1
     3    27    25    1
     4    43    44    1
     5    65    64    2
     6    74    73    1
     7    74    77    1
     8    44    45    1
     9    44    47    1
    10    64    73   am
    11    64    63    1
    12    62    63    1
    13    25    26    1
    14    25    24    1
    15    92    91    2
    16    91    90    1
    17    89    90    1
    18    63    66    1
    19    77    78    1
    20    45    46    2
    21    21    24    1
    22    21    20    1
    23    21    22    1
    24    47    48    1
    25    90    93    1
    26    31    30    2
    27    33    32    1
    28    28    22   am
    29    28    29    1
    30    79    78   ar
    31    79    81   ar
    32    78    80   ar
    33    22    23    2
    34    66    67    1
    35    36    37    2
    36    36    35    1
    37    30    29    1
    38    30    34   am
    39    48    49   ar
    40    48    50   ar
    41    93    94    1
    42    49    51   ar
    43    29    32    1
    44    67    68   ar
    45    67    69   ar
    46    81    83   ar
    47    35    34    1
    48    35    38    1
    49    80    82   ar
    50    54    55    1
    51    96    94   ar
    52    96    98   ar
    53    94    95   ar
    54    68    70   ar
    55    69    71   ar
    56    50    52   ar
    57    56    57    2
    58    56    55    1
    59    51    53   ar
    60    85    86    1
    61    55    58    1
    62    98    99   ar
    63    39    38    1
    64    39    40    1
    65    95    97   ar
    66    87    88    2
    67    87    86    1
    68    83    82   ar
    69    83    84    1
    70    70    72   ar
    71    71    72   ar
    72    52    53   ar
    73    99    97   ar
    74    42    40   am
    75    40    41    2
    76    58    59    1
    77    58    60    1
    78    61    59    1
    79    12    11    2
    80    16    15    2
    81    11    10    1
    82    11    13   am
    83    15    14    1
    84    10     9    1
    85    14    13    1
    86    14    17    1
    87    18    17    1
    88    17    19    1
    89     4     3    2
    90     7     6    2
    91     3     2    1
    92     6     5    1
    93     6     8   am
    94     2     5    1
    95     2     1    1
