@<TRIPOS>MOLECULE
tmp/3ox6B01.pdb
 91 82 0 0 0
SMALL
GASTEIGER

@<TRIPOS>ATOM
      1  N         28.3160   -5.4330    4.2690 N.3     3  ARG3       -0.1245
      2  CA        27.8320   -6.3160    3.1950 C.3     3  ARG3        0.1563
      3  C         27.3350   -5.3840    2.1230 C.2     3  ARG3        0.2260
      4  O         27.2300   -4.1760    2.3560 O.2     3  ARG3       -0.2867
      5  CB        26.6520   -7.1740    3.6670 C.3     3  ARG3        0.0307
      6  CG        25.6110   -6.3970    4.4520 C.3     3  ARG3        0.0489
      7  CD        24.3340   -7.1950    4.5870 C.3     3  ARG3        0.2205
      8  NE        23.3180   -6.5020    5.3710 N.pl3   3  ARG3       -0.0865
      9  CZ        22.3400   -5.7100    4.8820 C.cat   3  ARG3        0.5346
     10  NH1       22.2190   -5.4460    3.5740 N.pl3   3  ARG3        0.1354
     11  NH2       21.4780   -5.1430    5.7330 N.pl3   3  ARG3        0.1354
     12  N         17.3680   -0.9410    0.3220 N.3     9  GLU9       -0.1245
     13  CA        18.2110   -0.0540    1.1190 C.3     9  GLU9        0.1567
     14  C         18.7250    1.0530    0.2090 C.2     9  GLU9        0.2260
     15  O         18.7980    2.1890    0.6270 O.2     9  GLU9       -0.2867
     16  CB        19.3180   -0.8430    1.7850 C.3     9  GLU9        0.0388
     17  CG        18.7160   -1.8850    2.7280 C.3     9  GLU9        0.1160
     18  CD        19.7440   -2.8610    3.2720 C.2     9  GLU9        0.3649
     19  OE1       20.5970   -3.3810    2.5050 O.co2   9  GLU9       -0.2457
     20  OE2       19.7030   -3.0820    4.4870 O.co2   9  GLU9       -0.2457
     21  N         15.9300    3.5990    0.0240 N.3    12  GLU12      -0.1245
     22  CA        15.8360    4.5670    1.0960 C.3    12  GLU12       0.1567
     23  C         16.9710    5.6320    1.2260 C.2    12  GLU12       0.2260
     24  O         16.6780    6.7610    1.6580 O.2    12  GLU12      -0.2867
     25  CB        15.4720    3.9230    2.4180 C.3    12  GLU12       0.0388
     26  CG        16.4120    2.9220    2.8720 C.3    12  GLU12       0.1160
     27  CD        15.9600    2.3320    4.1900 C.2    12  GLU12       0.3649
     28  OE1       15.6490    3.0940    5.1410 O.co2  12  GLU12      -0.2457
     29  OE2       15.9140    1.0950    4.2530 O.co2  12  GLU12      -0.2457
     30  N         16.4770    8.0510    6.5990 N.3    40  MET40      -0.1230
     31  CA        16.8390    6.6690    6.3040 C.3    40  MET40       0.1702
     32  C         16.8830    5.7470    7.5400 C.2    40  MET40       0.2592
     33  O         17.3030    4.5960    7.4540 O.2    40  MET40      -0.2718
     34  CB        18.1340    6.5820    5.4920 C.3    40  MET40       0.0401
     35  CG        19.1060    7.6680    5.8210 C.3    40  MET40       0.0596
     36  SD        20.7940    7.2370    5.4600 S.3    40  MET40      -0.1393
     37  CE        21.1000    6.0860    6.7880 C.3    40  MET40       0.0692
     38  N         16.4510    6.2730    8.6890 N.am   41  GLY41      -0.1957
     39  CA        16.2510    5.5150    9.8540 C.3    41  GLY41       0.1869
     40  C         17.4630    5.4470   10.7600 C.2    41  GLY41       0.2309
     41  O         17.5930    4.5390   11.5570 O.2    41  GLY41      -0.2863
     42  N         23.4110    3.4040    7.3990 N.3    77  LEU77      -0.1231
     43  CA        22.2200    2.5710    7.1790 C.3    77  LEU77       0.1693
     44  C         22.4750    1.1550    7.7460 C.2    77  LEU77       0.2591
     45  O         21.6840    0.6020    8.5380 O.2    77  LEU77      -0.2718
     46  CB        21.8700    2.4880    5.7090 C.3    77  LEU77       0.0284
     47  CG        20.4650    1.9650    5.2800 C.3    77  LEU77       0.0019
     48  CD1       20.1550    2.2890    3.8420 C.3    77  LEU77       0.0001
     49  CD2       20.3540    0.4680    5.4300 C.3    77  LEU77       0.0001
     50  N         23.6210    0.5810    7.4070 N.am   78  LEU78      -0.1980
     51  CA        23.8860   -0.7830    7.8130 C.3    78  LEU78       0.1596
     52  C         24.0750   -0.8880    9.2900 C.2    78  LEU78       0.2287
     53  O         23.8890   -1.9610    9.8560 O.2    78  LEU78      -0.2864
     54  CB        25.0680   -1.3880    7.0550 C.3    78  LEU78       0.0297
     55  CG        24.7350   -1.5800    5.5610 C.3    78  LEU78       0.0022
     56  CD1       25.9770   -1.8680    4.7830 C.3    78  LEU78       0.0001
     57  CD2       23.7530   -2.6900    5.4060 C.3    78  LEU78       0.0001
     58  N         22.1850    0.4520   11.4710 N.3    80  GLU80      -0.1245
     59  CA        20.9430    0.7020   12.2140 C.3    80  GLU80       0.1567
     60  C         20.5780   -0.4810   13.1750 C.2    80  GLU80       0.2260
     61  O         20.6540   -1.6500   12.7930 O.2    80  GLU80      -0.2867
     62  CB        19.8120    1.0150   11.2390 C.3    80  GLU80       0.0388
     63  CG        19.9630    2.3850   10.6810 C.3    80  GLU80       0.1160
     64  CD        19.0490    2.6910    9.4980 C.2    80  GLU80       0.3649
     65  OE1       19.3220    3.6740    8.7980 O.co2  80  GLU80      -0.2457
     66  OE2       18.0560    1.9810    9.2560 O.co2  80  GLU80      -0.2457
     67  N         14.9570    1.1740   14.3390 N.3    85  ILE85      -0.1245
     68  CA        14.1690    0.6340   13.2380 C.3    85  ILE85       0.1561
     69  C         12.6970    0.7170   13.5000 C.2    85  ILE85       0.2260
     70  O         11.8720    1.0670   12.5980 O.2    85  ILE85      -0.2867
     71  CB        14.7020   -0.7980   12.8830 C.3    85  ILE85       0.0252
     72  CG1       16.0950   -0.6720   12.2370 C.3    85  ILE85       0.0019
     73  CG2       13.7760   -1.5590   11.9840 C.3    85  ILE85       0.0019
     74  CD1       16.7660   -2.0070   12.0810 C.3    85  ILE85       0.0001
     75  N          8.9270   -2.1180   11.1300 N.3    89  GLU89      -0.1245
     76  CA         9.9900   -2.4650   10.2130 C.3    89  GLU89       0.1567
     77  C         10.6750   -3.7980   10.6240 C.2    89  GLU89       0.2260
     78  O         11.0000   -4.6080    9.7860 O.2    89  GLU89      -0.2867
     79  CB        10.9990   -1.3290   10.1620 C.3    89  GLU89       0.0388
     80  CG        11.0840   -0.5730    8.8370 C.3    89  GLU89       0.1160
     81  CD        12.4210    0.2050    8.6930 C.2    89  GLU89       0.3649
     82  OE1       12.5720    1.3390    9.2220 O.co2  89  GLU89      -0.2457
     83  OE2       13.3570   -0.3390    8.0720 O.co2  89  GLU89      -0.2457
     84  N         19.6940   -7.8150   16.2960 N.3   151  MET151     -0.1245
     85  CA        19.9830   -6.4600   15.8470 C.3   151  MET151      0.1570
     86  C         20.0820   -5.4590   16.9540 C.2   151  MET151      0.2261
     87  O         19.8600   -4.2720   16.7360 O.2   151  MET151     -0.2867
     88  CB        18.8950   -5.9470   14.9320 C.3   151  MET151      0.0387
     89  CG        19.3310   -5.9390   13.4870 C.3   151  MET151      0.0595
     90  SD        18.9140   -7.5120   12.9100 S.3   151  MET151     -0.1393
     91  CE        17.2200   -7.4590   13.3100 C.3   151  MET151      0.0692
@<TRIPOS>BOND
     1    21    22    1
     2    14    15    2
     3    14    13    1
     4    12    13    1
     5    22    23    1
     6    22    25    1
     7    13    16    1
     8    23    24    2
     9    16    17    1
    10     3     4    2
    11     3     2    1
    12    25    26    1
    13    19    18   ar
    14    17    18    1
    15    26    27    1
    16     2     5    1
    17     2     1    1
    18    18    20   ar
    19    10     9    1
    20     5     6    1
    21    48    47    1
    22    27    29   ar
    23    27    28   ar
    24     6     7    1
    25     7     8    1
    26    56    55    1
    27     9     8    2
    28     9    11    1
    29    47    49    1
    30    47    46    1
    31    57    55    1
    32    36    35    1
    33    36    37    1
    34    34    35    1
    35    34    31    1
    36    55    54    1
    37    46    43    1
    38    31    30    1
    39    31    32    1
    40    54    51    1
    41    43    42    1
    42    43    44    1
    43    50    44   am
    44    50    51    1
    45    33    32    2
    46    32    38   am
    47    44    45    2
    48    51    52    1
    49    83    81   ar
    50    38    39    1
    51    81    80    1
    52    81    82   ar
    53    65    64   ar
    54    80    79    1
    55    66    64   ar
    56    52    53    2
    57    64    63    1
    58    78    77    2
    59    39    40    1
    60    79    76    1
    61    76    77    1
    62    76    75    1
    63    63    62    1
    64    40    41    2
    65    62    59    1
    66    58    59    1
    67    73    71    1
    68    74    72    1
    69    59    60    1
    70    72    71    1
    71    70    69    2
    72    61    60    2
    73    71    68    1
    74    90    91    1
    75    90    89    1
    76    68    69    1
    77    68    67    1
    78    89    88    1
    79    88    85    1
    80    85    84    1
    81    85    86    1
    82    87    86    2
