@<TRIPOS>MOLECULE
tmp/3ox6A00.pdb
 90 83 0 0 0
SMALL
GASTEIGER

@<TRIPOS>ATOM
      1  N         -8.1440    9.7540   20.4110 N.3     3  ARG3       -0.1245
      2  CA        -8.4800   10.5990   19.2560 C.3     3  ARG3        0.1563
      3  C         -8.9270    9.7090   18.1290 C.2     3  ARG3        0.2260
      4  O         -8.7450    8.4980   18.2020 O.2     3  ARG3       -0.2867
      5  CB        -7.2750   11.4200   18.7950 C.3     3  ARG3        0.0307
      6  CG        -6.0530   10.6210   18.4040 C.3     3  ARG3        0.0489
      7  CD        -5.0640   11.4950   17.6260 C.3     3  ARG3        0.2205
      8  NE        -3.7690   10.8270   17.4450 N.pl3   3  ARG3       -0.0865
      9  CZ        -3.4760    9.9870   16.4470 C.cat   3  ARG3        0.5346
     10  NH1       -4.3540    9.6880   15.4930 N.pl3   3  ARG3        0.1354
     11  NH2       -2.3030    9.4270   16.3990 N.pl3   3  ARG3        0.1354
     12  N         -6.4300    8.0880   11.9460 N.3     6  ARG6       -0.1245
     13  CA        -6.1420    8.6660   10.6510 C.3     6  ARG6        0.1563
     14  C         -6.0520    7.5650    9.6060 C.2     6  ARG6        0.2260
     15  O         -5.7860    6.4110    9.9630 O.2     6  ARG6       -0.2867
     16  CB        -4.8260    9.4110   10.7530 C.3     6  ARG6        0.0307
     17  CG        -4.8300   10.3980   11.8950 C.3     6  ARG6        0.0489
     18  CD        -3.9460   11.5970   11.6210 C.3     6  ARG6        0.2205
     19  NE        -2.8180   11.2720   10.7480 N.pl3   6  ARG6       -0.0865
     20  CZ        -2.6020   11.8540    9.5710 C.cat   6  ARG6        0.5346
     21  NH1       -3.4200   12.8010    9.1470 N.pl3   6  ARG6        0.1354
     22  NH2       -1.5600   11.5000    8.8280 N.pl3   6  ARG6        0.1354
     23  N          6.5020   12.0160   10.6930 N.3    93  ALA93      -0.1245
     24  CA         5.4390   12.7450   11.3810 C.3    93  ALA93       0.1562
     25  C          5.8430   14.1860   11.6130 C.2    93  ALA93       0.2260
     26  O          5.0190   15.0920   11.4260 O.2    93  ALA93      -0.2867
     27  CB         5.0670   12.0630   12.7070 C.3    93  ALA93       0.0290
     28  N          5.4610   16.3890    8.6940 N.3    96  GLU96      -0.1231
     29  CA         4.1060   16.8300    8.4140 C.3    96  GLU96       0.1699
     30  C          3.6230   17.9270    9.3200 C.2    96  GLU96       0.2592
     31  O          2.7360   18.6490    8.9550 O.2    96  GLU96      -0.2718
     32  CB         3.1320   15.6680    8.5340 C.3    96  GLU96       0.0402
     33  CG         3.1300   14.8520    7.2840 C.3    96  GLU96       0.1161
     34  CD         2.8360   13.4110    7.5160 C.2    96  GLU96       0.3649
     35  OE1        2.2030   13.0340    8.5490 O.co2  96  GLU96      -0.2457
     36  OE2        3.2440   12.6480    6.6200 O.co2  96  GLU96      -0.2457
     37  N          4.1100   17.9660   10.5540 N.am   97  PHE97      -0.1976
     38  CA         3.8860   19.1020   11.4120 C.3    97  PHE97       0.1639
     39  C          4.6460   20.3130   10.8390 C.2    97  PHE97       0.2290
     40  O          4.0920   21.3950   10.7330 O.2    97  PHE97      -0.2864
     41  CB         4.4360   18.7970   12.7900 C.3    97  PHE97       0.0560
     42  CG         3.4920   18.0970   13.6910 C.ar   97  PHE97      -0.0200
     43  CD1        3.1600   18.6550   14.9220 C.ar   97  PHE97      -0.0042
     44  CD2        2.9750   16.8620   13.3580 C.ar   97  PHE97      -0.0042
     45  CE1        2.2910   17.9840   15.8160 C.ar   97  PHE97      -0.0003
     46  CE2        2.0830   16.1820   14.2490 C.ar   97  PHE97      -0.0003
     47  CZ         1.7490   16.7390   15.4540 C.ar   97  PHE97      -0.0000
     48  N          5.5420   22.1550    8.2480 N.3    99  THR99      -0.1218
     49  CA         5.1620   22.3130    6.8610 C.3    99  THR99       0.1862
     50  C          6.0380   23.2660    6.0700 C.2    99  THR99       0.2287
     51  O          6.0130   23.2030    4.8340 O.2    99  THR99      -0.2866
     52  CB         3.7180   22.7860    6.7440 C.3    99  THR99       0.1770
     53  OG1        3.5230   23.9200    7.5900 O.3    99  THR99      -0.2211
     54  CG2        2.8050   21.6750    7.2210 C.3    99  THR99       0.0375
     55  N          2.0900   26.1880   12.8630 N.3   109  GLU109     -0.1245
     56  CA         2.2630   24.8160   12.4410 C.3   109  GLU109      0.1567
     57  C          1.6780   23.8250   13.4290 C.2   109  GLU109      0.2260
     58  O          0.9930   22.8620   13.0360 O.2   109  GLU109     -0.2867
     59  CB         3.7240   24.5150   12.1620 C.3   109  GLU109      0.0388
     60  CG         4.2270   25.1340   10.8540 C.3   109  GLU109      0.1160
     61  CD         5.7140   25.0190   10.6740 C.2   109  GLU109      0.3649
     62  OE1        6.5130   24.6940   11.6410 O.co2 109  GLU109     -0.2457
     63  OE2        6.1120   25.2420    9.5090 O.co2 109  GLU109     -0.2457
     64  N         -2.2570   24.0880   13.4490 N.3   112  GLU112     -0.1231
     65  CA        -2.7550   23.4320   12.2860 C.3   112  GLU112      0.1699
     66  C         -2.6790   21.9110   12.3910 C.2   112  GLU112      0.2592
     67  O         -3.5820   21.2210   11.9430 O.2   112  GLU112     -0.2718
     68  CB        -1.9600   23.9430   11.1090 C.3   112  GLU112      0.0402
     69  CG        -2.6420   23.8590    9.7810 C.3   112  GLU112      0.1161
     70  CD        -4.0130   24.5420    9.7560 C.2   112  GLU112      0.3649
     71  OE1       -4.1010   25.7950    9.8150 O.co2 112  GLU112     -0.2457
     72  OE2       -4.9930   23.7900    9.6480 O.co2 112  GLU112     -0.2457
     73  N         -1.6170   21.3830   12.9860 N.am  113  ALA113     -0.1980
     74  CA        -1.4320   19.9180   13.0880 C.3   113  ALA113      0.1597
     75  C         -2.3880   19.3300   14.1540 C.2   113  ALA113      0.2287
     76  O         -2.9730   18.2630   13.9720 O.2   113  ALA113     -0.2864
     77  CB         0.0340   19.5800   13.4140 C.3   113  ALA113      0.0319
     78  N         -5.7400   19.0440   12.7330 N.3   116  ALA116     -0.1231
     79  CA        -5.8390   17.8750   11.8740 C.3   116  ALA116      0.1694
     80  C         -6.0030   16.5770   12.6800 C.2   116  ALA116      0.2591
     81  O         -6.6570   15.6510   12.2310 O.2   116  ALA116     -0.2718
     82  CB        -4.6550   17.7790   10.9550 C.3   116  ALA116      0.0304
     83  N         -5.4050   16.5110   13.8660 N.am  117  LEU117     -0.1980
     84  CA        -5.3740   15.2820   14.6380 C.3   117  LEU117      0.1596
     85  C         -6.6290   15.1280   15.4550 C.2   117  LEU117      0.2287
     86  O         -7.0920   14.0030   15.6660 O.2   117  LEU117     -0.2864
     87  CB        -4.1610   15.2410   15.5810 C.3   117  LEU117      0.0297
     88  CG        -2.8150   14.8740   14.9720 C.3   117  LEU117      0.0022
     89  CD1       -1.6980   15.1360   15.9640 C.3   117  LEU117      0.0001
     90  CD2       -2.7930   13.4190   14.4820 C.3   117  LEU117      0.0001
@<TRIPOS>BOND
     1    51    50    2
     2    50    49    1
     3    36    34   ar
     4    52    49    1
     5    52    54    1
     6    52    53    1
     7    49    48    1
     8    33    34    1
     9    33    32    1
    10    34    35   ar
    11    29    32    1
    12    29    28    1
    13    29    30    1
    14    22    20    1
    15    31    30    2
    16    21    20    1
    17    30    37   am
    18    63    61   ar
    19    20    19    2
    20    14    15    2
    21    14    13    1
    22    72    70   ar
    23    70    69    1
    24    70    71   ar
    25    69    68    1
    26    37    38    1
    27    13    16    1
    28    13    12    1
    29    61    60    1
    30    61    62   ar
    31    23    24    1
    32    40    39    2
    33    19    18    1
    34    16    17    1
    35    39    38    1
    36    60    59    1
    37    82    79    1
    38    68    65    1
    39    24    25    1
    40    24    27    1
    41    38    41    1
    42    26    25    2
    43    18    17    1
    44    79    80    1
    45    79    78    1
    46    67    66    2
    47    59    56    1
    48    81    80    2
    49    65    66    1
    50    65    64    1
    51    66    73   am
    52    56    55    1
    53    56    57    1
    54    80    83   am
    55    41    42    1
    56    73    74    1
    57    58    57    2
    58    74    77    1
    59    74    75    1
    60    44    42   ar
    61    44    46   ar
    62    42    43   ar
    63    83    84    1
    64    76    75    2
    65    46    47   ar
    66    90    88    1
    67    84    85    1
    68    84    87    1
    69    43    45   ar
    70    88    87    1
    71    88    89    1
    72    47    45   ar
    73    85    86    2
    74    10     9    1
    75    11     9    1
    76     9     8    2
    77     8     7    1
    78     7     6    1
    79     3     4    2
    80     3     2    1
    81     6     5    1
    82     5     2    1
    83     2     1    1
