@<TRIPOS>MOLECULE
tmp/3ox6B00.pdb
 106 97 0 0 0
SMALL
GASTEIGER

@<TRIPOS>ATOM
      1  N         28.3160   -5.4330    4.2690 N.3     3  ARG3       -0.1245
      2  CA        27.8320   -6.3160    3.1950 C.3     3  ARG3        0.1563
      3  C         27.3350   -5.3840    2.1230 C.2     3  ARG3        0.2260
      4  O         27.2300   -4.1760    2.3560 O.2     3  ARG3       -0.2867
      5  CB        26.6520   -7.1740    3.6670 C.3     3  ARG3        0.0307
      6  CG        25.6110   -6.3970    4.4520 C.3     3  ARG3        0.0489
      7  CD        24.3340   -7.1950    4.5870 C.3     3  ARG3        0.2205
      8  NE        23.3180   -6.5020    5.3710 N.pl3   3  ARG3       -0.0865
      9  CZ        22.3400   -5.7100    4.8820 C.cat   3  ARG3        0.5346
     10  NH1       22.2190   -5.4460    3.5740 N.pl3   3  ARG3        0.1354
     11  NH2       21.4780   -5.1430    5.7330 N.pl3   3  ARG3        0.1354
     12  N         17.3680   -0.9410    0.3220 N.3     9  GLU9       -0.1245
     13  CA        18.2110   -0.0540    1.1190 C.3     9  GLU9        0.1567
     14  C         18.7250    1.0530    0.2090 C.2     9  GLU9        0.2260
     15  O         18.7980    2.1890    0.6270 O.2     9  GLU9       -0.2867
     16  CB        19.3180   -0.8430    1.7850 C.3     9  GLU9        0.0388
     17  CG        18.7160   -1.8850    2.7280 C.3     9  GLU9        0.1160
     18  CD        19.7440   -2.8610    3.2720 C.2     9  GLU9        0.3649
     19  OE1       20.5970   -3.3810    2.5050 O.co2   9  GLU9       -0.2457
     20  OE2       19.7030   -3.0820    4.4870 O.co2   9  GLU9       -0.2457
     21  N         15.9300    3.5990    0.0240 N.3    12  GLU12      -0.1245
     22  CA        15.8360    4.5670    1.0960 C.3    12  GLU12       0.1567
     23  C         16.9710    5.6320    1.2260 C.2    12  GLU12       0.2260
     24  O         16.6780    6.7610    1.6580 O.2    12  GLU12      -0.2867
     25  CB        15.4720    3.9230    2.4180 C.3    12  GLU12       0.0388
     26  CG        16.4120    2.9220    2.8720 C.3    12  GLU12       0.1160
     27  CD        15.9600    2.3320    4.1900 C.2    12  GLU12       0.3649
     28  OE1       15.6490    3.0940    5.1410 O.co2  12  GLU12      -0.2457
     29  OE2       15.9140    1.0950    4.2530 O.co2  12  GLU12      -0.2457
     30  N         22.1850    0.4520   11.4710 N.3    80  GLU80      -0.1245
     31  CA        20.9430    0.7020   12.2140 C.3    80  GLU80       0.1567
     32  C         20.5780   -0.4810   13.1750 C.2    80  GLU80       0.2260
     33  O         20.6540   -1.6500   12.7930 O.2    80  GLU80      -0.2867
     34  CB        19.8120    1.0150   11.2390 C.3    80  GLU80       0.0388
     35  CG        19.9630    2.3850   10.6810 C.3    80  GLU80       0.1160
     36  CD        19.0490    2.6910    9.4980 C.2    80  GLU80       0.3649
     37  OE1       19.3220    3.6740    8.7980 O.co2  80  GLU80      -0.2457
     38  OE2       18.0560    1.9810    9.2560 O.co2  80  GLU80      -0.2457
     39  N         14.9570    1.1740   14.3390 N.3    85  ILE85      -0.1245
     40  CA        14.1690    0.6340   13.2380 C.3    85  ILE85       0.1561
     41  C         12.6970    0.7170   13.5000 C.2    85  ILE85       0.2260
     42  O         11.8720    1.0670   12.5980 O.2    85  ILE85      -0.2867
     43  CB        14.7020   -0.7980   12.8830 C.3    85  ILE85       0.0252
     44  CG1       16.0950   -0.6720   12.2370 C.3    85  ILE85       0.0019
     45  CG2       13.7760   -1.5590   11.9840 C.3    85  ILE85       0.0019
     46  CD1       16.7660   -2.0070   12.0810 C.3    85  ILE85       0.0001
     47  N          8.9270   -2.1180   11.1300 N.3    89  GLU89      -0.1231
     48  CA         9.9900   -2.4650   10.2130 C.3    89  GLU89       0.1699
     49  C         10.6750   -3.7980   10.6240 C.2    89  GLU89       0.2592
     50  O         11.0000   -4.6080    9.7860 O.2    89  GLU89      -0.2718
     51  CB        10.9990   -1.3290   10.1620 C.3    89  GLU89       0.0402
     52  CG        11.0840   -0.5730    8.8370 C.3    89  GLU89       0.1161
     53  CD        12.4210    0.2050    8.6930 C.2    89  GLU89       0.3649
     54  OE1       12.5720    1.3390    9.2220 O.co2  89  GLU89      -0.2457
     55  OE2       13.3570   -0.3390    8.0720 O.co2  89  GLU89      -0.2457
     56  N         10.8600   -4.0200   11.9230 N.am   90  LEU90      -0.1980
     57  CA        11.4440   -5.2460   12.3930 C.3    90  LEU90       0.1596
     58  C         10.5550   -6.4510   12.0850 C.2    90  LEU90       0.2287
     59  O         11.0210   -7.5050   11.5680 O.2    90  LEU90      -0.2864
     60  CB        11.6840   -5.1180   13.8570 C.3    90  LEU90       0.0297
     61  CG        12.8540   -4.2710   14.3180 C.3    90  LEU90       0.0022
     62  CD1       12.6490   -3.9300   15.8230 C.3    90  LEU90       0.0001
     63  CD2       14.2190   -5.0440   13.9990 C.3    90  LEU90       0.0001
     64  N         10.8500   -7.2010    8.3860 N.3    93  ALA93      -0.1245
     65  CA        12.0600   -7.9740    8.1070 C.3    93  ALA93       0.1562
     66  C         11.8730   -9.4070    8.5410 C.2    93  ALA93       0.2260
     67  O         12.1190  -10.3270    7.7380 O.2    93  ALA93      -0.2867
     68  CB        13.3220   -7.3650    8.7260 C.3    93  ALA93       0.0290
     69  N         12.2190  -13.1420    6.3800 N.3    97  PHE97      -0.1241
     70  CA        12.8840  -14.3540    6.8360 C.3    97  PHE97       0.1605
     71  C         11.8680  -15.5010    6.9730 C.2    97  PHE97       0.2264
     72  O         12.1210  -16.6480    6.4980 O.2    97  PHE97      -0.2867
     73  CB        13.5340  -14.1650    8.2040 C.3    97  PHE97       0.0534
     74  CG        14.8330  -13.4300    8.2000 C.ar   97  PHE97      -0.0203
     75  CD1       15.9780  -14.0420    8.7410 C.ar   97  PHE97      -0.0042
     76  CD2       14.9350  -12.1160    7.7460 C.ar   97  PHE97      -0.0042
     77  CE1       17.2150  -13.3620    8.7960 C.ar   97  PHE97      -0.0003
     78  CE2       16.1650  -11.4350    7.8180 C.ar   97  PHE97      -0.0003
     79  CZ        17.3050  -12.0760    8.3190 C.ar   97  PHE97      -0.0000
     80  N         20.9460  -11.9890    2.0580 N.3   117  LEU117     -0.1245
     81  CA        21.6460  -10.7890    2.5870 C.3   117  LEU117      0.1561
     82  C         23.1250  -10.6170    2.2260 C.2   117  LEU117      0.2260
     83  O         23.5950   -9.4660    2.1180 O.2   117  LEU117     -0.2867
     84  CB        21.5410  -10.6790    4.0860 C.3   117  LEU117      0.0270
     85  CG        20.2520  -10.1660    4.6810 C.3   117  LEU117      0.0019
     86  CD1       20.3680  -10.4740    6.1580 C.3   117  LEU117      0.0001
     87  CD2       20.1180   -8.6830    4.4860 C.3   117  LEU117      0.0001
     88  N         15.1200  -12.6220   17.2940 N.3   147  PHE147     -0.1241
     89  CA        15.4870  -11.9370   16.0870 C.3   147  PHE147      0.1605
     90  C         15.7980  -10.4770   16.3810 C.2   147  PHE147      0.2264
     91  O         16.7150   -9.9230   15.8350 O.2   147  PHE147     -0.2867
     92  CB        14.2690  -12.0180   15.1040 C.3   147  PHE147      0.0534
     93  CG        14.4410  -11.2730   13.8410 C.ar  147  PHE147     -0.0203
     94  CD1       15.2510  -11.7800   12.8030 C.ar  147  PHE147     -0.0042
     95  CD2       13.7510  -10.0530   13.6510 C.ar  147  PHE147     -0.0042
     96  CE1       15.3510  -11.0900   11.5280 C.ar  147  PHE147     -0.0003
     97  CE2       13.8380   -9.3260   12.4290 C.ar  147  PHE147     -0.0003
     98  CZ        14.6690   -9.8190   11.3510 C.ar  147  PHE147     -0.0000
     99  N         19.6940   -7.8150   16.2960 N.3   151  MET151     -0.1245
    100  CA        19.9830   -6.4600   15.8470 C.3   151  MET151      0.1570
    101  C         20.0820   -5.4590   16.9540 C.2   151  MET151      0.2261
    102  O         19.8600   -4.2720   16.7360 O.2   151  MET151     -0.2867
    103  CB        18.8950   -5.9470   14.9320 C.3   151  MET151      0.0387
    104  CG        19.3310   -5.9390   13.4870 C.3   151  MET151      0.0595
    105  SD        18.9140   -7.5120   12.9100 S.3   151  MET151     -0.1393
    106  CE        17.2200   -7.4590   13.3100 C.3   151  MET151      0.0692
@<TRIPOS>BOND
     1    21    22    1
     2    14    15    2
     3    14    13    1
     4    12    13    1
     5    22    23    1
     6    22    25    1
     7    13    16    1
     8    23    24    2
     9    16    17    1
    10    80    81    1
    11    83    82    2
    12     3     4    2
    13     3     2    1
    14    82    81    1
    15    25    26    1
    16    19    18   ar
    17    81    84    1
    18    17    18    1
    19    26    27    1
    20     2     5    1
    21     2     1    1
    22    18    20   ar
    23    10     9    1
    24     5     6    1
    25    84    85    1
    26    27    29   ar
    27    27    28   ar
    28     6     7    1
    29    87    85    1
    30     7     8    1
    31    85    86    1
    32     9     8    2
    33     9    11    1
    34    69    70    1
    35    72    71    2
    36    70    71    1
    37    70    73    1
    38    67    66    2
    39    76    78   ar
    40    76    74   ar
    41    78    79   ar
    42    55    53   ar
    43    65    64    1
    44    65    66    1
    45    65    68    1
    46    74    73    1
    47    74    75   ar
    48    79    77   ar
    49    53    52    1
    50    53    54   ar
    51    75    77   ar
    52    37    36   ar
    53    52    51    1
    54    38    36   ar
    55    36    35    1
    56    50    49    2
    57    51    48    1
    58    48    49    1
    59    48    47    1
    60    49    56   am
    61    35    34    1
    62    34    31    1
    63    98    96   ar
    64    98    97   ar
    65    30    31    1
    66    96    94   ar
    67    59    58    2
    68    56    57    1
    69    45    43    1
    70    46    44    1
    71    58    57    1
    72    31    32    1
    73    44    43    1
    74    57    60    1
    75    97    95   ar
    76    42    41    2
    77    33    32    2
    78    94    93   ar
    79    43    40    1
    80   105   106    1
    81   105   104    1
    82    40    41    1
    83    40    39    1
    84   104   103    1
    85    95    93   ar
    86    93    92    1
    87    60    61    1
    88    63    61    1
    89    61    62    1
    90   103   100    1
    91    92    89    1
    92    91    90    2
    93   100    99    1
    94   100   101    1
    95    89    90    1
    96    89    88    1
    97   102   101    2
