@<TRIPOS>MOLECULE
tmp/3ox7A00.pdb
 103 101 0 0 0
SMALL
GASTEIGER

@<TRIPOS>ATOM
      1  N        -47.7520  -23.9520    1.4150 N.3   129  PHE129     -0.1227
      2  CA       -47.1350  -24.3400    2.6800 C.3   129  PHE129      0.1736
      3  C        -47.1560  -25.8530    2.8350 C.2   129  PHE129      0.2596
      4  O        -48.0880  -26.5280    2.3780 O.2   129  PHE129     -0.2718
      5  CB       -47.7840  -23.6340    3.8830 C.3   129  PHE129      0.0547
      6  CG       -49.1450  -24.1660    4.2620 C.ar  129  PHE129     -0.0202
      7  CD1      -49.2760  -25.1950    5.1960 C.ar  129  PHE129     -0.0042
      8  CD2      -50.2990  -23.6080    3.7200 C.ar  129  PHE129     -0.0042
      9  CE1      -50.5380  -25.6790    5.5610 C.ar  129  PHE129     -0.0003
     10  CE2      -51.5620  -24.0830    4.0790 C.ar  129  PHE129     -0.0003
     11  CZ       -51.6810  -25.1190    5.0020 C.ar  129  PHE129     -0.0000
     12  N        -46.1110  -26.3830    3.4570 N.am  130  GLY130     -0.1957
     13  CA       -45.9500  -27.8220    3.5820 C.3   130  GLY130      0.1869
     14  C        -45.0690  -28.4120    2.4970 C.2   130  GLY130      0.2309
     15  O        -44.6450  -29.5640    2.6100 O.2   130  GLY130     -0.2863
     16  N        -39.4370  -27.6750    5.2630 N.3   158  LYS158     -0.1231
     17  CA       -40.7820  -27.4760    4.7260 C.3   158  LYS158      0.1693
     18  C        -41.2710  -26.0540    4.9580 C.2   158  LYS158      0.2592
     19  O        -41.0610  -25.4780    6.0340 O.2   158  LYS158     -0.2718
     20  CB       -41.7750  -28.4700    5.3380 C.3   158  LYS158      0.0285
     21  CG       -41.4840  -29.9260    5.0070 C.3   158  LYS158      0.0035
     22  CD       -42.6550  -30.8150    5.3980 C.3   158  LYS158      0.0206
     23  CE       -42.4260  -32.2470    4.9610 C.3   158  LYS158      0.1093
     24  NZ       -43.5680  -33.1340    5.3260 N.3   158  LYS158     -0.1314
     25  N        -41.9220  -25.5060    3.9370 N.am  159  LEU159     -0.1966
     26  CA       -42.4800  -24.1600    3.9810 C.3   159  LEU159      0.1728
     27  C        -43.5860  -24.0370    5.0270 C.2   159  LEU159      0.2616
     28  O        -44.4640  -24.8980    5.1340 O.2   159  LEU159     -0.2715
     29  CB       -42.9950  -23.7560    2.5970 C.3   159  LEU159      0.0311
     30  CG       -42.0590  -23.0650    1.6020 C.3   159  LEU159      0.0022
     31  CD1      -40.6460  -23.6480    1.5610 C.3   159  LEU159      0.0001
     32  CD2      -42.6670  -22.9860    0.2000 C.3   159  LEU159      0.0001
     33  N        -43.5070  -22.9550    5.7960 N.am  160  ILE160     -0.1977
     34  CA       -44.4630  -22.6250    6.8500 C.3   160  ILE160      0.1596
     35  C        -45.3060  -21.4350    6.3880 C.2   160  ILE160      0.2287
     36  O        -44.7760  -20.4870    5.8170 O.2   160  ILE160     -0.2864
     37  CB       -43.7140  -22.2540    8.1560 C.3   160  ILE160      0.0276
     38  CG1      -42.9750  -23.4770    8.7050 C.3   160  ILE160      0.0022
     39  CG2      -44.6630  -21.6820    9.2080 C.3   160  ILE160      0.0022
     40  CD1      -42.0640  -23.1940    9.8800 C.3   160  ILE160      0.0001
     41  N        -48.9150  -19.1190   10.3110 N.3   164  GLU164     -0.1245
     42  CA       -48.2620  -19.8810   11.3690 C.3   164  GLU164      0.1567
     43  C        -47.0380  -19.1290   11.9100 C.2   164  GLU164      0.2260
     44  O        -46.8380  -19.0670   13.1240 O.2   164  GLU164     -0.2867
     45  CB       -47.8790  -21.2780   10.8650 C.3   164  GLU164      0.0388
     46  CG       -47.3810  -22.2480   11.9450 C.3   164  GLU164      0.1160
     47  CD       -46.9770  -23.6160   11.3890 C.2   164  GLU164      0.3649
     48  OE1      -47.5350  -24.0450   10.3570 O.co2 164  GLU164     -0.2457
     49  OE2      -46.0990  -24.2690   11.9910 O.co2 164  GLU164     -0.2457
     50  N        -44.1140  -18.1900   17.6620 N.3   170  TYR170     -0.1241
     51  CA       -43.1360  -18.2620   16.5800 C.3   170  TYR170      0.1605
     52  C        -42.3800  -16.9260   16.5240 C.2   170  TYR170      0.2264
     53  O        -41.5820  -16.6470   17.4210 O.2   170  TYR170     -0.2867
     54  CB       -43.8020  -18.6430   15.2490 C.3   170  TYR170      0.0534
     55  CG       -43.9930  -20.1380   15.0540 C.ar  170  TYR170     -0.0201
     56  CD1      -44.6580  -20.9120   16.0060 C.ar  170  TYR170     -0.0009
     57  CD2      -43.5190  -20.7760   13.9070 C.ar  170  TYR170     -0.0009
     58  CE1      -44.8380  -22.2870   15.8280 C.ar  170  TYR170      0.0417
     59  CE2      -43.6950  -22.1530   13.7200 C.ar  170  TYR170      0.0417
     60  CZ       -44.3520  -22.8980   14.6850 C.ar  170  TYR170      0.1957
     61  OH       -44.5280  -24.2540   14.5060 O.3   170  TYR170     -0.2866
     62  N        -38.9570  -24.8130    8.0020 N.3   183  ALA183     -0.1231
     63  CA       -38.3570  -25.6100    9.0750 C.3   183  ALA183      0.1694
     64  C        -38.6420  -27.0940    8.9310 C.2   183  ALA183      0.2592
     65  O        -39.4810  -27.5070    8.1270 O.2   183  ALA183     -0.2718
     66  CB       -38.8310  -25.1250   10.4420 C.3   183  ALA183      0.0304
     67  N        -37.9460  -27.8840    9.7420 N.am  184  ASP184     -0.1960
     68  CA       -38.1920  -29.3160    9.8510 C.3   184  ASP184      0.1825
     69  C        -39.3190  -29.5800   10.8570 C.2   184  ASP184      0.2464
     70  O        -39.3840  -28.9150   11.8890 O.2   184  ASP184     -0.2730
     71  CB       -36.9120  -30.0110   10.3200 C.3   184  ASP184      0.1450
     72  CG       -37.0670  -31.5150   10.4170 C.2   184  ASP184      0.3671
     73  OD1      -37.1220  -32.1840    9.3640 O.co2 184  ASP184     -0.2456
     74  OD2      -37.1490  -32.0270   11.5430 O.co2 184  ASP184     -0.2456
     75  N        -40.2090  -30.5560   10.5670 N.am  185  PRO185     -0.2727
     76  CA       -41.2940  -30.8380   11.5200 C.3   185  PRO185      0.1402
     77  C        -40.8320  -31.2290   12.9310 C.2   185  PRO185      0.2269
     78  O        -41.5480  -30.9660   13.9000 O.2   185  PRO185     -0.2865
     79  CB       -42.0530  -31.9880   10.8520 C.3   185  PRO185      0.0296
     80  CG       -41.8250  -31.7760    9.3920 C.3   185  PRO185      0.0237
     81  CD       -40.3990  -31.2800    9.2950 C.3   185  PRO185      0.0939
     82  N        -37.8850  -30.0650   14.0690 N.3   187  TRP187     -0.1241
     83  CA       -36.8880  -29.0090   14.3330 C.3   187  TRP187      0.1605
     84  C        -35.4400  -29.5270   14.3720 C.2   187  TRP187      0.2264
     85  O        -34.5650  -28.9230   14.9960 O.2   187  TRP187     -0.2867
     86  CB       -37.2250  -28.2380   15.6240 C.3   187  TRP187      0.0550
     87  CG       -38.6610  -27.8310   15.7220 C.ar  187  TRP187      0.0003
     88  CD1      -39.6490  -28.4720   16.4130 C.ar  187  TRP187      0.0946
     89  CD2      -39.2770  -26.6940   15.1030 C.ar  187  TRP187      0.0152
     90  NE1      -40.8430  -27.8050   16.2640 N.ar  187  TRP187     -0.2442
     91  CE2      -40.6400  -26.7070   15.4680 C.ar  187  TRP187      0.0810
     92  CE3      -38.8050  -25.6630   14.2780 C.ar  187  TRP187      0.0012
     93  CZ2      -41.5420  -25.7330   15.0300 C.ar  187  TRP187      0.0191
     94  CZ3      -39.7020  -24.6950   13.8440 C.ar  187  TRP187      0.0001
     95  CH2      -41.0570  -24.7410   14.2190 C.ar  187  TRP187      0.0015
     96  N        -40.1000  -23.9340   17.3950 N.3   224  ASP224     -0.1239
     97  CA       -40.8750  -22.7140   17.1820 C.3   224  ASP224      0.1674
     98  C        -40.0590  -21.5340   16.6550 C.2   224  ASP224      0.2266
     99  O        -40.5150  -20.3980   16.6970 O.2   224  ASP224     -0.2867
    100  CB       -41.6480  -22.3190   18.4540 C.3   224  ASP224      0.1410
    101  CG       -42.6680  -23.3610   18.8680 C.2   224  ASP224      0.3668
    102  OD1      -43.0560  -24.2050   18.0300 O.co2 224  ASP224     -0.2456
    103  OD2      -43.0860  -23.3290   20.0450 O.co2 224  ASP224     -0.2456
@<TRIPOS>BOND
     1    32    30    1
     2     1     2    1
     3    31    30    1
     4    30    29    1
     5     4     3    2
     6    14    15    2
     7    14    13    1
     8    29    26    1
     9     2     3    1
    10     2     5    1
    11     3    12   am
    12    12    13    1
    13     8    10   ar
    14     8     6   ar
    15     5     6    1
    16    25    26    1
    17    25    18   am
    18    26    27    1
    19    10    11   ar
    20     6     7   ar
    21    17    18    1
    22    17    16    1
    23    17    20    1
    24    18    19    2
    25    23    24    1
    26    23    22    1
    27    11     9   ar
    28    21    20    1
    29    21    22    1
    30    27    28    2
    31    27    33   am
    32     7     9   ar
    33    33    34    1
    34    36    35    2
    35    35    34    1
    36    34    37    1
    37    62    63    1
    38    65    64    2
    39    37    38    1
    40    37    39    1
    41    38    40    1
    42    64    63    1
    43    64    67   am
    44    63    66    1
    45    81    80    1
    46    81    75    1
    47    73    72   ar
    48    80    79    1
    49    67    68    1
    50    68    71    1
    51    68    69    1
    52    41    42    1
    53    71    72    1
    54    48    47   ar
    55    72    74   ar
    56    75    69   am
    57    75    76    1
    58    79    76    1
    59    69    70    2
    60    45    42    1
    61    45    46    1
    62    42    43    1
    63    47    46    1
    64    47    49   ar
    65    76    77    1
    66    43    44    2
    67    77    78    2
    68    59    57   ar
    69    59    60   ar
    70    94    95   ar
    71    94    92   ar
    72    57    55   ar
    73    82    83    1
    74    95    93   ar
    75    92    89   ar
    76    83    84    1
    77    83    86    1
    78    84    85    2
    79    61    60    1
    80    60    58   ar
    81    93    91   ar
    82    55    54    1
    83    55    56   ar
    84    89    91   ar
    85    89    87   ar
    86    54    51    1
    87    91    90   ar
    88    86    87    1
    89    87    88   ar
    90    58    56   ar
    91    90    88   ar
    92    52    51    1
    93    52    53    2
    94    51    50    1
    95    98    99    2
    96    98    97    1
    97    97    96    1
    98    97   100    1
    99   102   101   ar
   100   100   101    1
   101   101   103   ar
