@<TRIPOS>MOLECULE
tmp/3oxhA01.pdb
 103 101 0 0 0
SMALL
GASTEIGER

@<TRIPOS>ATOM
      1  N         20.3100   17.9000   -5.6030 N.3    12  ARG12      -0.1245
      2  CA        21.2990   18.9810   -5.5380 C.3    12  ARG12       0.1563
      3  C         22.5900   18.4990   -6.1880 C.2    12  ARG12       0.2260
      4  O         23.0060   17.3580   -5.9780 O.2    12  ARG12      -0.2867
      5  CB        21.5480   19.3730   -4.0850 C.3    12  ARG12       0.0307
      6  CG        20.2900   19.7120   -3.3370 C.3    12  ARG12       0.0489
      7  CD        19.7740   21.0060   -3.9250 C.3    12  ARG12       0.2205
      8  NE        20.2010   21.9420   -2.8890 N.pl3  12  ARG12      -0.0865
      9  CZ        20.3700   23.2400   -3.1030 C.cat  12  ARG12       0.5346
     10  NH1       20.1400   23.7290   -4.3210 N.pl3  12  ARG12       0.1354
     11  NH2       20.8010   23.9770   -2.0780 N.pl3  12  ARG12       0.1354
     12  N         26.4310   23.4920   -4.3180 N.3    15  TYR15      -0.1241
     13  CA        26.0630   24.2830   -3.1490 C.3    15  TYR15       0.1605
     14  C         26.7500   25.6340   -3.1880 C.2    15  TYR15       0.2264
     15  O         27.9770   25.6920   -3.2260 O.2    15  TYR15      -0.2867
     16  CB        26.4510   23.5580   -1.8650 C.3    15  TYR15       0.0534
     17  CG        25.4870   22.4680   -1.5430 C.ar   15  TYR15      -0.0201
     18  CD1       24.3130   22.7440   -0.8430 C.ar   15  TYR15      -0.0009
     19  CD2       25.7260   21.1720   -1.9430 C.ar   15  TYR15      -0.0009
     20  CE1       23.4200   21.7490   -0.5370 C.ar   15  TYR15       0.0417
     21  CE2       24.8170   20.1570   -1.6460 C.ar   15  TYR15       0.0417
     22  CZ        23.6810   20.4510   -0.9450 C.ar   15  TYR15       0.1957
     23  OH        22.7950   19.4410   -0.6640 O.3    15  TYR15      -0.2866
     24  N         25.6250   27.8090    2.2290 N.3    19  THR19      -0.1204
     25  CA        24.5220   26.8570    2.2940 C.3    19  THR19       0.1979
     26  C         24.9210   25.6030    3.0900 C.2    19  THR19       0.2459
     27  O         25.9240   24.9670    2.7750 O.2    19  THR19      -0.2732
     28  CB        24.0670   26.4180    0.8860 C.3    19  THR19       0.1783
     29  OG1       23.8630   27.5710    0.0400 O.3    19  THR19      -0.2211
     30  CG2       22.7860   25.5760    0.9810 C.3    19  THR19       0.0376
     31  N         24.1550   25.2490    4.1320 N.am   20  PRO20      -0.2728
     32  CA        24.4650   23.9590    4.7510 C.3    20  PRO20       0.1401
     33  C         24.3380   22.8390    3.7280 C.2    20  PRO20       0.2269
     34  O         23.2890   22.6880    3.0680 O.2    20  PRO20      -0.2865
     35  CB        23.4130   23.8310    5.8610 C.3    20  PRO20       0.0296
     36  CG        23.0520   25.2600    6.1910 C.3    20  PRO20       0.0237
     37  CD        23.0630   25.9360    4.8440 C.3    20  PRO20       0.0939
     38  N         17.7380   16.4770   -0.8330 N.3   138  VAL138     -0.1231
     39  CA        17.3260   17.1470    0.3930 C.3   138  VAL138      0.1692
     40  C         15.8190   17.3760    0.3800 C.2   138  VAL138      0.2592
     41  O         15.1460   17.1240   -0.6330 O.2   138  VAL138     -0.2718
     42  CB        18.0600   18.5000    0.6260 C.3   138  VAL138      0.0266
     43  CG1       19.5690   18.2860    0.7170 C.3   138  VAL138      0.0020
     44  CG2       17.6930   19.5270   -0.4620 C.3   138  VAL138      0.0020
     45  N         15.3010   17.8380    1.5220 N.am  139  ASN139     -0.1974
     46  CA        13.8870   18.2080    1.6930 C.3   139  ASN139      0.1688
     47  C         12.8420   17.0730    1.6410 C.2   139  ASN139      0.2292
     48  O         11.8810   17.0830    2.4360 O.2   139  ASN139     -0.2864
     49  CB        13.5080   19.3520    0.7310 C.3   139  ASN139      0.1181
     50  CG        14.1850   20.6550    1.0970 C.2   139  ASN139      0.2629
     51  OD1       14.6270   20.8280    2.2370 O.2   139  ASN139     -0.2716
     52  ND2       14.2540   21.5780    0.1460 N.am  139  ASN139     -0.0877
     53  N         16.1780   18.3760    5.9260 N.3   145  ILE145     -0.1231
     54  CA        15.2280   19.4480    5.5860 C.3   145  ILE145      0.1692
     55  C         15.5460   20.8230    6.1790 C.2   145  ILE145      0.2592
     56  O         15.2290   21.8390    5.5570 O.2   145  ILE145     -0.2718
     57  CB        13.7580   19.0430    5.8920 C.3   145  ILE145      0.0266
     58  CG1       12.7900   20.0410    5.2520 C.3   145  ILE145      0.0019
     59  CG2       13.5230   18.8960    7.4080 C.3   145  ILE145      0.0020
     60  CD1       11.3470   19.5790    5.2650 C.3   145  ILE145      0.0001
     61  N         16.1990   20.8830    7.3360 N.am  146  TRP146     -0.1962
     62  CA        16.4880   22.1770    7.9530 C.3   146  TRP146      0.1771
     63  C         17.6900   22.1100    8.8480 C.2   146  TRP146      0.2619
     64  O         17.9150   21.0920    9.5320 O.2   146  TRP146     -0.2715
     65  CB        15.2800   22.6440    8.7510 C.3   146  TRP146      0.0590
     66  CG        15.1980   24.1280    9.0010 C.ar  146  TRP146      0.0006
     67  CD1       15.0740   24.7370   10.2120 C.ar  146  TRP146      0.0946
     68  CD2       15.1690   25.1700    8.0240 C.ar  146  TRP146      0.0152
     69  NE1       14.9970   26.0990   10.0580 N.ar  146  TRP146     -0.2442
     70  CE2       15.0440   26.3990    8.7270 C.ar  146  TRP146      0.0810
     71  CE3       15.2500   25.2040    6.6270 C.ar  146  TRP146      0.0012
     72  CZ2       14.9700   27.6410    8.0760 C.ar  146  TRP146      0.0191
     73  CZ3       15.1880   26.4540    5.9780 C.ar  146  TRP146      0.0001
     74  CH2       15.0700   27.6530    6.7120 C.ar  146  TRP146      0.0015
     75  N         18.4660   23.2010    8.8200 N.am  147  ASN147     -0.1972
     76  CA        19.5870   23.3860    9.7090 C.3   147  ASN147      0.1688
     77  C         19.3400   24.6370   10.4850 C.2   147  ASN147      0.2292
     78  O         19.1080   25.6900    9.8920 O.2   147  ASN147     -0.2864
     79  CB        20.8750   23.5270    8.9100 C.3   147  ASN147      0.1181
     80  CG        21.1500   22.2970    8.0670 C.2   147  ASN147      0.2629
     81  OD1       21.7720   21.3240    8.5280 O.2   147  ASN147     -0.2716
     82  ND2       20.6830   22.3230    6.8680 N.am  147  ASN147     -0.0877
     83  N         18.7010   32.8390   -1.5670 N.3   181  ALA181     -0.1231
     84  CA        18.1380   31.5510   -1.1980 C.3   181  ALA181      0.1694
     85  C         18.1080   31.4190    0.3280 C.2   181  ALA181      0.2592
     86  O         19.1070   31.6860    0.9810 O.2   181  ALA181     -0.2718
     87  CB        18.9670   30.4210   -1.8130 C.3   181  ALA181      0.0304
     88  N         16.9470   31.0300    0.8620 N.am  182  GLU182     -0.1966
     89  CA        16.7930   30.6870    2.2720 C.3   182  GLU182      0.1733
     90  C         17.4420   29.3290    2.4850 C.2   182  GLU182      0.2616
     91  O         17.1410   28.3640    1.7650 O.2   182  GLU182     -0.2715
     92  CB        15.3190   30.6270    2.6740 C.3   182  GLU182      0.0429
     93  CG        14.5990   31.9640    2.6120 C.3   182  GLU182      0.1163
     94  CD        13.1100   31.8650    2.9650 C.2   182  GLU182      0.3649
     95  OE1       12.5710   30.7610    3.2080 O.co2 182  GLU182     -0.2457
     96  OE2       12.4730   32.9200    3.0130 O.co2 182  GLU182     -0.2457
     97  N         18.3490   29.2600    3.4580 N.am  183  VAL183     -0.1977
     98  CA        19.1480   28.0660    3.6500 C.3   183  VAL183      0.1596
     99  C         19.1600   27.5140    5.0840 C.2   183  VAL183      0.2287
    100  O         19.7820   26.4980    5.3330 O.2   183  VAL183     -0.2864
    101  CB        20.6200   28.3050    3.1970 C.3   183  VAL183      0.0276
    102  CG1       20.6860   28.7050    1.7410 C.3   183  VAL183      0.0022
    103  CG2       21.3380   29.3120    4.0910 C.3   183  VAL183      0.0022
@<TRIPOS>BOND
     1     3     4    2
     2     3     2    1
     3     1     2    1
     4     2     5    1
     5    10     9    1
     6    12    13    1
     7     5     6    1
     8     7     6    1
     9     7     8    1
    10    15    14    2
    11    14    13    1
    12    13    16    1
    13     9     8    2
    14     9    11    1
    15    19    21   ar
    16    19    17   ar
    17    16    17    1
    18    87    84    1
    19    21    22   ar
    20    83    84    1
    21    17    18   ar
    22    84    85    1
    23    22    23    1
    24    22    20   ar
    25    18    20   ar
    26    38    39    1
    27    41    40    2
    28    44    42    1
    29    29    28    1
    30    52    50   am
    31    85    88   am
    32    85    86    2
    33    40    39    1
    34    40    45   am
    35    39    42    1
    36    42    43    1
    37    49    50    1
    38    49    46    1
    39    88    89    1
    40    28    30    1
    41    28    25    1
    42    50    51    2
    43    45    46    1
    44    47    46    1
    45    47    48    2
    46   102   101    1
    47    91    90    2
    48    24    25    1
    49    89    90    1
    50    89    92    1
    51    25    26    1
    52    90    97   am
    53    93    92    1
    54    93    94    1
    55    27    26    2
    56    94    96   ar
    57    94    95   ar
    58    34    33    2
    59    26    31   am
    60   101    98    1
    61   101   103    1
    62    97    98    1
    63    98    99    1
    64    33    32    1
    65    31    32    1
    66    31    37    1
    67    32    35    1
    68    37    36    1
    69    99   100    2
    70    58    60    1
    71    58    57    1
    72    56    55    2
    73    54    57    1
    74    54    53    1
    75    54    55    1
    76    35    36    1
    77    57    59    1
    78    73    71   ar
    79    73    74   ar
    80    55    61   am
    81    71    68   ar
    82    74    72   ar
    83    82    80   am
    84    61    62    1
    85    62    65    1
    86    62    63    1
    87    68    70   ar
    88    68    66   ar
    89    80    81    2
    90    80    79    1
    91    72    70   ar
    92    70    69   ar
    93    65    66    1
    94    75    63   am
    95    75    76    1
    96    63    64    2
    97    79    76    1
    98    66    67   ar
    99    76    77    1
   100    78    77    2
   101    69    67   ar
