@<TRIPOS>MOLECULE
tmp/3oxhA00.pdb
 107 106 0 0 0
SMALL
GASTEIGER

@<TRIPOS>ATOM
      1  N         36.7380   13.6700   12.2030 N.3     3  HIS3       -0.1241
      2  CA        37.7800   13.8420   11.1920 C.3     3  HIS3        0.1621
      3  C         39.1480   14.1620   11.8130 C.2     3  HIS3        0.2264
      4  O         40.1350   14.2960   11.0910 O.2     3  HIS3       -0.2867
      5  CB        37.3870   14.9400   10.2020 C.3     3  HIS3        0.0745
      6  CG        36.3660   14.5140    9.2000 C.ar    3  HIS3        0.0817
      7  ND1       35.1670   15.1700    9.0270 N.ar    3  HIS3       -0.2268
      8  CD2       36.3660   13.4920    8.3130 C.ar    3  HIS3        0.1154
      9  CE1       34.4710   14.5730    8.0770 C.ar    3  HIS3        0.1986
     10  NE2       35.1760   13.5480    7.6310 N.ar    3  HIS3       -0.2212
     11  N         25.7310   19.3910    4.2100 N.3    22  TRP22      -0.1241
     12  CA        25.9460   18.0270    4.6440 C.3    22  TRP22       0.1605
     13  C         25.7570   17.9280    6.1250 C.2    22  TRP22       0.2264
     14  O         26.0180   18.8940    6.8520 O.2    22  TRP22      -0.2867
     15  CB        27.3840   17.6140    4.2980 C.3    22  TRP22       0.0550
     16  CG        27.7560   16.1540    4.4160 C.ar   22  TRP22       0.0003
     17  CD1       28.8050   15.6300    5.1300 C.ar   22  TRP22       0.0946
     18  CD2       27.1280   15.0390    3.7620 C.ar   22  TRP22       0.0152
     19  NE1       28.8490   14.2620    4.9710 N.ar   22  TRP22      -0.2442
     20  CE2       27.8360   13.8800    4.1350 C.ar   22  TRP22       0.0810
     21  CE3       26.0390   14.9090    2.8920 C.ar   22  TRP22       0.0012
     22  CZ2       27.4910   12.6160    3.6660 C.ar   22  TRP22       0.0191
     23  CZ3       25.6830   13.6540    2.4580 C.ar   22  TRP22       0.0001
     24  CH2       26.4170   12.5230    2.8360 C.ar   22  TRP22       0.0015
     25  N         32.6430    3.1530    2.9520 N.3    48  ASN48      -0.1226
     26  CA        33.8750    3.5780    2.2880 C.3    48  ASN48       0.1770
     27  C         35.0100    3.6700    3.2960 C.2    48  ASN48       0.2439
     28  O         34.8740    4.3050    4.3260 O.2    48  ASN48      -0.2733
     29  CB        33.6680    4.9410    1.6070 C.3    48  ASN48       0.1168
     30  CG        32.3840    4.9970    0.7800 C.2    48  ASN48       0.2627
     31  OD1       31.5700    5.9110    0.9350 O.2    48  ASN48      -0.2716
     32  ND2       32.1840    3.9990   -0.0780 N.am   48  ASN48      -0.0877
     33  N         36.1430    3.0450    3.0010 N.am   49  PRO49      -0.2729
     34  CA        37.2920    3.1030    3.9100 C.3    49  PRO49       0.1401
     35  C         37.9070    4.4860    4.0280 C.2    49  PRO49       0.2269
     36  O         37.5550    5.2620    4.9280 O.2    49  PRO49      -0.2865
     37  CB        38.3010    2.1400    3.3180 C.3    49  PRO49       0.0296
     38  CG        38.0320    2.1780    1.8090 C.3    49  PRO49       0.0237
     39  CD        36.5190    2.2260    1.7730 C.3    49  PRO49       0.0939
     40  N         33.5970    5.0500    6.6070 N.3    52  TYR52      -0.1241
     41  CA        32.6010    6.1320    6.5420 C.3    52  TYR52       0.1605
     42  C         31.3830    5.5900    5.7970 C.2    52  TYR52       0.2264
     43  O         31.4650    5.2530    4.6090 O.2    52  TYR52      -0.2867
     44  CB        33.1890    7.3280    5.7980 C.3    52  TYR52       0.0534
     45  CG        32.4620    8.6450    5.9450 C.ar   52  TYR52      -0.0201
     46  CD1       32.5120    9.3620    7.1390 C.ar   52  TYR52      -0.0009
     47  CD2       31.7660    9.2000    4.8750 C.ar   52  TYR52      -0.0009
     48  CE1       31.8680   10.6020    7.2710 C.ar   52  TYR52       0.0417
     49  CE2       31.1300   10.4350    4.9830 C.ar   52  TYR52       0.0417
     50  CZ        31.1890   11.1390    6.1990 C.ar   52  TYR52       0.1957
     51  OH        30.5710   12.3670    6.3410 O.3    52  TYR52      -0.2866
     52  N         28.1300    5.9880    4.0200 N.3    54  MET54      -0.1245
     53  CA        27.3050    6.9560    3.3030 C.3    54  MET54       0.1570
     54  C         25.8620    6.4800    3.2700 C.2    54  MET54       0.2261
     55  O         25.5720    5.4180    2.7000 O.2    54  MET54      -0.2867
     56  CB        27.8040    7.1030    1.8630 C.3    54  MET54       0.0387
     57  CG        27.4630    8.4020    1.2010 C.3    54  MET54       0.0595
     58  SD        28.5740    9.6820    1.7940 S.3    54  MET54      -0.1393
     59  CE        28.9890   10.4950    0.2760 C.3    54  MET54       0.0692
     60  N         40.4310   15.6940    3.0250 N.3   107  ILE107     -0.1245
     61  CA        39.8150   14.4180    3.3650 C.3   107  ILE107      0.1561
     62  C         39.8630   13.5630    2.1170 C.2   107  ILE107      0.2260
     63  O         38.9850   13.6620    1.2670 O.2   107  ILE107     -0.2867
     64  CB        38.3250   14.5780    3.7810 C.3   107  ILE107      0.0252
     65  CG1       38.1360   15.7010    4.7980 C.3   107  ILE107      0.0019
     66  CG2       37.7850   13.2610    4.2970 C.3   107  ILE107      0.0019
     67  CD1       38.9050   15.5170    6.0480 C.3   107  ILE107      0.0001
     68  N         37.7190   13.6210   -1.2560 N.3   110  ALA110     -0.1245
     69  CA        36.3350   14.0400   -1.0350 C.3   110  ALA110      0.1562
     70  C         36.2040   15.5610   -1.0250 C.2   110  ALA110      0.2260
     71  O         35.2410   16.1280   -1.5500 O.2   110  ALA110     -0.2867
     72  CB        35.8340   13.4740    0.2650 C.3   110  ALA110      0.0290
     73  N         33.0910   23.1650    4.4390 N.3   127  TRP127     -0.1241
     74  CA        33.3690   22.1270    3.4630 C.3   127  TRP127      0.1605
     75  C         33.6400   22.7030    2.0690 C.2   127  TRP127      0.2264
     76  O         32.7590   23.3120    1.4440 O.2   127  TRP127     -0.2867
     77  CB        32.1860   21.1490    3.3880 C.3   127  TRP127      0.0550
     78  CG        32.4630   19.9920    2.4760 C.ar  127  TRP127      0.0003
     79  CD1       32.1160   19.8620    1.1590 C.ar  127  TRP127      0.0946
     80  CD2       33.2110   18.8310    2.8080 C.ar  127  TRP127      0.0152
     81  NE1       32.5870   18.6720    0.6610 N.ar  127  TRP127     -0.2442
     82  CE2       33.2790   18.0260    1.6470 C.ar  127  TRP127      0.0810
     83  CE3       33.8400   18.3890    3.9760 C.ar  127  TRP127      0.0012
     84  CZ2       33.9400   16.7940    1.6270 C.ar  127  TRP127      0.0191
     85  CZ3       34.4910   17.1660    3.9580 C.ar  127  TRP127      0.0001
     86  CH2       34.5360   16.3810    2.7860 C.ar  127  TRP127      0.0015
     87  N         35.5630   15.7000   -4.7290 N.3   131  ARG131     -0.1231
     88  CA        34.6590   14.6560   -5.2210 C.3   131  ARG131      0.1694
     89  C         33.2780   14.6710   -4.5510 C.2   131  ARG131      0.2592
     90  O         32.2770   14.4000   -5.2040 O.2   131  ARG131     -0.2718
     91  CB        35.2810   13.2740   -5.0140 C.3   131  ARG131      0.0321
     92  CG        34.4160   12.1040   -5.5020 C.3   131  ARG131      0.0489
     93  CD        35.1810   10.8020   -5.4460 C.3   131  ARG131      0.2205
     94  NE        35.6460   10.4660   -4.1120 N.pl3 131  ARG131     -0.0865
     95  CZ        34.9740    9.8500   -3.1950 C.cat 131  ARG131      0.5346
     96  NH1       33.6710    9.5070   -3.3490 N.pl3 131  ARG131      0.1354
     97  NH2       35.4710    9.5970   -2.0190 N.pl3 131  ARG131      0.1354
     98  N         33.2260   14.9930   -3.2590 N.am  132  HIS132     -0.1976
     99  CA        31.9770   14.9320   -2.4850 C.3   132  HIS132      0.1656
    100  C         31.4530   16.3460   -2.3050 C.2   132  HIS132      0.2291
    101  O         32.1530   17.1900   -1.7660 O.2   132  HIS132     -0.2864
    102  CB        32.2310   14.2800   -1.1210 C.3   132  HIS132      0.0771
    103  CG        31.0820   14.3760   -0.1620 C.ar  132  HIS132      0.0820
    104  ND1       29.9070   13.6770   -0.3280 N.ar  132  HIS132     -0.2267
    105  CD2       30.9500   15.0640    0.9990 C.ar  132  HIS132      0.1154
    106  CE1       29.0970   13.9450    0.6790 C.ar  132  HIS132      0.1986
    107  NE2       29.7050   14.7820    1.4960 N.ar  132  HIS132     -0.2212
@<TRIPOS>BOND
     1    92    93    1
     2    92    91    1
     3    93    94    1
     4    88    91    1
     5    88    87    1
     6    88    89    1
     7    90    89    2
     8    89    98   am
     9    94    95    2
    10    96    95    1
    11    98    99    1
    12    95    97    1
    13    99   100    1
    14    99   102    1
    15   100   101    2
    16    71    70    2
    17    68    69    1
    18   102   103    1
    19    69    70    1
    20    69    72    1
    21   104   103   ar
    22   104   106   ar
    23   103   105   ar
    24    32    30   am
    25    59    58    1
    26    81    79   ar
    27    81    82   ar
    28   106   107   ar
    29    30    31    2
    30    30    29    1
    31   105   107   ar
    32    79    78   ar
    33    57    58    1
    34    57    56    1
    35    63    62    2
    36    76    75    2
    37    29    26    1
    38    84    82   ar
    39    84    86   ar
    40    82    80   ar
    41    39    38    1
    42    39    33    1
    43    38    37    1
    44    56    53    1
    45    75    74    1
    46    62    61    1
    47    26    25    1
    48    26    27    1
    49    23    24   ar
    50    23    21   ar
    51    78    80   ar
    52    78    77    1
    53    55    54    2
    54    86    85   ar
    55    80    83   ar
    56    24    22   ar
    57    21    18   ar
    58    33    27   am
    59    33    34    1
    60    60    61    1
    61    54    53    1
    62    27    28    2
    63    53    52    1
    64    37    34    1
    65    61    64    1
    66    77    74    1
    67    74    73    1
    68    22    20   ar
    69    18    20   ar
    70    18    16   ar
    71    64    66    1
    72    64    65    1
    73    34    35    1
    74    85    83   ar
    75    35    36    2
    76    20    19   ar
    77    11    12    1
    78    15    16    1
    79    15    12    1
    80    16    17   ar
    81    43    42    2
    82    12    13    1
    83    65    67    1
    84    47    49   ar
    85    47    45   ar
    86    19    17   ar
    87    49    50   ar
    88    42    41    1
    89    44    45    1
    90    44    41    1
    91    45    46   ar
    92    13    14    2
    93    50    51    1
    94    50    48   ar
    95    41    40    1
    96    46    48   ar
    97    10     9   ar
    98    10     8   ar
    99     9     7   ar
   100     8     6   ar
   101     7     6   ar
   102     6     5    1
   103     5     2    1
   104     4     3    2
   105     2     3    1
   106     2     1    1
