@<TRIPOS>MOLECULE
tmp/3oxiA01.pdb
 107 99 0 0 0
SMALL
GASTEIGER

@<TRIPOS>ATOM
      1  N          1.1120    6.6850  -31.4260 N.3    25  ILE25      -0.1231
      2  CA        -0.1670    5.9930  -31.6030 C.3    25  ILE25       0.1692
      3  C         -0.8080    5.6440  -30.2460 C.2    25  ILE25       0.2592
      4  O         -1.9880    5.3280  -30.1730 O.2    25  ILE25      -0.2718
      5  CB        -0.0310    4.6980  -32.4660 C.3    25  ILE25       0.0266
      6  CG1        0.9490    3.6990  -31.8320 C.3    25  ILE25       0.0019
      7  CG2        0.4290    5.0530  -33.8690 C.3    25  ILE25       0.0020
      8  CD1        0.7650    2.2830  -32.2560 C.3    25  ILE25       0.0001
      9  N         -0.0270    5.7010  -29.1780 N.am   26  GLY26      -0.1957
     10  CA        -0.5120    5.3590  -27.8490 C.3    26  GLY26       0.1869
     11  C          0.0150    6.3160  -26.7990 C.2    26  GLY26       0.2309
     12  O          1.1740    6.8110  -26.9020 O.2    26  GLY26      -0.2863
     13  N          3.5420    5.0800  -27.0150 N.3    33  VAL33      -0.1245
     14  CA         3.9490    4.1300  -28.0320 C.3    33  VAL33       0.1561
     15  C          4.0070    4.8830  -29.3480 C.2    33  VAL33       0.2260
     16  O          3.0670    5.6110  -29.6800 O.2    33  VAL33      -0.2867
     17  CB         2.9760    2.9610  -28.0910 C.3    33  VAL33       0.0252
     18  CG1        3.3040    2.0020  -29.2620 C.3    33  VAL33       0.0019
     19  CG2        2.9760    2.2610  -26.7450 C.3    33  VAL33       0.0019
     20  N          6.1240   -0.8250  -33.7560 N.3    46  ALA46      -0.1245
     21  CA         5.7100    0.0180  -32.6150 C.3    46  ALA46       0.1562
     22  C          6.8280    0.0050  -31.5770 C.2    46  ALA46       0.2260
     23  O          7.3840   -1.0680  -31.2430 O.2    46  ALA46      -0.2867
     24  CB         4.3650   -0.4590  -32.0140 C.3    46  ALA46       0.0290
     25  N          1.1140  -10.1220  -29.5850 N.3    79  ILE79      -0.1245
     26  CA         2.0000   -9.2130  -30.3160 C.3    79  ILE79       0.1561
     27  C          3.4700   -9.6040  -30.0740 C.2    79  ILE79       0.2260
     28  O          3.9100   -9.7760  -28.9270 O.2    79  ILE79      -0.2867
     29  CB         1.7270   -7.7500  -29.8990 C.3    79  ILE79       0.0252
     30  CG1        2.0330   -6.7990  -31.0480 C.3    79  ILE79       0.0019
     31  CG2        2.5150   -7.3780  -28.6570 C.3    79  ILE79       0.0019
     32  CD1        0.9690   -6.8250  -32.1500 C.3    79  ILE79       0.0001
     33  N          8.0220   -3.7270  -31.2370 N.3   101  MET101     -0.1230
     34  CA         7.0500   -4.7770  -31.4030 C.3   101  MET101      0.1702
     35  C          6.4840   -4.7270  -32.8130 C.2   101  MET101      0.2592
     36  O          6.6940   -3.7320  -33.5050 O.2   101  MET101     -0.2718
     37  CB         5.9170   -4.5680  -30.4160 C.3   101  MET101      0.0401
     38  CG         6.3530   -4.5440  -28.9230 C.3   101  MET101      0.0596
     39  SD         5.0110   -3.7500  -27.9800 S.3   101  MET101     -0.1393
     40  CE         5.4100   -2.0120  -28.1080 C.3   101  MET101      0.0692
     41  N          5.7280   -5.7640  -33.1910 N.am  102  GLU102     -0.1966
     42  CA         4.8770   -5.7460  -34.3990 C.3   102  GLU102      0.1733
     43  C          3.8650   -4.6190  -34.3000 C.2   102  GLU102      0.2616
     44  O          3.3500   -4.3270  -33.2140 O.2   102  GLU102     -0.2715
     45  CB         4.0110   -7.0080  -34.4710 C.3   102  GLU102      0.0429
     46  CG         4.6950   -8.3190  -34.7140 C.3   102  GLU102      0.1163
     47  CD         3.8430   -9.5120  -34.2540 C.2   102  GLU102      0.3649
     48  OE1        4.3960  -10.5920  -34.0250 O.co2 102  GLU102     -0.2457
     49  OE2        2.6300   -9.3750  -34.0700 O.co2 102  GLU102     -0.2457
     50  N          3.5430   -4.0410  -35.4460 N.am  103  LEU103     -0.1963
     51  CA         2.4580   -3.1200  -35.6030 C.3   103  LEU103      0.1728
     52  C          1.4200   -3.7240  -36.5550 C.2   103  LEU103      0.2616
     53  O          1.7220   -4.0480  -37.7310 O.2   103  LEU103     -0.2715
     54  CB         2.9790   -1.8200  -36.1930 C.3   103  LEU103      0.0311
     55  CG         2.0250   -0.6230  -36.1940 C.3   103  LEU103      0.0022
     56  CD1        1.8270   -0.0610  -34.7760 C.3   103  LEU103      0.0001
     57  CD2        2.5800    0.4060  -37.0720 C.3   103  LEU103      0.0001
     58  N          0.1980   -3.8640  -36.0490 N.am  104  MET104     -0.1963
     59  CA        -0.9230   -4.3030  -36.8520 C.3   104  MET104      0.1736
     60  C         -1.6210   -3.0450  -37.3050 C.2   104  MET104      0.2616
     61  O         -1.0910   -1.9310  -37.1320 O.2   104  MET104     -0.2715
     62  CB        -1.8820   -5.1490  -36.0240 C.3   104  MET104      0.0427
     63  CG        -1.2080   -6.1990  -35.1890 C.3   104  MET104      0.0599
     64  SD        -0.9770   -7.6810  -36.1390 S.3   104  MET104     -0.1393
     65  CE        -2.4970   -8.5660  -35.6630 C.3   104  MET104      0.0692
     66  N         -2.8320   -3.2230  -37.8420 N.am  105  ASP105     -0.1957
     67  CA        -3.5290   -2.1660  -38.5520 C.3   105  ASP105      0.1840
     68  C         -4.4370   -1.3480  -37.6570 C.2   105  ASP105      0.2622
     69  O         -4.5870   -0.1790  -37.8930 O.2   105  ASP105     -0.2715
     70  CB        -4.3380   -2.7750  -39.7130 C.3   105  ASP105      0.1450
     71  CG        -3.4410   -3.3690  -40.8010 C.2   105  ASP105      0.3671
     72  OD1       -2.4280   -2.7040  -41.1270 O.co2 105  ASP105     -0.2456
     73  OD2       -3.7280   -4.4910  -41.3130 O.co2 105  ASP105     -0.2456
     74  N         -5.0250   -1.9610  -36.6280 N.am  106  ALA106     -0.1963
     75  CA        -6.0800   -1.3210  -35.8400 C.3   106  ALA106      0.1728
     76  C         -6.3920   -2.0220  -34.5010 C.2   106  ALA106      0.2616
     77  O         -5.8830   -3.0810  -34.2150 O.2   106  ALA106     -0.2715
     78  CB        -7.3440   -1.2450  -36.6740 C.3   106  ALA106      0.0334
     79  N         -7.2260   -1.3740  -33.6970 N.am  107  ASN107     -0.1972
     80  CA        -7.9130   -1.9680  -32.5340 C.3   107  ASN107      0.1688
     81  C         -9.1350   -2.7460  -32.9020 C.2   107  ASN107      0.2292
     82  O         -9.5640   -2.7240  -34.0490 O.2   107  ASN107     -0.2864
     83  CB        -8.4290   -0.8580  -31.6300 C.3   107  ASN107      0.1181
     84  CG        -7.3830   -0.2980  -30.8450 C.2   107  ASN107      0.2629
     85  OD1       -6.3810   -0.9770  -30.6110 O.2   107  ASN107     -0.2716
     86  ND2       -7.5490    0.9430  -30.3970 N.am  107  ASN107     -0.0877
     87  N         -9.3390   -2.0240  -26.9810 N.3   148  SER148     -0.1217
     88  CA        -8.1770   -1.1720  -27.2590 C.3   148  SER148      0.1889
     89  C         -6.8660   -1.9090  -27.0040 C.2   148  SER148      0.2288
     90  O         -5.8170   -1.5010  -27.4930 O.2   148  SER148     -0.2866
     91  CB        -8.2360    0.1000  -26.4050 C.3   148  SER148      0.2089
     92  OG        -8.5130   -0.1910  -25.0380 O.3   148  SER148     -0.2183
     93  N         -5.5610   -6.1580  -31.0320 N.3   151  VAL151     -0.1245
     94  CA        -5.2800   -5.5260  -32.2970 C.3   151  VAL151      0.1561
     95  C         -5.4220   -6.5260  -33.4410 C.2   151  VAL151      0.2260
     96  O         -5.2140   -7.7450  -33.2730 O.2   151  VAL151     -0.2867
     97  CB        -3.8910   -4.8450  -32.3000 C.3   151  VAL151      0.0252
     98  CG1       -3.8640   -3.6250  -31.3290 C.3   151  VAL151      0.0019
     99  CG2       -2.7690   -5.8490  -31.9840 C.3   151  VAL151      0.0019
    100  N         -2.2820   -7.3910  -27.1030 N.3   161  LEU161     -0.1245
    101  CA        -1.1760   -6.4740  -26.9060 C.3   161  LEU161      0.1561
    102  C         -0.2190   -6.8590  -25.7900 C.2   161  LEU161      0.2260
    103  O          0.9480   -7.1720  -26.0520 O.2   161  LEU161     -0.2867
    104  CB        -1.6550   -5.0500  -26.6880 C.3   161  LEU161      0.0270
    105  CG        -1.8560   -4.1870  -27.9300 C.3   161  LEU161      0.0019
    106  CD1       -1.8080   -2.7310  -27.5080 C.3   161  LEU161      0.0001
    107  CD2       -0.7920   -4.5000  -28.9700 C.3   161  LEU161      0.0001
@<TRIPOS>BOND
     1    73    71   ar
     2    72    71   ar
     3    71    70    1
     4    70    67    1
     5    67    66    1
     6    67    68    1
     7    69    68    2
     8    66    60   am
     9    53    52    2
    10    68    74   am
    11    60    61    2
    12    60    59    1
    13    57    55    1
    14    59    58    1
    15    59    62    1
    16    78    75    1
    17    74    75    1
    18    52    58   am
    19    52    51    1
    20    55    54    1
    21    55    56    1
    22    54    51    1
    23    64    65    1
    24    64    63    1
    25    62    63    1
    26    75    76    1
    27    51    50    1
    28    50    43   am
    29    46    45    1
    30    46    47    1
    31    76    77    2
    32    76    79   am
    33    45    42    1
    34    42    43    1
    35    42    41    1
    36    43    44    2
    37    47    49   ar
    38    47    48   ar
    39    82    81    2
    40     7     5    1
    41    20    21    1
    42    79    80    1
    43    36    35    2
    44    95    96    2
    45    95    94    1
    46    41    35   am
    47    81    80    1
    48    35    34    1
    49    21    24    1
    50    21    22    1
    51    80    83    1
    52     5     6    1
    53     5     2    1
    54    97    94    1
    55    97    99    1
    56    97    98    1
    57    94    93    1
    58     8     6    1
    59    32    30    1
    60    83    84    1
    61     2     1    1
    62     2     3    1
    63    22    23    2
    64    34    33    1
    65    34    37    1
    66    30    29    1
    67    84    85    2
    68    84    86   am
    69    37    38    1
    70    26    27    1
    71    26    29    1
    72    26    25    1
    73     3     4    2
    74     3     9   am
    75    27    28    2
    76    29    31    1
    77    16    15    2
    78    15    14    1
    79    18    17    1
    80     9    10    1
    81   107   105    1
    82    38    39    1
    83    40    39    1
    84    17    14    1
    85    17    19    1
    86    14    13    1
    87   105   106    1
    88   105   104    1
    89    10    11    1
    90    90    89    2
    91    88    89    1
    92    88    87    1
    93    88    91    1
    94   100   101    1
    95   101   104    1
    96   101   102    1
    97    12    11    2
    98    91    92    1
    99   103   102    2
