@<TRIPOS>MOLECULE
tmp/3oxkA00.pdb
 177 173 0 0 0
SMALL
GASTEIGER

@<TRIPOS>ATOM
      1  N          8.1830    7.6680  -19.8800 N.3     8  ILE8       -0.1231
      2  CA         7.4920    8.8470  -19.3480 C.3     8  ILE8        0.1692
      3  C          8.1730    9.3810  -18.0700 C.2     8  ILE8        0.2592
      4  O          8.3120   10.5900  -17.8880 O.2     8  ILE8       -0.2718
      5  CB         5.9620    8.5860  -19.1660 C.3     8  ILE8        0.0266
      6  CG1        5.2540    9.9000  -18.8490 C.3     8  ILE8        0.0019
      7  CG2        5.6950    7.5220  -18.0690 C.3     8  ILE8        0.0020
      8  CD1        3.7050    9.8060  -18.8070 C.3     8  ILE8        0.0001
      9  N          8.6500    8.4780  -17.2230 N.am    9  PHE9       -0.1976
     10  CA         9.2690    8.9130  -15.9730 C.3     9  PHE9        0.1639
     11  C         10.7030    9.4020  -16.1940 C.2     9  PHE9        0.2290
     12  O         11.1030   10.3380  -15.5260 O.2     9  PHE9       -0.2864
     13  CB         9.1490    7.8630  -14.8440 C.3     9  PHE9        0.0560
     14  CG         7.7810    7.8330  -14.1510 C.ar    9  PHE9       -0.0200
     15  CD1        6.7100    8.6280  -14.5790 C.ar    9  PHE9       -0.0042
     16  CD2        7.5650    6.9750  -13.0850 C.ar    9  PHE9       -0.0042
     17  CE1        5.4990    8.5820  -13.9550 C.ar    9  PHE9       -0.0003
     18  CE2        6.3260    6.9460  -12.4460 C.ar    9  PHE9       -0.0003
     19  CZ         5.3010    7.7330  -12.8980 C.ar    9  PHE9       -0.0000
     20  N          9.9230   12.9360  -17.3730 N.3    12  ILE12      -0.1245
     21  CA         9.5210   13.7810  -16.2480 C.3    12  ILE12       0.1561
     22  C         10.7590   14.1340  -15.4160 C.2    12  ILE12       0.2260
     23  O         10.9390   15.2900  -15.0280 O.2    12  ILE12      -0.2867
     24  CB         8.4420   13.1000  -15.4070 C.3    12  ILE12       0.0252
     25  CG1        7.0800   13.2080  -16.1000 C.3    12  ILE12       0.0019
     26  CG2        8.3870   13.6540  -13.9390 C.3    12  ILE12       0.0019
     27  CD1        5.9710   12.4470  -15.3660 C.3    12  ILE12       0.0001
     28  N          8.7750   16.5690  -19.6690 N.3    17  ILE17      -0.1231
     29  CA         7.3220   16.5440  -19.4640 C.3    17  ILE17       0.1678
     30  C          7.1130   17.1910  -18.0790 C.2    17  ILE17       0.2434
     31  O          7.8260   16.8530  -17.1330 O.2    17  ILE17      -0.2733
     32  CB         6.7720   15.0930  -19.4760 C.3    17  ILE17       0.0265
     33  CG1        6.8580   14.4960  -20.8810 C.3    17  ILE17       0.0019
     34  CG2        5.3440   15.0450  -18.9600 C.3    17  ILE17       0.0020
     35  CD1        6.5130   13.0000  -20.9760 C.3    17  ILE17       0.0001
     36  N          6.1250   18.1100  -17.9380 N.am   18  PRO18      -0.2718
     37  CA         5.9620   18.8560  -16.6980 C.3    18  PRO18       0.1535
     38  C          5.4300   18.0070  -15.5530 C.2    18  PRO18       0.2599
     39  O          4.7040   17.0400  -15.7640 O.2    18  PRO18      -0.2715
     40  CB         4.9200   19.9370  -17.0630 C.3    18  PRO18       0.0310
     41  CG         4.8790   19.9370  -18.5370 C.3    18  PRO18       0.0237
     42  CD         5.1930   18.5750  -18.9800 C.3    18  PRO18       0.0939
     43  N          5.8160   18.4030  -14.3520 N.am   19  SER19      -0.1936
     44  CA         5.2950   17.8540  -13.1050 C.3    19  SER19       0.2055
     45  C          5.4270   18.8900  -12.0090 C.2    19  SER19       0.2643
     46  O          6.0920   19.9050  -12.1650 O.2    19  SER19      -0.2714
     47  CB         6.0510   16.5900  -12.7350 C.3    19  SER19       0.2130
     48  OG         7.4000   16.8730  -12.4040 O.3    19  SER19      -0.2179
     49  N          4.7660   18.6230  -10.8860 N.am   20  THR20      -0.1950
     50  CA         4.8240   19.5010   -9.7360 C.3    20  THR20       0.1897
     51  C          5.9170   18.8930   -8.8660 C.2    20  THR20       0.2313
     52  O          5.7160   17.8540   -8.2160 O.2    20  THR20      -0.2863
     53  CB         3.4790   19.6140   -8.9830 C.3    20  THR20       0.1794
     54  OG1        2.4690   20.1090   -9.8770 O.3    20  THR20      -0.2208
     55  CG2        3.6270   20.5470   -7.7870 C.3    20  THR20       0.0378
     56  N          7.9200   14.1340   -7.2740 N.3    31  PHE31      -0.1227
     57  CA         6.8800   14.9850   -7.8440 C.3    31  PHE31       0.1736
     58  C          5.5000   14.4810   -7.3830 C.2    31  PHE31       0.2595
     59  O          5.3550   13.3280   -6.9870 O.2    31  PHE31      -0.2718
     60  CB         6.9740   15.0000   -9.3760 C.3    31  PHE31       0.0547
     61  CG         6.9030   13.6460  -10.0270 C.ar   31  PHE31      -0.0202
     62  CD1        8.0040   12.7680   -9.9930 C.ar   31  PHE31      -0.0042
     63  CD2        5.7510   13.2380  -10.6890 C.ar   31  PHE31      -0.0042
     64  CE1        7.9440   11.5150  -10.6140 C.ar   31  PHE31      -0.0003
     65  CE2        5.6760   11.9790  -11.2680 C.ar   31  PHE31      -0.0003
     66  CZ         6.7810   11.1240  -11.2570 C.ar   31  PHE31      -0.0000
     67  N          4.5010   15.3520   -7.4160 N.am   32  LYS32      -0.1966
     68  CA         3.1470   14.9830   -6.9870 C.3    32  LYS32       0.1728
     69  C          2.4710   14.0380   -7.9750 C.2    32  LYS32       0.2616
     70  O          2.5530   14.2220   -9.2030 O.2    32  LYS32      -0.2715
     71  CB         2.2760   16.2260   -6.7720 C.3    32  LYS32       0.0311
     72  CG         2.7230   17.0320   -5.6000 C.3    32  LYS32       0.0038
     73  CD         1.7800   18.1610   -5.2020 C.3    32  LYS32       0.0206
     74  CE         2.3490   18.9290   -4.0000 C.3    32  LYS32       0.1093
     75  NZ         1.4940   20.0760   -3.5380 N.3    32  LYS32      -0.1314
     76  N          1.7990   13.0210   -7.4400 N.am   33  ASP33      -0.1957
     77  CA         0.9890   12.1130   -8.2480 C.3    33  ASP33       0.1840
     78  C         -0.1750   12.8930   -8.8460 C.2    33  ASP33       0.2622
     79  O         -0.8220   13.6700   -8.1670 O.2    33  ASP33      -0.2715
     80  CB         0.4610   10.9460   -7.4070 C.3    33  ASP33       0.1450
     81  CG         0.0770    9.7750   -8.2540 C.2    33  ASP33       0.3671
     82  OD1       -0.9430    9.9340   -8.9740 O.co2  33  ASP33      -0.2456
     83  OD2        0.7680    8.7220   -8.2450 O.co2  33  ASP33      -0.2456
     84  N         -0.4040   12.6800  -10.1350 N.am   34  ILE34      -0.1963
     85  CA        -1.4710   13.3330  -10.8770 C.3    34  ILE34       0.1727
     86  C         -2.8870   12.8620  -10.4960 C.2    34  ILE34       0.2616
     87  O         -3.8710   13.5830  -10.7010 O.2    34  ILE34      -0.2715
     88  CB        -1.2090   13.1190  -12.4200 C.3    34  ILE34       0.0290
     89  CG1       -1.9990   14.1030  -13.2570 C.3    34  ILE34       0.0022
     90  CG2       -1.4730   11.6710  -12.8490 C.3    34  ILE34       0.0023
     91  CD1       -1.5970   14.0760  -14.7370 C.3    34  ILE34       0.0001
     92  N         -2.9820   11.6540   -9.9640 N.am   35  ASN35      -0.1972
     93  CA        -4.2370   11.0150   -9.6510 C.3    35  ASN35       0.1688
     94  C         -4.1180   10.4800   -8.2280 C.2    35  ASN35       0.2292
     95  O         -4.0820    9.2690   -7.9960 O.2    35  ASN35      -0.2864
     96  CB        -4.4920    9.8740  -10.6340 C.3    35  ASN35       0.1181
     97  CG        -5.9060    9.3350  -10.5410 C.2    35  ASN35       0.2629
     98  OD1       -6.8030   10.0160  -10.0250 O.2    35  ASN35      -0.2716
     99  ND2       -6.1190    8.1180  -11.0500 N.am   35  ASN35      -0.0877
    100  N          0.4650   12.6260   -1.7590 N.3    41  HIS41      -0.1241
    101  CA         0.7590   11.4910   -2.5970 C.3    41  HIS41       0.1621
    102  C          1.8690   11.9360   -3.5480 C.2    41  HIS41       0.2264
    103  O          1.6230   12.6390   -4.5180 O.2    41  HIS41      -0.2867
    104  CB        -0.4830   11.0290   -3.3560 C.3    41  HIS41       0.0745
    105  CG        -0.2890    9.7300   -4.0770 C.ar   41  HIS41       0.0817
    106  ND1       -1.3260    9.0250   -4.6530 N.ar   41  HIS41      -0.2268
    107  CD2        0.8380    9.0060   -4.3200 C.ar   41  HIS41       0.1154
    108  CE1       -0.8540    7.9280   -5.2020 C.ar   41  HIS41       0.1986
    109  NE2        0.4620    7.9070   -5.0580 N.ar   41  HIS41      -0.2212
    110  N          5.4920   10.7970   -5.7250 N.3    43  LEU43      -0.1245
    111  CA         6.2510    9.7420   -6.3390 C.3    43  LEU43       0.1561
    112  C          7.6960   10.1160   -6.2710 C.2    43  LEU43       0.2260
    113  O          8.0610   11.2590   -6.5340 O.2    43  LEU43      -0.2867
    114  CB         5.8340    9.5940   -7.7920 C.3    43  LEU43       0.0270
    115  CG         4.4040    9.1330   -8.0480 C.3    43  LEU43       0.0019
    116  CD1        4.0490    9.1900   -9.5330 C.3    43  LEU43       0.0001
    117  CD2        4.1450    7.7270   -7.5530 C.3    43  LEU43       0.0001
    118  N          5.0120   -1.0140   -6.5080 N.3    88  ASN88      -0.1240
    119  CA         4.2330   -1.9910   -7.2690 C.3    88  ASN88       0.1653
    120  C          5.1180   -2.6700   -8.3090 C.2    88  ASN88       0.2266
    121  O          5.8210   -1.9970   -9.0540 O.2    88  ASN88      -0.2867
    122  CB         3.0780   -1.2840   -7.9420 C.3    88  ASN88       0.1155
    123  CG         2.0200   -0.9040   -6.9890 C.2    88  ASN88       0.2627
    124  OD1        1.6490   -1.7030   -6.1280 O.2    88  ASN88      -0.2716
    125  ND2        1.4730    0.2590   -7.1540 N.am   88  ASN88      -0.0877
    126  N          0.1360   -6.2660   -9.1090 N.3    93  ALA93      -0.1231
    127  CA         0.2330   -5.0330   -8.3470 C.3    93  ALA93       0.1694
    128  C         -0.2350   -3.8190   -9.0950 C.2    93  ALA93       0.2593
    129  O         -0.3790   -2.7440   -8.5190 O.2    93  ALA93      -0.2718
    130  CB         1.6700   -4.8240   -7.8730 C.3    93  ALA93       0.0304
    131  N         -0.4920   -3.9680  -10.3920 N.am   94  GLY94      -0.1942
    132  CA        -0.9740   -2.8630  -11.2200 C.3    94  GLY94       0.2014
    133  C          0.1070   -1.9230  -11.6830 C.2    94  GLY94       0.2639
    134  O         -0.1740   -0.7740  -12.0110 O.2    94  GLY94      -0.2714
    135  N          1.3490   -2.3800  -11.7200 N.am   95  GLN95      -0.1963
    136  CA         2.4320   -1.5080  -12.1380 C.3    95  GLN95       0.1733
    137  C          2.1830   -1.0270  -13.5340 C.2    95  GLN95       0.2617
    138  O          2.0350   -1.8340  -14.4130 O.2    95  GLN95      -0.2715
    139  CB         3.7870   -2.1930  -12.0760 C.3    95  GLN95       0.0408
    140  CG         4.9230   -1.2010  -12.3420 C.3    95  GLN95       0.0908
    141  CD         6.3040   -1.8250  -12.4330 C.2    95  GLN95       0.2608
    142  OE1        6.4600   -3.0350  -12.3040 O.2    95  GLN95      -0.2717
    143  NE2        7.3160   -0.9890  -12.6540 N.am   95  GLN95      -0.0878
    144  N          2.1170    0.2830  -13.7130 N.am   96  THR96      -0.1937
    145  CA         1.8280    0.8590  -15.0160 C.3    96  THR96       0.2028
    146  C          3.1790    1.2000  -15.6370 C.2    96  THR96       0.2642
    147  O          3.6470    0.5160  -16.5580 O.2    96  THR96      -0.2714
    148  CB         0.8760    2.0700  -14.8820 C.3    96  THR96       0.1808
    149  OG1        1.3830    3.0110  -13.9250 O.3    96  THR96      -0.2208
    150  CG2       -0.4360    1.6250  -14.3750 C.3    96  THR96       0.0379
    151  N          3.8490    2.1980  -15.0830 N.am   97  VAL97      -0.1977
    152  CA         5.0740    2.7020  -15.6560 C.3    97  VAL97       0.1596
    153  C          6.2450    1.8260  -15.2350 C.2    97  VAL97       0.2287
    154  O          6.4390    1.5970  -14.0340 O.2    97  VAL97      -0.2864
    155  CB         5.3460    4.1420  -15.2050 C.3    97  VAL97       0.0276
    156  CG1        6.5320    4.7180  -15.9780 C.3    97  VAL97       0.0022
    157  CG2        4.0570    5.0260  -15.3720 C.3    97  VAL97       0.0022
    158  N          9.3030    3.4650   -9.0740 N.3   101  HIS101     -0.1241
    159  CA         8.7700    4.6570   -8.4040 C.3   101  HIS101      0.1621
    160  C          8.2020    4.2690   -7.0440 C.2   101  HIS101      0.2264
    161  O          7.3900    3.3480   -6.9570 O.2   101  HIS101     -0.2867
    162  CB         7.6930    5.3790   -9.2270 C.3   101  HIS101      0.0745
    163  CG         6.6880    4.4760   -9.8830 C.ar  101  HIS101      0.0817
    164  ND1        6.9700    3.7770  -11.0380 N.ar  101  HIS101     -0.2268
    165  CD2        5.3800    4.2240   -9.6040 C.ar  101  HIS101      0.1154
    166  CE1        5.8920    3.1130  -11.4230 C.ar  101  HIS101      0.1986
    167  NE2        4.9230    3.3580  -10.5610 N.ar  101  HIS101     -0.2212
    168  N          5.8420    5.3080   -3.9830 N.3   103  HIS103     -0.1241
    169  CA         4.7410    6.1560   -3.5500 C.3   103  HIS103      0.1621
    170  C          4.9500    6.5330   -2.0970 C.2   103  HIS103      0.2264
    171  O          5.1800    5.6440   -1.2810 O.2   103  HIS103     -0.2867
    172  CB         3.4110    5.4100   -3.6370 C.3   103  HIS103      0.0745
    173  CG         3.0190    4.9770   -5.0130 C.ar  103  HIS103      0.0817
    174  ND1        2.0930    5.6640   -5.7790 N.ar  103  HIS103     -0.2268
    175  CD2        3.3650    3.8850   -5.7330 C.ar  103  HIS103      0.1154
    176  CE1        1.9300    5.0330   -6.9260 C.ar  103  HIS103      0.1986
    177  NE2        2.6780    3.9440   -6.9170 N.ar  103  HIS103     -0.2212
@<TRIPOS>BOND
     1    35    33    1
     2    33    32    1
     3     1     2    1
     4    28    29    1
     5    32    29    1
     6    32    34    1
     7    29    30    1
     8     2     5    1
     9     2     3    1
    10     5     6    1
    11     5     7    1
    12    42    41    1
    13    42    36    1
    14     6     8    1
    15    41    40    1
    16    30    36   am
    17    30    31    2
    18     3     4    2
    19     3     9   am
    20    36    37    1
    21    20    21    1
    22     9    10    1
    23    40    37    1
    24    37    38    1
    25   147   146    2
    26    21    22    1
    27    21    24    1
    28    11    10    1
    29    11    12    2
    30    25    24    1
    31    25    27    1
    32   156   155    1
    33    10    13    1
    34    39    38    2
    35   152   153    1
    36   152   155    1
    37   152   151    1
    38   146   151   am
    39   146   145    1
    40    38    43   am
    41    22    23    2
    42    24    26    1
    43   157   155    1
    44   153   154    2
    45   145   148    1
    46   145   144    1
    47   148   150    1
    48   148   149    1
    49    13    14    1
    50    91    89    1
    51    15    14   ar
    52    15    17   ar
    53   138   137    2
    54    43    44    1
    55    14    16   ar
    56    17    19   ar
    57   144   137   am
    58   137   136    1
    59    89    88    1
    60    44    47    1
    61    44    45    1
    62    16    18   ar
    63    19    18   ar
    64    90    88    1
    65    47    48    1
    66   143   141   am
    67   141   140    1
    68   141   142    2
    69    88    85    1
    70   140   139    1
    71    46    45    2
    72   136   139    1
    73   136   135    1
    74   134   133    2
    75    45    49   am
    76   135   133   am
    77   133   132    1
    78   166   164   ar
    79   166   167   ar
    80    65    66   ar
    81    65    63   ar
    82    66    64   ar
    83   132   131    1
    84    99    97   am
    85   164   163   ar
    86    49    50    1
    87    85    86    1
    88    85    84    1
    89    87    86    2
    90    63    61   ar
    91    96    97    1
    92    96    93    1
    93    64    62   ar
    94   167   165   ar
    95    97    98    2
    96    86    92   am
    97   131   128   am
    98    84    78   am
    99    61    62   ar
   100    61    60    1
   101    92    93    1
   102   163   165   ar
   103   163   162    1
   104    54    53    1
   105    50    53    1
   106    50    51    1
   107    93    94    1
   108   116   115    1
   109    60    57    1
   110   162   159    1
   111    70    69    2
   112   126   127    1
   113   128   129    2
   114   128   127    1
   115   158   159    1
   116   121   120    2
   117    53    55    1
   118    82    81   ar
   119    51    52    2
   120    78    77    1
   121    78    79    2
   122   159   160    1
   123   127   130    1
   124   120   119    1
   125    81    83   ar
   126    81    80    1
   127    77    76    1
   128    77    80    1
   129    94    95    2
   130   115   114    1
   131   115   117    1
   132    69    76   am
   133    69    68    1
   134   122   119    1
   135   122   123    1
   136    57    58    1
   137    57    56    1
   138   114   111    1
   139    67    58   am
   140    67    68    1
   141    58    59    2
   142   119   118    1
   143   125   123   am
   144   160   161    2
   145   123   124    2
   146    68    71    1
   147   176   177   ar
   148   176   174   ar
   149   177   175   ar
   150    71    72    1
   151   113   112    2
   152   111   112    1
   153   111   110    1
   154   174   173   ar
   155   175   173   ar
   156    72    73    1
   157   108   109   ar
   158   108   106   ar
   159    73    74    1
   160   109   107   ar
   161   173   172    1
   162   106   105   ar
   163   103   102    2
   164   107   105   ar
   165   105   104    1
   166    74    75    1
   167   168   169    1
   168   172   169    1
   169   169   170    1
   170   102   101    1
   171   104   101    1
   172   101   100    1
   173   170   171    2
