@<TRIPOS>MOLECULE
tmp/3oxtA00.pdb
 196 187 0 0 0
SMALL
GASTEIGER

@<TRIPOS>ATOM
      1  N         28.9330  -14.9340    8.1420 N.3    36  LEU36      -0.1231
      2  CA        29.2070  -13.5310    8.3620 C.3    36  LEU36       0.1693
      3  C         27.9960  -12.6680    7.9780 C.2    36  LEU36       0.2593
      4  O         27.8940  -11.5190    8.4010 O.2    36  LEU36      -0.2718
      5  CB        30.4310  -13.1150    7.5340 C.3    36  LEU36       0.0284
      6  CG        31.8090  -13.7130    7.8620 C.3    36  LEU36       0.0019
      7  CD1       32.8990  -13.2450    6.8420 C.3    36  LEU36       0.0001
      8  CD2       32.2200  -13.3550    9.2800 C.3    36  LEU36       0.0001
      9  N         27.0890  -13.2210    7.1740 N.am   37  GLY37      -0.1942
     10  CA        25.9250  -12.4870    6.6940 C.3    37  GLY37       0.2014
     11  C         25.0390  -13.2930    5.7420 C.2    37  GLY37       0.2640
     12  O         25.4550  -14.3380    5.2380 O.2    37  GLY37      -0.2714
     13  N         23.8160  -12.8160    5.5070 N.am   38  THR38      -0.1936
     14  CA        22.8440  -13.5300    4.6660 C.3    38  THR38       0.2028
     15  C         22.1260  -12.6010    3.6870 C.2    38  THR38       0.2643
     16  O         22.2000  -11.3780    3.8050 O.2    38  THR38      -0.2714
     17  CB        21.7400  -14.2430    5.4950 C.3    38  THR38       0.1808
     18  OG1       20.9730  -13.2680    6.2010 O.3    38  THR38      -0.2208
     19  CG2       22.3310  -15.2440    6.4910 C.3    38  THR38       0.0379
     20  N         21.4190  -13.2090    2.7370 N.am   39  GLY39      -0.1939
     21  CA        20.7040  -12.5080    1.6800 C.3    39  GLY39       0.2014
     22  C         19.5170  -13.3360    1.1990 C.2    39  GLY39       0.2640
     23  O         19.3370  -14.4760    1.6190 O.2    39  GLY39      -0.2714
     24  N         18.7070  -12.7770    0.3070 N.am   40  SER40      -0.1935
     25  CA        17.4650  -13.4360   -0.1010 C.3    40  SER40       0.2055
     26  C         17.6970  -14.7630   -0.8010 C.2    40  SER40       0.2643
     27  O         16.8550  -15.6620   -0.7340 O.2    40  SER40      -0.2714
     28  CB        16.6300  -12.5180   -0.9860 C.3    40  SER40       0.2130
     29  OG        17.4760  -11.7550   -1.8260 O.3    40  SER40      -0.2179
     30  N         18.8330  -14.8960   -1.4770 N.am   41  PHE41      -0.1959
     31  CA        19.1330  -16.1660   -2.1100 C.3    41  PHE41       0.1774
     32  C         20.5150  -16.7180   -1.7980 C.2    41  PHE41       0.2659
     33  O         21.0500  -17.4880   -2.5860 O.2    41  PHE41      -0.2711
     34  CB        18.9130  -16.0940   -3.6180 C.3    41  PHE41       0.0574
     35  CG        19.4950  -14.8800   -4.2500 C.ar   41  PHE41      -0.0200
     36  CD1       20.8670  -14.7790   -4.4490 C.ar   41  PHE41      -0.0042
     37  CD2       18.6770  -13.8350   -4.6450 C.ar   41  PHE41      -0.0042
     38  CE1       21.4200  -13.6540   -5.0390 C.ar   41  PHE41      -0.0003
     39  CE2       19.2230  -12.6980   -5.2410 C.ar   41  PHE41      -0.0003
     40  CZ        20.5990  -12.6090   -5.4320 C.ar   41  PHE41      -0.0000
     41  N         21.0750  -16.3540   -0.6410 N.am   42  GLY42      -0.1716
     42  CA        22.3360  -16.9370   -0.2100 C.2    42  GLY42       0.1480
     43  C         22.9090  -16.4250    1.1020 C.2    42  GLY42       0.2820
     44  O         22.2120  -15.8030    1.9000 O.2    42  GLY42      -0.2669
     45  N         24.1950  -16.6920    1.3210 N.am   43  ARG43      -0.1929
     46  CA        24.8890  -16.2600    2.5350 C.3    43  ARG43       0.1732
     47  C         26.4000  -16.1060    2.2980 C.2    43  ARG43       0.2616
     48  O         26.9380  -16.5920    1.2940 O.2    43  ARG43      -0.2715
     49  CB        24.6390  -17.2620    3.6640 C.3    43  ARG43       0.0348
     50  CG        25.1200  -18.6630    3.3450 C.3    43  ARG43       0.0492
     51  CD        24.2360  -19.7300    3.9940 C.3    43  ARG43       0.2205
     52  NE        24.5490  -19.9320    5.4040 N.pl3  43  ARG43      -0.0865
     53  CZ        23.7110  -19.7040    6.4160 C.cat  43  ARG43       0.5346
     54  NH1       22.4780  -19.2620    6.1940 N.pl3  43  ARG43       0.1354
     55  NH2       24.1160  -19.9240    7.6630 N.pl3  43  ARG43       0.1354
     56  N         27.0810  -15.4440    3.2310 N.am   44  VAL44      -0.1977
     57  CA        28.5290  -15.2580    3.1380 C.3    44  VAL44       0.1596
     58  C         29.2440  -15.8260    4.3600 C.2    44  VAL44       0.2287
     59  O         28.8590  -15.5450    5.4900 O.2    44  VAL44      -0.2864
     60  CB        28.8980  -13.7690    3.0110 C.3    44  VAL44       0.0276
     61  CG1       30.4180  -13.6040    2.9230 C.3    44  VAL44       0.0022
     62  CG2       28.1880  -13.1470    1.7960 C.3    44  VAL44       0.0022
     63  N         36.5480  -14.3910    2.5510 N.3    57  ALA57      -0.1245
     64  CA        35.0910  -14.3940    2.7190 C.3    57  ALA57       0.1562
     65  C         34.4180  -15.0080    1.4980 C.2    57  ALA57       0.2260
     66  O         34.5570  -14.5060    0.3830 O.2    57  ALA57      -0.2867
     67  CB        34.5680  -12.9820    2.9340 C.3    57  ALA57       0.0290
     68  N         31.0880  -16.0040   -0.6220 N.3    59  LYS59      -0.1245
     69  CA        29.6560  -15.8260   -0.8900 C.3    59  LYS59       0.1561
     70  C         29.0720  -17.0230   -1.6440 C.2    59  LYS59       0.2260
     71  O         29.5480  -17.4010   -2.7010 O.2    59  LYS59      -0.2867
     72  CB        29.3970  -14.5450   -1.6960 C.3    59  LYS59       0.0271
     73  CG        27.9210  -14.2050   -1.8330 C.3    59  LYS59       0.0035
     74  CD        27.6520  -13.1860   -2.9450 C.3    59  LYS59       0.0206
     75  CE        27.6550  -11.7660   -2.4420 C.3    59  LYS59       0.1093
     76  NZ        26.9030  -10.8560   -3.3660 N.3    59  LYS59      -0.1314
     77  N         25.6950  -18.5870   -3.3590 N.3    61  LEU61      -0.1245
     78  CA        24.3940  -18.2640   -3.9320 C.3    61  LEU61       0.1561
     79  C         23.7010  -19.5300   -4.4280 C.2    61  LEU61       0.2260
     80  O         24.2680  -20.2760   -5.2250 O.2    61  LEU61      -0.2867
     81  CB        24.5670  -17.3070   -5.1120 C.3    61  LEU61       0.0270
     82  CG        24.6520  -15.8030   -4.8950 C.3    61  LEU61       0.0019
     83  CD1       25.2310  -15.4770   -3.5540 C.3    61  LEU61       0.0001
     84  CD2       25.4460  -15.1410   -6.0400 C.3    61  LEU61       0.0001
     85  N         36.4030   -4.7320   -2.5310 N.3    91  VAL91      -0.1245
     86  CA        36.7040   -6.0800   -2.0950 C.3    91  VAL91       0.1561
     87  C         37.1880   -6.8460   -3.3190 C.2    91  VAL91       0.2260
     88  O         36.5230   -6.8610   -4.3620 O.2    91  VAL91      -0.2867
     89  CB        35.4840   -6.7820   -1.4610 C.3    91  VAL91       0.0252
     90  CG1       35.8680   -8.1680   -1.0070 C.3    91  VAL91       0.0019
     91  CG2       34.9990   -5.9990   -0.2760 C.3    91  VAL91       0.0019
     92  N         36.2170  -13.7980   -1.6900 N.3   107  MET107     -0.1230
     93  CA        36.7600  -12.4500   -1.6790 C.3   107  MET107      0.1702
     94  C         37.7510  -12.2630   -0.5500 C.2   107  MET107      0.2592
     95  O         37.8550  -13.0950    0.3360 O.2   107  MET107     -0.2718
     96  CB        35.6420  -11.4460   -1.4630 C.3   107  MET107      0.0401
     97  CG        34.2680  -11.9950   -1.6740 C.3   107  MET107      0.0596
     98  SD        33.6080  -11.4360   -3.2340 S.3   107  MET107     -0.1393
     99  CE        31.8710  -11.2960   -2.8130 C.3   107  MET107      0.0692
    100  N         38.4500  -11.1380   -0.5440 N.am  108  GLU108     -0.1966
    101  CA        39.2860  -10.8750    0.6040 C.3   108  GLU108      0.1733
    102  C         38.4100  -10.7320    1.8470 C.2   108  GLU108      0.2616
    103  O         37.2600  -10.2470    1.7910 O.2   108  GLU108     -0.2715
    104  CB        40.1880   -9.6660    0.3920 C.3   108  GLU108      0.0429
    105  CG        39.4740   -8.3910    0.0490 C.3   108  GLU108      0.1163
    106  CD        40.4520   -7.2850   -0.2720 C.2   108  GLU108      0.3649
    107  OE1       40.0790   -6.3630   -1.0260 O.co2 108  GLU108     -0.2457
    108  OE2       41.5990   -7.3490    0.2280 O.co2 108  GLU108     -0.2457
    109  N         38.9500  -11.2060    2.9610 N.am  109  TYR109     -0.1960
    110  CA        38.2860  -11.0830    4.2370 C.3   109  TYR109      0.1771
    111  C         38.6360   -9.7230    4.8160 C.2   109  TYR109      0.2619
    112  O         39.8090   -9.4130    5.0290 O.2   109  TYR109     -0.2715
    113  CB        38.7170  -12.2030    5.1830 C.3   109  TYR109      0.0574
    114  CG        38.1550  -12.0190    6.5640 C.ar  109  TYR109     -0.0198
    115  CD1       36.8010  -11.7540    6.7380 C.ar  109  TYR109     -0.0009
    116  CD2       38.9690  -12.0800    7.6940 C.ar  109  TYR109     -0.0009
    117  CE1       36.2610  -11.5700    7.9850 C.ar  109  TYR109      0.0417
    118  CE2       38.4280  -11.9020    8.9590 C.ar  109  TYR109      0.0417
    119  CZ        37.0650  -11.6440    9.0910 C.ar  109  TYR109      0.1957
    120  OH        36.4890  -11.4460   10.3260 O.3   109  TYR109     -0.2866
    121  N         37.6110   -8.9050    5.0240 N.am  110  VAL110     -0.1977
    122  CA        37.7550   -7.5840    5.6250 C.3   110  VAL110      0.1596
    123  C         37.2630   -7.6770    7.0720 C.2   110  VAL110      0.2287
    124  O         36.0580   -7.7190    7.3150 O.2   110  VAL110     -0.2864
    125  CB        36.9140   -6.5490    4.8650 C.3   110  VAL110      0.0276
    126  CG1       37.1260   -5.1480    5.4430 C.3   110  VAL110      0.0022
    127  CG2       37.2400   -6.5880    3.3640 C.3   110  VAL110      0.0022
    128  N         30.7350   -4.7230    9.2140 N.3   114  GLU114     -0.1245
    129  CA        29.9300   -3.8460    8.3520 C.3   114  GLU114      0.1567
    130  C         29.8370   -2.4340    8.9100 C.2   114  GLU114      0.2260
    131  O         29.7460   -2.2400   10.1260 O.2   114  GLU114     -0.2867
    132  CB        28.4970   -4.3830    8.1920 C.3   114  GLU114      0.0388
    133  CG        28.4010   -5.7920    7.6130 C.3   114  GLU114      0.1160
    134  CD        26.9650   -6.3080    7.4880 C.2   114  GLU114      0.3649
    135  OE1       26.0120   -5.6100    7.9110 O.co2 114  GLU114     -0.2457
    136  OE2       26.7990   -7.4270    6.9640 O.co2 114  GLU114     -0.2457
    137  N         24.6420    0.8600    0.3650 N.3   155  LYS155     -0.1245
    138  CA        23.9970    0.9900    1.6720 C.3   155  LYS155      0.1561
    139  C         25.0020    0.5570    2.7290 C.2   155  LYS155      0.2260
    140  O         25.9720   -0.1170    2.4110 O.2   155  LYS155     -0.2867
    141  CB        22.6900    0.1830    1.7550 C.3   155  LYS155      0.0271
    142  CG        22.8150   -1.3080    1.4350 C.3   155  LYS155      0.0035
    143  CD        21.4020   -1.9470    1.3560 C.3   155  LYS155      0.0206
    144  CE        21.4310   -3.4020    0.8780 C.3   155  LYS155      0.1093
    145  NZ        20.0420   -3.9870    0.7700 N.3   155  LYS155     -0.1314
    146  N         24.8610   -1.5950    4.8750 N.3   157  GLU157     -0.1231
    147  CA        24.8900   -3.0440    4.9540 C.3   157  GLU157      0.1699
    148  C         25.9580   -3.6340    4.0190 C.2   157  GLU157      0.2592
    149  O         26.4940   -4.6980    4.2940 O.2   157  GLU157     -0.2718
    150  CB        23.4990   -3.6400    4.6580 C.3   157  GLU157      0.0402
    151  CG        22.4160   -3.3450    5.7200 C.3   157  GLU157      0.1161
    152  CD        21.5480   -2.1380    5.3820 C.2   157  GLU157      0.3649
    153  OE1       22.1000   -1.1070    4.9340 O.co2 157  GLU157     -0.2457
    154  OE2       20.3090   -2.2210    5.5530 O.co2 157  GLU157     -0.2457
    155  N         26.2660   -2.9320    2.9280 N.am  158  ASN158     -0.1974
    156  CA        27.2050   -3.4250    1.9010 C.3   158  ASN158      0.1688
    157  C         28.6150   -2.7840    1.9190 C.2   158  ASN158      0.2292
    158  O         29.3490   -2.8730    0.9370 O.2   158  ASN158     -0.2864
    159  CB        26.5970   -3.2990    0.4850 C.3   158  ASN158      0.1181
    160  CG        25.4170   -4.2450    0.2560 C.2   158  ASN158      0.2629
    161  OD1       25.2790   -5.2440    0.9440 O.2   158  ASN158     -0.2716
    162  ND2       24.5750   -3.9360   -0.7330 N.am  158  ASN158     -0.0877
    163  N         32.3360   -2.5770    4.2130 N.3   160  LEU160     -0.1245
    164  CA        33.1440   -3.2150    5.2630 C.3   160  LEU160      0.1561
    165  C         34.3410   -2.3480    5.6540 C.2   160  LEU160      0.2260
    166  O         34.8640   -1.6140    4.8230 O.2   160  LEU160     -0.2867
    167  CB        33.6810   -4.5570    4.7630 C.3   160  LEU160      0.0270
    168  CG        32.8270   -5.8330    4.7660 C.3   160  LEU160      0.0019
    169  CD1       31.3770   -5.5660    5.0630 C.3   160  LEU160      0.0001
    170  CD2       32.9760   -6.5670    3.4440 C.3   160  LEU160      0.0001
    171  N         31.3460   -3.9470   -1.1300 N.3   170  THR170     -0.1203
    172  CA        30.9850   -5.2990   -1.5320 C.3   170  THR170      0.1994
    173  C         29.5630   -5.3700   -2.1120 C.2   170  THR170      0.2617
    174  O         28.8610   -4.3690   -2.1380 O.2   170  THR170     -0.2717
    175  CB        31.1680   -6.2840   -0.3600 C.3   170  THR170      0.1784
    176  OG1       31.4630   -7.5840   -0.8820 O.3   170  THR170     -0.2211
    177  CG2       29.9120   -6.3230    0.5250 C.3   170  THR170      0.0376
    178  N         29.1590   -6.5560   -2.5770 N.am  171  ASP171     -0.1973
    179  CA        27.8630   -6.7890   -3.2550 C.3   171  ASP171      0.1709
    180  C         27.7190   -6.1250   -4.6270 C.2   171  ASP171      0.2293
    181  O         27.2070   -5.0050   -4.7530 O.2   171  ASP171     -0.2864
    182  CB        26.6360   -6.4430   -2.3900 C.3   171  ASP171      0.1436
    183  CG        25.3900   -7.2330   -2.8170 C.2   171  ASP171      0.3671
    184  OD1       24.4520   -7.3940   -2.0060 O.co2 171  ASP171     -0.2456
    185  OD2       25.3660   -7.7260   -3.9670 O.co2 171  ASP171     -0.2456
    186  N         31.3200   -8.9530   13.5850 N.3   313  PHE313     -0.1241
    187  CA        30.1260   -9.3120   12.8350 C.3   313  PHE313      0.1605
    188  C         29.0730   -9.9390   13.7580 C.2   313  PHE313      0.2264
    189  O         29.4110  -10.5440   14.7750 O.2   313  PHE313     -0.2867
    190  CB        30.4770  -10.3090   11.7360 C.3   313  PHE313      0.0534
    191  CG        31.3880   -9.7590   10.6710 C.ar  313  PHE313     -0.0203
    192  CD1       30.8620   -9.2370    9.4970 C.ar  313  PHE313     -0.0042
    193  CD2       32.7720   -9.7930   10.8280 C.ar  313  PHE313     -0.0042
    194  CE1       31.6960   -8.7410    8.4920 C.ar  313  PHE313     -0.0003
    195  CE2       33.6180   -9.2970    9.8300 C.ar  313  PHE313     -0.0003
    196  CZ        33.0780   -8.7690    8.6610 C.ar  313  PHE313     -0.0000
@<TRIPOS>BOND
     1    84    82    1
     2    40    39   ar
     3    40    38   ar
     4    39    37   ar
     5    80    79    2
     6    81    82    1
     7    81    78    1
     8    38    36   ar
     9    82    83    1
    10   181   180    2
    11    37    35   ar
    12   180   179    1
    13    36    35   ar
    14    79    78    1
    15    88    87    2
    16    35    34    1
    17   185   183   ar
    18    78    77    1
    19    34    31    1
    20    76    75    1
    21    87    86    1
    22   179   178    1
    23   179   182    1
    24    98    99    1
    25    98    97    1
    26    74    75    1
    27    74    73    1
    28   183   182    1
    29   183   184   ar
    30    71    70    2
    31    33    32    2
    32   178   173   am
    33    85    86    1
    34   174   173    2
    35   173   172    1
    36    31    32    1
    37    31    30    1
    38    86    89    1
    39    73    72    1
    40    29    28    1
    41    32    41    1
    42    72    69    1
    43    92    93    1
    44    93    96    1
    45    93    94    1
    46    97    96    1
    47    70    69    1
    48   172   171    1
    49   172   175    1
    50    30    26   am
    51    89    90    1
    52    89    91    1
    53   107   106   ar
    54    28    25    1
    55    69    68    1
    56   176   175    1
    57    26    27    2
    58    26    25    1
    59   162   160   am
    60    41    42    2
    61    94   100   am
    62    94    95    2
    63   100   101    1
    64   175   177    1
    65   106   105    1
    66   106   108   ar
    67    42    43    1
    68    25    24    1
    69   105   104    1
    70   160   159    1
    71   160   161    2
    72    24    22   am
    73   137   138    1
    74    66    65    2
    75   104   101    1
    76   159   156    1
    77   101   102    1
    78   145   144    1
    79   144   143    1
    80   158   157    2
    81    43    45   am
    82    43    44    2
    83    22    23    2
    84    22    21    1
    85    48    47    2
    86    45    46    1
    87   143   142    1
    88   142   141    1
    89    65    64    1
    90   138   141    1
    91   138   139    1
    92    21    20    1
    93   103   102    2
    94    62    60    1
    95   102   109   am
    96   156   157    1
    97   156   155    1
    98    47    46    1
    99    47    56   am
   100   140   139    2
   101    46    49    1
   102    63    64    1
   103    64    67    1
   104    20    15   am
   105    61    60    1
   106   155   148   am
   107   109   110    1
   108    60    57    1
   109    57    56    1
   110    57    58    1
   111    50    49    1
   112    50    51    1
   113   127   125    1
   114   170   168    1
   115    15    16    2
   116    15    14    1
   117    51    52    1
   118   148   149    2
   119   148   147    1
   120   163   164    1
   121   110   111    1
   122   110   113    1
   123    58    59    2
   124   150   147    1
   125   150   151    1
   126    14    17    1
   127    14    13    1
   128   167   168    1
   129   167   164    1
   130   168   169    1
   131   111   121   am
   132   111   112    2
   133   166   165    2
   134   125   126    1
   135   125   122    1
   136   146   147    1
   137   153   152   ar
   138   121   122    1
   139   113   114    1
   140    12    11    2
   141   164   165    1
   142   152   154   ar
   143   152   151    1
   144    52    53    2
   145    17    18    1
   146    17    19    1
   147    13    11   am
   148   122   123    1
   149    11    10    1
   150    54    53    1
   151    53    55    1
   152   114   115   ar
   153   114   116   ar
   154    10     9    1
   155   115   117   ar
   156     7     6    1
   157   136   134   ar
   158   123   124    2
   159     9     3   am
   160   134   133    1
   161   134   135   ar
   162     5     6    1
   163     5     2    1
   164   133   132    1
   165   116   118   ar
   166     6     8    1
   167     3     2    1
   168     3     4    2
   169   117   119   ar
   170     1     2    1
   171   132   129    1
   172   129   130    1
   173   129   128    1
   174   194   196   ar
   175   194   192   ar
   176   196   195   ar
   177   130   131    2
   178   118   119   ar
   179   119   120    1
   180   192   191   ar
   181   195   193   ar
   182   191   193   ar
   183   191   190    1
   184   190   187    1
   185   187   186    1
   186   187   188    1
   187   188   189    2
