@<TRIPOS>MOLECULE
tmp/3oxvB01.pdb
 83 82 0 0 0
SMALL
GASTEIGER

@<TRIPOS>ATOM
      1  N         -9.3370   -3.2220   -1.7760 N.3    35  GLU35      -0.1231
      2  CA       -10.5540   -3.4160   -2.5570 C.3    35  GLU35       0.1699
      3  C        -11.7740   -3.3670   -1.6430 C.2    35  GLU35       0.2592
      4  O        -11.7820   -3.9390   -0.5450 O.2    35  GLU35      -0.2718
      5  CB       -10.4350   -4.6860   -3.4130 C.3    35  GLU35       0.0402
      6  CG        -9.3350   -4.4800   -4.4650 C.3    35  GLU35       0.1161
      7  CD        -8.7980   -5.7050   -5.2080 C.2    35  GLU35       0.3649
      8  OE1       -8.3960   -6.7250   -4.5960 O.co2  35  GLU35      -0.2457
      9  OE2       -8.6880   -5.5960   -6.4500 O.co2  35  GLU35      -0.2457
     10  N        -12.7720   -2.6040   -2.0850 N.am   36  MET36      -0.1979
     11  CA       -14.0060   -2.3740   -1.3400 C.3    36  MET36       0.1605
     12  C        -15.0860   -1.9530   -2.3320 C.2    36  MET36       0.2287
     13  O        -14.7810   -1.3950   -3.3920 O.2    36  MET36      -0.2864
     14  CB       -13.8120   -1.2780   -0.2840 C.3    36  MET36       0.0413
     15  CG       -13.4240    0.0800   -0.8590 C.3    36  MET36       0.0598
     16  SD       -13.3950    1.4520    0.3250 S.3    36  MET36      -0.1393
     17  CE       -15.0790    1.4170    0.9390 C.3    36  MET36       0.0692
     18  N        -16.2100    5.7060  -11.5720 N.3    42  TRP42      -0.1241
     19  CA       -14.7630    5.5660  -11.5020 C.3    42  TRP42       0.1605
     20  C        -14.2080    5.3150  -12.8910 C.2    42  TRP42       0.2264
     21  O        -14.9590    4.9670  -13.8070 O.2    42  TRP42      -0.2867
     22  CB       -14.3530    4.4440  -10.5360 C.3    42  TRP42       0.0550
     23  CG       -15.0020    3.0970  -10.7790 C.ar   42  TRP42       0.0003
     24  CD1      -16.0940    2.5900  -10.1400 C.ar   42  TRP42       0.0946
     25  CD2      -14.5660    2.0760  -11.6900 C.ar   42  TRP42       0.0152
     26  NE1      -16.3890    1.3330  -10.6170 N.ar   42  TRP42      -0.2442
     27  CE2      -15.4650    0.9980  -11.5740 C.ar   42  TRP42       0.0810
     28  CE3      -13.5120    1.9770  -12.6000 C.ar   42  TRP42       0.0012
     29  CZ2      -15.3250   -0.1720  -12.3210 C.ar   42  TRP42       0.0191
     30  CZ3      -13.3880    0.8350  -13.3550 C.ar   42  TRP42       0.0001
     31  CH2      -14.2920   -0.2290  -13.2180 C.ar   42  TRP42       0.0015
     32  N        -10.8170    3.2460  -14.8630 N.3    44  PRO44      -0.2116
     33  CA        -9.7290    2.3190  -14.6040 C.3    44  PRO44       0.1372
     34  C         -8.3780    2.9760  -14.8760 C.2    44  PRO44       0.2244
     35  O         -8.2280    3.6830  -15.8740 O.2    44  PRO44      -0.2868
     36  CB        -9.9790    1.1880  -15.6050 C.3    44  PRO44       0.0268
     37  CG       -10.6260    1.8860  -16.7730 C.3    44  PRO44       0.0207
     38  CD       -11.5210    2.9280  -16.1170 C.3    44  PRO44       0.0892
     39  N         -3.6180   -2.4910  -11.3690 N.3    55  LYS55      -0.1231
     40  CA        -4.8120   -1.8570  -11.9030 C.3    55  LYS55       0.1693
     41  C         -5.6570   -1.3800  -10.7310 C.2    55  LYS55       0.2592
     42  O         -5.8570   -2.1220   -9.7640 O.2    55  LYS55      -0.2718
     43  CB        -5.6180   -2.8580  -12.7340 C.3    55  LYS55       0.0285
     44  CG        -6.8460   -2.2240  -13.3120 C.3    55  LYS55       0.0035
     45  CD        -7.4270   -3.1850  -14.3130 C.3    55  LYS55       0.0206
     46  CE        -8.2110   -2.3960  -15.3340 C.3    55  LYS55       0.1093
     47  NZ        -7.3590   -1.3360  -15.8730 N.3    55  LYS55      -0.1314
     48  N         -6.1760   -0.1580  -10.8350 N.am   56  VAL56      -0.1966
     49  CA        -7.0450    0.3870   -9.7980 C.3    56  VAL56       0.1727
     50  C         -8.2550    1.0920  -10.3850 C.2    56  VAL56       0.2616
     51  O         -8.2720    1.4560  -11.5680 O.2    56  VAL56      -0.2715
     52  CB        -6.3180    1.4380   -8.9310 C.3    56  VAL56       0.0290
     53  CG1       -5.1070    0.8230   -8.2320 C.3    56  VAL56       0.0023
     54  CG2       -5.8910    2.6520   -9.7890 C.3    56  VAL56       0.0023
     55  N         -9.2720    1.2640   -9.5490 N.am   57  ARG57      -0.1977
     56  CA       -10.4000    2.1320   -9.8640 C.3    57  ARG57       0.1597
     57  C        -10.0550    3.5130   -9.3240 C.2    57  ARG57       0.2287
     58  O         -9.6150    3.6420   -8.1770 O.2    57  ARG57      -0.2864
     59  CB       -11.6930    1.6500   -9.2000 C.3    57  ARG57       0.0334
     60  CG       -12.1640    0.2480   -9.5820 C.3    57  ARG57       0.0492
     61  CD       -13.4730   -0.0780   -8.8740 C.3    57  ARG57       0.2205
     62  NE       -14.0590   -1.3220   -9.3550 N.pl3  57  ARG57      -0.0865
     63  CZ       -15.0970   -1.9320   -8.7950 C.cat  57  ARG57       0.5346
     64  NH1      -15.6870   -1.4200   -7.7220 N.pl3  57  ARG57       0.1354
     65  NH2      -15.5440   -3.0580   -9.3140 N.pl3  57  ARG57       0.1354
     66  N         -8.8000    2.6010   -5.7100 N.3    77  VAL77      -0.1231
     67  CA        -9.1720    1.3780   -5.0160 C.3    77  VAL77       0.1692
     68  C         -8.6130    0.2020   -5.8020 C.2    77  VAL77       0.2593
     69  O         -8.8100    0.1410   -7.0100 O.2    77  VAL77      -0.2718
     70  CB       -10.7070    1.2530   -4.8850 C.3    77  VAL77       0.0266
     71  CG1      -11.0720   -0.0830   -4.2340 C.3    77  VAL77       0.0020
     72  CG2      -11.2860    2.4280   -4.0990 C.3    77  VAL77       0.0020
     73  N         -7.8760   -0.6850   -5.1320 N.am   78  GLY78      -0.1943
     74  CA        -7.2590   -1.8270   -5.8040 C.3    78  GLY78       0.1998
     75  C         -6.4680   -2.7230   -4.8690 C.2    78  GLY78       0.2480
     76  O         -6.5070   -2.5430   -3.6440 O.2    78  GLY78      -0.2729
     77  N         -5.6800   -3.6510   -5.4410 N.am   79  PRO79      -0.2726
     78  CA        -5.0200   -4.6920   -4.6260 C.3    79  PRO79       0.1402
     79  C         -3.7340   -4.2230   -3.9240 C.2    79  PRO79       0.2269
     80  O         -2.6860   -4.8660   -3.9940 O.2    79  PRO79      -0.2865
     81  CB        -4.7400   -5.7980   -5.6490 C.3    79  PRO79       0.0296
     82  CG        -4.5390   -5.0570   -6.9430 C.3    79  PRO79       0.0237
     83  CD        -5.4440   -3.8520   -6.8810 C.3    79  PRO79       0.0939
@<TRIPOS>BOND
     1    37    38    1
     2    37    36    1
     3    38    32    1
     4    35    34    2
     5    47    46    1
     6    36    33    1
     7    46    45    1
     8    34    33    1
     9    32    33    1
    10    45    44    1
    11    21    20    2
    12    30    31   ar
    13    30    28   ar
    14    44    43    1
    15    31    29   ar
    16    20    19    1
    17    43    40    1
    18    28    25   ar
    19    29    27   ar
    20    40    39    1
    21    40    41    1
    22    25    27   ar
    23    25    23   ar
    24    27    26   ar
    25    18    19    1
    26    51    50    2
    27    19    22    1
    28    48    41   am
    29    48    49    1
    30    23    22    1
    31    23    24   ar
    32    41    42    2
    33    26    24   ar
    34    50    49    1
    35    50    55   am
    36    56    55    1
    37    56    57    1
    38    56    59    1
    39    49    52    1
    40    54    52    1
    41    60    59    1
    42    60    61    1
    43    62    61    1
    44    62    63    2
    45    57    58    2
    46    65    63    1
    47    52    53    1
    48    63    64    1
    49    69    68    2
    50    82    83    1
    51    82    81    1
    52    83    77    1
    53     9     7   ar
    54    74    73    1
    55    74    75    1
    56    68    73   am
    57    68    67    1
    58    66    67    1
    59    81    78    1
    60    77    75   am
    61    77    78    1
    62     7     8   ar
    63     7     6    1
    64    67    70    1
    65    70    71    1
    66    70    72    1
    67    75    76    2
    68    78    79    1
    69     6     5    1
    70    80    79    2
    71     5     2    1
    72    13    12    2
    73     2     1    1
    74     2     3    1
    75    12    11    1
    76    10     3   am
    77    10    11    1
    78     3     4    2
    79    11    14    1
    80    15    14    1
    81    15    16    1
    82    16    17    1
