@<TRIPOS>MOLECULE
tmp/3oy0A00.pdb
 180 175 0 0 0
SMALL
GASTEIGER

@<TRIPOS>ATOM
      1  N          8.3900   -0.2620   10.5520 N.3     2  TRP2       -0.1241
      2  CA         7.7470   -1.2590   11.3880 C.3     2  TRP2        0.1605
      3  C          6.7440   -2.0720   10.5610 C.2     2  TRP2        0.2264
      4  O          6.1970   -1.5950    9.5440 O.2     2  TRP2       -0.2867
      5  CB         7.0610   -0.5960   12.5800 C.3     2  TRP2        0.0550
      6  CG         5.8760    0.2250   12.2090 C.ar    2  TRP2        0.0003
      7  CD1        5.8580    1.5790   11.8970 C.ar    2  TRP2        0.0946
      8  CD2        4.5080   -0.2230   12.1280 C.ar    2  TRP2        0.0152
      9  NE1        4.5670    1.9780   11.6310 N.ar    2  TRP2       -0.2442
     10  CE2        3.7240    0.8950   11.7560 C.ar    2  TRP2        0.0810
     11  CE3        3.8690   -1.4620   12.3330 C.ar    2  TRP2        0.0012
     12  CZ2        2.3380    0.8080   11.6050 C.ar    2  TRP2        0.0191
     13  CZ3        2.4850   -1.5370   12.1710 C.ar    2  TRP2        0.0001
     14  CH2        1.7460   -0.4160   11.8110 C.ar    2  TRP2        0.0015
     15  N         -3.4030    0.5980    3.6650 N.3    59  ASN59      -0.1240
     16  CA        -2.2710    1.4120    4.1130 C.3    59  ASN59       0.1653
     17  C         -1.0080    0.6100    4.3790 C.2    59  ASN59       0.2266
     18  O         -0.0170    1.1420    4.8910 O.2    59  ASN59      -0.2867
     19  CB        -2.6360    2.2420    5.3510 C.3    59  ASN59       0.1155
     20  CG        -2.9800    1.3850    6.5420 C.2    59  ASN59       0.2627
     21  OD1       -2.6760    0.2090    6.5820 O.2    59  ASN59      -0.2716
     22  ND2       -3.6650    1.9770    7.5080 N.am   59  ASN59      -0.0877
     23  N         -0.7140   -1.9620    6.3180 N.3    61  HIS61      -0.1241
     24  CA        -0.8250   -2.6980    7.6110 C.3    61  HIS61       0.1621
     25  C         -2.2170   -3.2640    7.8460 C.2    61  HIS61       0.2264
     26  O         -2.3510   -4.3170    8.4730 O.2    61  HIS61      -0.2867
     27  CB        -0.3130   -1.9920    8.8880 C.3    61  HIS61       0.0745
     28  CG        -0.4160   -0.5090    8.9110 C.ar   61  HIS61       0.0817
     29  ND1       -1.4160    0.1520    9.5930 N.ar   61  HIS61      -0.2268
     30  CD2        0.4110    0.4490    8.4320 C.ar   61  HIS61       0.1154
     31  CE1       -1.2330    1.4540    9.4810 C.ar   61  HIS61       0.1986
     32  NE2       -0.1310    1.6620    8.7820 N.ar   61  HIS61      -0.2212
     33  N         -8.3880    0.6670    5.9040 N.3    64  ASN64      -0.1240
     34  CA        -9.2300    1.5690    6.6940 C.3    64  ASN64       0.1653
     35  C        -10.4450    1.9820    5.8520 C.2    64  ASN64       0.2266
     36  O        -10.3010    2.4240    4.7100 O.2    64  ASN64      -0.2867
     37  CB        -8.5140    2.8490    7.1290 C.3    64  ASN64       0.1155
     38  CG        -7.4100    2.6240    8.1060 C.2    64  ASN64       0.2627
     39  OD1       -7.3060    1.5550    8.6980 O.2    64  ASN64      -0.2716
     40  ND2       -6.5490    3.6380    8.2800 N.am   64  ASN64      -0.0877
     41  N        -12.5960    6.3190   11.3040 N.3    89  GLN89      -0.1245
     42  CA       -12.3390    5.1760   10.4230 C.3    89  GLN89       0.1566
     43  C        -12.5850    3.9080   11.2040 C.2    89  GLN89       0.2260
     44  O        -12.6040    3.9370   12.4340 O.2    89  GLN89      -0.2867
     45  CB       -10.8920    5.1780    9.8590 C.3    89  GLN89       0.0367
     46  CG        -9.7810    5.3070   10.9070 C.3    89  GLN89       0.0905
     47  CD        -9.0740    4.0150   11.2570 C.2    89  GLN89       0.2608
     48  OE1       -9.6310    2.9140   11.1890 O.2    89  GLN89      -0.2717
     49  NE2       -7.8330    4.1650   11.6860 N.am   89  GLN89      -0.0878
     50  N        -11.2380   -0.4060   10.9470 N.3    91  HIS91      -0.1241
     51  CA       -10.3200   -1.3320   10.3350 C.3    91  HIS91       0.1621
     52  C        -10.3720   -2.6100   11.1440 C.2    91  HIS91       0.2264
     53  O        -11.0140   -2.6570   12.1970 O.2    91  HIS91      -0.2867
     54  CB        -8.8760   -0.8110   10.2910 C.3    91  HIS91       0.0745
     55  CG        -8.3010   -0.5590   11.6530 C.ar   91  HIS91       0.0817
     56  ND1       -8.4590    0.6390   12.3130 N.ar   91  HIS91      -0.2268
     57  CD2       -7.6480   -1.3800   12.5040 C.ar   91  HIS91       0.1154
     58  CE1       -7.9170    0.5540   13.5130 C.ar   91  HIS91       0.1986
     59  NE2       -7.3990   -0.6600   13.6480 N.ar   91  HIS91      -0.2212
     60  N         -8.0070   -6.3190   12.4430 N.3    93  HIS93      -0.1241
     61  CA        -6.8040   -7.1360   12.5650 C.3    93  HIS93       0.1621
     62  C         -7.2340   -8.5870   12.4420 C.2    93  HIS93       0.2264
     63  O         -8.2920   -8.9580   12.9540 O.2    93  HIS93      -0.2867
     64  CB        -6.1440   -6.9070   13.9250 C.3    93  HIS93       0.0745
     65  CG        -5.8560   -5.4630   14.2260 C.ar   93  HIS93       0.0817
     66  ND1       -4.6110   -4.8910   14.0350 N.ar   93  HIS93      -0.2268
     67  CD2       -6.6680   -4.4600   14.6350 C.ar   93  HIS93       0.1154
     68  CE1       -4.6640   -3.6080   14.3570 C.ar   93  HIS93       0.1986
     69  NE2       -5.9090   -3.3070   14.6740 N.ar   93  HIS93      -0.2212
     70  N        -11.9600   -2.5680   14.8930 N.3   116  HIS116     -0.1241
     71  CA       -11.7420   -1.3310   15.6490 C.3   116  HIS116      0.1621
     72  C        -12.4160   -0.2020   14.9700 C.2   116  HIS116      0.2264
     73  O        -12.0170    0.1820   13.8590 O.2   116  HIS116     -0.2867
     74  CB       -10.2440   -1.0260   15.7350 C.3   116  HIS116      0.0745
     75  CG        -9.5290   -1.9980   16.6050 C.ar  116  HIS116      0.0817
     76  ND1       -8.1630   -2.2240   16.5550 N.ar  116  HIS116     -0.2268
     77  CD2      -10.0160   -2.8280   17.5620 C.ar  116  HIS116      0.1154
     78  CE1       -7.8480   -3.1570   17.4370 C.ar  116  HIS116      0.1986
     79  NE2       -8.9580   -3.5430   18.0530 N.ar  116  HIS116     -0.2212
     80  N        -12.7200    3.5680   15.2660 N.3   118  VAL118     -0.1245
     81  CA       -11.8910    4.5880   15.8930 C.3   118  VAL118      0.1561
     82  C        -12.6010    5.9470   15.9280 C.2   118  VAL118      0.2260
     83  O        -13.0150    6.4580   14.8820 O.2   118  VAL118     -0.2867
     84  CB       -10.5360    4.7250   15.1290 C.3   118  VAL118      0.0252
     85  CG1       -9.6490    5.7650   15.7740 C.3   118  VAL118      0.0019
     86  CG2       -9.8230    3.3630   15.0330 C.3   118  VAL118      0.0019
     87  N         -8.1460   15.0570   14.7870 N.3   127  PHE127     -0.1227
     88  CA        -7.6130   13.7540   15.1830 C.3   127  PHE127      0.1736
     89  C         -6.1620   13.8340   15.5870 C.2   127  PHE127      0.2596
     90  O         -5.7520   13.2060   16.5640 O.2   127  PHE127     -0.2718
     91  CB        -7.7780   12.7710   14.0240 C.3   127  PHE127      0.0547
     92  CG        -7.2600   11.3960   14.3020 C.ar  127  PHE127     -0.0202
     93  CD1       -7.9930   10.4990   15.0830 C.ar  127  PHE127     -0.0042
     94  CD2       -6.0360   10.9810   13.8150 C.ar  127  PHE127     -0.0042
     95  CE1       -7.5390    9.2380   15.3470 C.ar  127  PHE127     -0.0003
     96  CE2       -5.5660    9.7170   14.0720 C.ar  127  PHE127     -0.0003
     97  CZ        -6.3360    8.8260   14.8480 C.ar  127  PHE127     -0.0000
     98  N         -5.3440   14.5710   14.8250 N.am  128  GLY128     -0.1957
     99  CA        -3.9470   14.7090   15.2050 C.3   128  GLY128      0.1869
    100  C         -3.6980   15.3260   16.5770 C.2   128  GLY128      0.2309
    101  O         -2.7310   14.9790   17.2430 O.2   128  GLY128     -0.2863
    102  N         -4.8330   12.5750   19.3850 N.3   131  VAL131     -0.1245
    103  CA        -3.9270   11.4560   19.7130 C.3   131  VAL131      0.1561
    104  C         -2.8270   11.8450   20.7120 C.2   131  VAL131      0.2260
    105  O         -2.1460   10.9630   21.2420 O.2   131  VAL131     -0.2867
    106  CB        -3.2860   10.7480   18.4950 C.3   131  VAL131      0.0252
    107  CG1       -4.3540   10.1210   17.6270 C.3   131  VAL131      0.0019
    108  CG2       -2.4270   11.6870   17.6820 C.3   131  VAL131      0.0019
    109  N        -11.9050    3.8120   21.1580 N.3   139  VAL139     -0.1245
    110  CA       -11.9630    2.7810   20.1260 C.3   139  VAL139      0.1561
    111  C        -12.9160    1.6980   20.6000 C.2   139  VAL139      0.2260
    112  O        -12.7630    1.1650   21.7030 O.2   139  VAL139     -0.2867
    113  CB       -10.5710    2.1870   19.8100 C.3   139  VAL139      0.0252
    114  CG1      -10.6780    1.1540   18.6730 C.3   139  VAL139      0.0019
    115  CG2       -9.6300    3.2830   19.3740 C.3   139  VAL139      0.0019
    116  N         -3.0010    3.2020   21.2180 N.3   194  LEU194     -0.1231
    117  CA        -2.9750    2.6590   19.8560 C.3   194  LEU194      0.1693
    118  C         -2.2260    1.3470   19.8680 C.2   194  LEU194      0.2593
    119  O         -1.2070    1.1550   20.5920 O.2   194  LEU194     -0.2718
    120  CB        -2.2330    3.6110   18.9150 C.3   194  LEU194      0.0284
    121  CG        -2.7870    5.0240   18.8550 C.3   194  LEU194      0.0019
    122  CD1       -1.9130    5.8150   17.8770 C.3   194  LEU194      0.0001
    123  CD2       -4.2520    5.0810   18.4430 C.3   194  LEU194      0.0001
    124  N         -2.7030    0.3990   19.0770 N.am  195  THR195     -0.1939
    125  CA        -2.0360   -0.9060   19.0630 C.3   195  THR195      0.2028
    126  C         -1.0410   -1.0610   17.9240 C.2   195  THR195      0.2643
    127  O         -0.4760   -2.1250   17.8010 O.2   195  THR195     -0.2714
    128  CB        -3.0020   -2.0830   18.9340 C.3   195  THR195      0.1808
    129  OG1       -3.5990   -2.0300   17.6340 O.3   195  THR195     -0.2208
    130  CG2       -4.0930   -2.0680   20.0290 C.3   195  THR195      0.0379
    131  N         -0.8430   -0.0030   17.1210 N.am  196  THR196     -0.1937
    132  CA         0.2820    0.0710   16.1750 C.3   196  THR196      0.2013
    133  C          1.0930    1.3200   16.4720 C.2   196  THR196      0.2484
    134  O          0.6000    2.2760   17.0790 O.2   196  THR196     -0.2729
    135  CB        -0.1730    0.1820   14.7050 C.3   196  THR196      0.1807
    136  OG1       -0.8320    1.4120   14.5070 O.3   196  THR196     -0.2208
    137  CG2       -1.1190   -0.9320   14.3240 C.3   196  THR196      0.0379
    138  N          2.3430    1.3320   16.0180 N.am  197  PRO197     -0.2715
    139  CA         3.1100    2.5680   16.1180 C.3   197  PRO197      0.1521
    140  C          2.2620    3.7280   15.5670 C.2   197  PRO197      0.2440
    141  O          1.5830    3.5500   14.5420 O.2   197  PRO197     -0.2731
    142  CB         4.3300    2.2330   15.2590 C.3   197  PRO197      0.0310
    143  CG         4.5190    0.8270   15.4660 C.3   197  PRO197      0.0237
    144  CD         3.1410    0.2510   15.4160 C.3   197  PRO197      0.0939
    145  N          2.2710    4.8920   16.2250 N.am  198  PRO198     -0.2727
    146  CA         3.1810    5.2980   17.3180 C.3   198  PRO198      0.1402
    147  C          2.8180    4.8850   18.7470 C.2   198  PRO198      0.2269
    148  O          3.4380    5.3890   19.6670 O.2   198  PRO198     -0.2865
    149  CB         3.1720    6.8200   17.1980 C.3   198  PRO198      0.0296
    150  CG         1.8160    7.1400   16.7110 C.3   198  PRO198      0.0237
    151  CD         1.4630    6.0400   15.7430 C.3   198  PRO198      0.0939
    152  N          0.6110    5.5480   20.8620 N.3   200  LEU200     -0.1245
    153  CA         0.2830    6.6370   21.7770 C.3   200  LEU200      0.1561
    154  C         -0.7730    6.2290   22.8020 C.2   200  LEU200      0.2260
    155  O         -1.7730    5.5700   22.4810 O.2   200  LEU200     -0.2867
    156  CB        -0.1850    7.8650   20.9770 C.3   200  LEU200      0.0270
    157  CG         0.9220    8.4560   20.0800 C.3   200  LEU200      0.0019
    158  CD1        0.3040    9.4830   19.1460 C.3   200  LEU200      0.0001
    159  CD2        2.0670    9.0910   20.8780 C.3   200  LEU200      0.0001
    160  N         -6.0690    6.2380   24.2790 N.3   203  VAL203     -0.1245
    161  CA        -7.3100    5.5110   23.9540 C.3   203  VAL203      0.1561
    162  C         -8.0650    5.0510   25.1750 C.2   203  VAL203      0.2260
    163  O         -7.5180    4.3780   26.0390 O.2   203  VAL203     -0.2867
    164  CB        -7.0430    4.2590   23.0810 C.3   203  VAL203      0.0252
    165  CG1       -8.3520    3.5550   22.7470 C.3   203  VAL203      0.0019
    166  CG2       -6.2630    4.6310   21.7570 C.3   203  VAL203      0.0019
    167  N        -10.4700    2.2950   25.7020 N.3   205  TRP205     -0.1241
    168  CA       -10.8860    1.0960   24.9900 C.3   205  TRP205      0.1605
    169  C        -12.2450    0.6780   25.5110 C.2   205  TRP205      0.2264
    170  O        -12.4600    0.5970   26.7090 O.2   205  TRP205     -0.2867
    171  CB        -9.8610   -0.0510   25.1760 C.3   205  TRP205      0.0550
    172  CG        -8.7970    0.0870   24.1950 C.ar  205  TRP205      0.0003
    173  CD1       -7.5930    0.6520   24.3890 C.ar  205  TRP205      0.0946
    174  CD2       -8.8510   -0.3250   22.8120 C.ar  205  TRP205      0.0152
    175  NE1       -6.8880    0.6610   23.1890 N.ar  205  TRP205     -0.2442
    176  CE2       -7.6290    0.0360   22.2220 C.ar  205  TRP205      0.0810
    177  CE3       -9.8180   -0.9680   22.0280 C.ar  205  TRP205      0.0012
    178  CZ2       -7.3420   -0.2320   20.8820 C.ar  205  TRP205      0.0191
    179  CZ3       -9.5340   -1.2480   20.7030 C.ar  205  TRP205      0.0001
    180  CH2       -8.3110   -0.8680   20.1440 C.ar  205  TRP205      0.0015
@<TRIPOS>BOND
     1    15    16    1
     2    16    17    1
     3    16    19    1
     4    17    18    2
     5    36    35    2
     6    19    20    1
     7    35    34    1
     8    33    34    1
     9    23    24    1
    10    20    21    2
    11    20    22   am
    12    34    37    1
    13    37    38    1
    14    24    25    1
    15    24    27    1
    16    25    26    2
    17    38    40   am
    18    38    39    2
    19    30    32   ar
    20    30    28   ar
    21    32    31   ar
    22    27    28    1
    23    28    29   ar
    24    31    29   ar
    25     4     3    2
    26    45    42    1
    27    45    46    1
    28    54    51    1
    29    54    55    1
    30    51    50    1
    31    51    52    1
    32    42    43    1
    33    42    41    1
    34     1     2    1
    35     3     2    1
    36    46    47    1
    37    52    53    2
    38    48    47    2
    39    43    44    2
    40    47    49   am
    41     2     5    1
    42    12    10   ar
    43    12    14   ar
    44     9    10   ar
    45     9     7   ar
    46    55    56   ar
    47    55    57   ar
    48    10     8   ar
    49    14    13   ar
    50     7     6   ar
    51     8     6   ar
    52     8    11   ar
    53    13    11   ar
    54     6     5    1
    55    56    58   ar
    56    62    61    1
    57    62    63    2
    58    60    61    1
    59    57    59   ar
    60    61    64    1
    61    58    59   ar
    62    94    96   ar
    63    94    92   ar
    64    73    72    2
    65    64    65    1
    66    91    92    1
    67    91    88    1
    68    66    65   ar
    69    66    68   ar
    70    96    97   ar
    71    65    67   ar
    72    92    93   ar
    73   137   135    1
    74    68    69   ar
    75   136   135    1
    76   141   140    2
    77    67    69   ar
    78   135   132    1
    79    87    88    1
    80    98    99    1
    81    98    89   am
    82    97    95   ar
    83    83    82    2
    84    70    71    1
    85    72    71    1
    86    86    84    1
    87    93    95   ar
    88    84    85    1
    89    84    81    1
    90    88    89    1
    91    99   100    1
    92   142   143    1
    93   142   139    1
    94    80    81    1
    95   144   143    1
    96   144   138    1
    97   140   139    1
    98   140   145   am
    99    89    90    2
   100    71    74    1
   101    74    75    1
   102   151   145    1
   103   151   150    1
   104    81    82    1
   105   138   139    1
   106   138   133   am
   107   132   133    1
   108   132   131    1
   109   145   146    1
   110   133   134    2
   111    76    75   ar
   112    76    78   ar
   113   100   101    2
   114    75    77   ar
   115   150   149    1
   116   131   126   am
   117   149   146    1
   118   146   147    1
   119    78    79   ar
   120    77    79   ar
   121   107   106    1
   122   129   128    1
   123   108   106    1
   124   127   126    2
   125   122   121    1
   126   126   125    1
   127   123   121    1
   128   106   103    1
   129   114   113    1
   130   147   148    2
   131   121   120    1
   132   120   117    1
   133   128   125    1
   134   128   130    1
   135   125   124    1
   136   124   118   am
   137   158   157    1
   138   115   113    1
   139   102   103    1
   140   103   104    1
   141   113   110    1
   142   117   118    1
   143   117   116    1
   144   118   119    2
   145   157   159    1
   146   157   156    1
   147   110   111    1
   148   110   109    1
   149   180   179   ar
   150   180   178   ar
   151   111   112    2
   152   179   177   ar
   153   104   105    2
   154   152   153    1
   155   178   176   ar
   156   156   153    1
   157   166   164    1
   158   153   154    1
   159   177   174   ar
   160   176   174   ar
   161   176   175   ar
   162   155   154    2
   163   165   164    1
   164   174   172   ar
   165   164   161    1
   166   175   173   ar
   167   161   160    1
   168   161   162    1
   169   172   173   ar
   170   172   171    1
   171   168   171    1
   172   168   169    1
   173   168   167    1
   174   162   163    2
   175   169   170    2
