@<TRIPOS>MOLECULE
tmp/3oy1A00.pdb
 167 153 0 0 0
SMALL
GASTEIGER

@<TRIPOS>ATOM
      1  N        -28.4440    7.4430  -35.7510 N.3    25  ILE25      -0.1231
      2  CA       -27.9570    6.9680  -34.4490 C.3    25  ILE25       0.1692
      3  C        -27.8220    8.0870  -33.4080 C.2    25  ILE25       0.2593
      4  O        -26.9970    8.0030  -32.4920 O.2    25  ILE25      -0.2718
      5  CB       -26.6210    6.1710  -34.5690 C.3    25  ILE25       0.0266
      6  CG1      -25.5750    6.9580  -35.3670 C.3    25  ILE25       0.0019
      7  CG2      -26.8640    4.7870  -35.1800 C.3    25  ILE25       0.0020
      8  CD1      -24.1540    6.4590  -35.1940 C.3    25  ILE25       0.0001
      9  N        -28.6390    9.1290  -33.5550 N.am   26  GLY26      -0.1942
     10  CA       -28.6480   10.2480  -32.6120 C.3    26  GLY26       0.2014
     11  C        -28.5850   11.6180  -33.2610 C.2    26  GLY26       0.2639
     12  O        -28.0040   11.7820  -34.3360 O.2    26  GLY26      -0.2714
     13  N        -29.1840   12.6030  -32.5930 N.am   27  SER27      -0.1949
     14  CA       -29.2260   13.9790  -33.0880 C.3    27  SER27       0.1924
     15  C        -28.6260   14.9470  -32.0720 C.2    27  SER27       0.2314
     16  O        -28.1620   16.0310  -32.4300 O.2    27  SER27      -0.2863
     17  CB       -30.6660   14.3840  -33.4190 C.3    27  SER27       0.2116
     18  OG       -30.7340   15.7290  -33.8650 O.3    27  SER27      -0.2180
     19  N        -26.3500   18.6830  -34.8810 N.3    28  GLY28      -0.1225
     20  CA       -25.6590   17.8420  -35.8480 C.3    28  GLY28       0.1811
     21  C        -26.2030   16.4290  -35.8530 C.2    28  GLY28       0.2280
     22  O        -26.0580   15.6950  -34.8740 O.2    28  GLY28      -0.2866
     23  N        -26.4920   12.5060  -36.8390 N.3    30  VAL30      -0.1245
     24  CA       -25.4700   11.4630  -36.9380 C.3    30  VAL30       0.1561
     25  C        -26.0260   10.1930  -37.5860 C.2    30  VAL30       0.2260
     26  O        -27.1630    9.8010  -37.3230 O.2    30  VAL30      -0.2867
     27  CB       -24.8780   11.1170  -35.5430 C.3    30  VAL30       0.0252
     28  CG1      -23.6860   10.1850  -35.6740 C.3    30  VAL30       0.0019
     29  CG2      -24.4720   12.3790  -34.7970 C.3    30  VAL30       0.0019
     30  N        -19.2810    5.9180  -38.2500 N.3    43  ALA43      -0.1245
     31  CA       -20.2300    6.9480  -37.8580 C.3    43  ALA43       0.1562
     32  C        -19.9180    8.2330  -38.6180 C.2    43  ALA43       0.2260
     33  O        -18.7640    8.6770  -38.6660 O.2    43  ALA43      -0.2867
     34  CB       -20.1840    7.1840  -36.3600 C.3    43  ALA43       0.0290
     35  N        -20.9920   12.2800  -39.0360 N.3    45  LYS45      -0.1245
     36  CA       -21.6430   13.4500  -38.4580 C.3    45  LYS45       0.1561
     37  C        -21.8030   14.5410  -39.5210 C.2    45  LYS45       0.2260
     38  O        -20.8410   14.8910  -40.2080 O.2    45  LYS45      -0.2867
     39  CB       -20.8130   13.9670  -37.2810 C.3    45  LYS45       0.0271
     40  CG       -21.4850   15.0070  -36.4000 C.3    45  LYS45       0.0035
     41  CD       -20.5110   15.4560  -35.3220 C.3    45  LYS45       0.0206
     42  CE       -21.1540   16.3930  -34.3240 C.3    45  LYS45       0.1093
     43  NZ       -20.1470   16.8360  -33.3170 N.3    45  LYS45      -0.1314
     44  N         -8.6320   17.8880  -34.2780 N.3    67  MET67      -0.1245
     45  CA        -8.7290   16.4610  -34.6100 C.3    67  MET67       0.1570
     46  C         -7.5000   15.9240  -35.3530 C.2    67  MET67       0.2261
     47  O         -7.3270   14.7070  -35.4770 O.2    67  MET67      -0.2867
     48  CB       -10.0150   16.1610  -35.3900 C.3    67  MET67       0.0387
     49  CG       -11.2200   15.8890  -34.5000 C.3    67  MET67       0.0595
     50  SD       -12.8110   15.9610  -35.3490 S.3    67  MET67      -0.1393
     51  CE       -13.9250   16.1260  -33.9570 C.3    67  MET67       0.0692
     52  N        -11.4090   10.9390  -30.1120 N.3    76  ILE76      -0.1245
     53  CA       -11.8790   10.8200  -31.4960 C.3    76  ILE76       0.1561
     54  C        -10.7500   11.0390  -32.5100 C.2    76  ILE76       0.2260
     55  O         -9.9760   11.9910  -32.3990 O.2    76  ILE76      -0.2867
     56  CB       -13.1010   11.7720  -31.7770 C.3    76  ILE76       0.0252
     57  CG1      -13.7630   11.4780  -33.1390 C.3    76  ILE76       0.0019
     58  CG2      -12.7380   13.2580  -31.5710 C.3    76  ILE76       0.0019
     59  CD1      -13.1200   12.1350  -34.3680 C.3    76  ILE76       0.0001
     60  N        -10.3270   11.2140  -36.7590 N.3    78  LEU78      -0.1245
     61  CA       -11.0260   11.3050  -38.0360 C.3    78  LEU78       0.1561
     62  C        -10.5330   10.2790  -39.0450 C.2    78  LEU78       0.2260
     63  O         -9.3270   10.1150  -39.2420 O.2    78  LEU78      -0.2867
     64  CB       -10.8840   12.7080  -38.6320 C.3    78  LEU78       0.0270
     65  CG       -11.9380   13.7600  -38.2900 C.3    78  LEU78       0.0019
     66  CD1      -11.4360   15.1320  -38.6940 C.3    78  LEU78       0.0001
     67  CD2      -13.2680   13.4550  -38.9640 C.3    78  LEU78       0.0001
     68  N        -18.1950   14.5180  -41.2560 N.3    96  LEU96      -0.1245
     69  CA       -17.0570   13.9510  -40.5290 C.3    96  LEU96       0.1561
     70  C        -17.2750   12.4600  -40.3010 C.2    96  LEU96       0.2260
     71  O        -18.3840   12.0370  -39.9750 O.2    96  LEU96      -0.2867
     72  CB       -16.8580   14.6600  -39.1830 C.3    96  LEU96       0.0270
     73  CG       -16.7730   16.1880  -39.1180 C.3    96  LEU96       0.0019
     74  CD1      -16.9940   16.6660  -37.6860 C.3    96  LEU96       0.0001
     75  CD2      -15.4510   16.7120  -39.6670 C.3    96  LEU96       0.0001
     76  N        -15.8810    8.7580  -38.5020 N.3    98  MET98      -0.1230
     77  CA       -15.0860    8.0530  -37.4990 C.3    98  MET98       0.1702
     78  C        -15.5540    6.6070  -37.3580 C.2    98  MET98       0.2592
     79  O        -16.6280    6.2440  -37.8440 O.2    98  MET98      -0.2718
     80  CB       -15.1720    8.7640  -36.1430 C.3    98  MET98       0.0401
     81  CG       -16.5030    8.5670  -35.4150 C.3    98  MET98       0.0596
     82  SD       -16.5230    9.2400  -33.7410 S.3    98  MET98      -0.1393
     83  CE       -15.4410    8.1010  -32.8790 C.3    98  MET98       0.0692
     84  N        -14.7450    5.7940  -36.6810 N.am   99  GLU99      -0.1966
     85  CA       -15.1080    4.4230  -36.3170 C.3    99  GLU99       0.1733
     86  C        -16.4480    4.3920  -35.5850 C.2    99  GLU99       0.2616
     87  O        -16.6870    5.2050  -34.6900 O.2    99  GLU99      -0.2715
     88  CB       -14.0170    3.8190  -35.4300 C.3    99  GLU99       0.0429
     89  CG       -14.2850    2.3910  -34.9690 C.3    99  GLU99       0.1163
     90  CD       -13.1440    1.8140  -34.1550 C.2    99  GLU99       0.3649
     91  OE1      -12.3980    2.5910  -33.5230 O.co2  99  GLU99      -0.2457
     92  OE2      -12.9930    0.5770  -34.1500 O.co2  99  GLU99      -0.2457
     93  N        -17.3170    3.4620  -35.9750 N.am  100  LEU100     -0.1963
     94  CA       -18.6190    3.3130  -35.3320 C.3   100  LEU100      0.1728
     95  C        -18.4830    2.6800  -33.9500 C.2   100  LEU100      0.2616
     96  O        -17.8360    1.6470  -33.7890 O.2   100  LEU100     -0.2715
     97  CB       -19.5750    2.4900  -36.1990 C.3   100  LEU100      0.0311
     98  CG       -21.0140    2.3340  -35.6900 C.3   100  LEU100      0.0022
     99  CD1      -21.7440    3.6690  -35.6670 C.3   100  LEU100      0.0001
    100  CD2      -21.7780    1.3250  -36.5300 C.3   100  LEU100      0.0001
    101  N        -19.1020    3.3140  -32.9590 N.am  101  MET101     -0.1963
    102  CA       -19.0760    2.8170  -31.5880 C.3   101  MET101      0.1736
    103  C        -20.4150    2.1820  -31.2170 C.2   101  MET101      0.2616
    104  O        -21.4010    2.3170  -31.9460 O.2   101  MET101     -0.2715
    105  CB       -18.6880    3.9380  -30.6140 C.3   101  MET101      0.0427
    106  CG       -17.3430    4.5920  -30.9310 C.3   101  MET101      0.0599
    107  SD       -15.9030    3.5520  -30.6230 S.3   101  MET101     -0.1393
    108  CE       -15.7100    3.7370  -28.8500 C.3   101  MET101      0.0692
    109  N        -20.4400    1.4820  -30.0860 N.am  102  ASP102     -0.1957
    110  CA       -21.5840    0.6550  -29.7200 C.3   102  ASP102      0.1840
    111  C        -22.5890    1.3510  -28.8100 C.2   102  ASP102      0.2622
    112  O        -23.8020    1.1280  -28.9290 O.2   102  ASP102     -0.2715
    113  CB       -21.1000   -0.6570  -29.0940 C.3   102  ASP102      0.1450
    114  CG       -20.3140   -1.5100  -30.0700 C.2   102  ASP102      0.3671
    115  OD1      -20.7430   -1.6360  -31.2380 O.co2 102  ASP102     -0.2456
    116  OD2      -19.2610   -2.0510  -29.6750 O.co2 102  ASP102     -0.2456
    117  N        -22.0880    2.1960  -27.9110 N.am  103  ALA103     -0.1963
    118  CA       -22.9340    2.8430  -26.9130 C.3   103  ALA103      0.1728
    119  C        -22.4530    4.2340  -26.5100 C.2   103  ALA103      0.2616
    120  O        -21.2630    4.5470  -26.5850 O.2   103  ALA103     -0.2715
    121  CB       -23.0640    1.9520  -25.6780 C.3   103  ALA103      0.0334
    122  N        -23.4060    5.0600  -26.0900 N.am  104  ASN104     -0.1972
    123  CA       -23.1340    6.3390  -25.4490 C.3   104  ASN104      0.1688
    124  C        -22.9040    6.0960  -23.9550 C.2   104  ASN104      0.2292
    125  O        -23.4590    5.1520  -23.3910 O.2   104  ASN104     -0.2864
    126  CB       -24.3270    7.2760  -25.6640 C.3   104  ASN104      0.1181
    127  CG       -24.0250    8.7090  -25.2840 C.2   104  ASN104      0.2629
    128  OD1      -24.4340    9.1720  -24.2240 O.2   104  ASN104     -0.2716
    129  ND2      -23.3020    9.4200  -26.1490 N.am  104  ASN104     -0.0877
    130  N        -25.8470    5.6640  -21.4930 N.3   107  GLN107     -0.1245
    131  CA       -26.4290    4.3200  -21.4170 C.3   107  GLN107      0.1566
    132  C        -25.6840    3.4390  -20.4200 C.2   107  GLN107      0.2260
    133  O        -26.3010    2.6740  -19.6760 O.2   107  GLN107     -0.2867
    134  CB       -26.4210    3.6390  -22.7900 C.3   107  GLN107      0.0367
    135  CG       -27.2300    4.3400  -23.8670 C.3   107  GLN107      0.0905
    136  CD       -27.0900    3.6740  -25.2250 C.2   107  GLN107      0.2608
    137  OE1      -27.2380    2.4560  -25.3540 O.2   107  GLN107     -0.2717
    138  NE2      -26.8060    4.4720  -26.2480 N.am  107  GLN107     -0.0878
    139  N        -22.6000   12.3880  -22.4520 N.3   145  SER145     -0.1202
    140  CA       -23.2380   12.3540  -23.7780 C.3   145  SER145      0.2020
    141  C        -22.2450   12.5290  -24.9370 C.2   145  SER145      0.2618
    142  O        -22.5130   12.1110  -26.0660 O.2   145  SER145     -0.2717
    143  CB       -24.3970   13.3550  -23.8770 C.3   145  SER145      0.2103
    144  OG       -23.9690   14.6940  -23.7080 O.3   145  SER145     -0.2182
    145  N        -21.1000   13.1390  -24.6410 N.am  146  ASN146     -0.1974
    146  CA       -20.0250   13.3120  -25.6160 C.3   146  ASN146      0.1688
    147  C        -18.9180   12.2660  -25.4780 C.2   146  ASN146      0.2292
    148  O        -17.8060   12.4460  -25.9830 O.2   146  ASN146     -0.2864
    149  CB       -19.4490   14.7300  -25.5250 C.3   146  ASN146      0.1181
    150  CG       -20.4400   15.7950  -25.9730 C.2   146  ASN146      0.2629
    151  OD1      -21.1770   15.6050  -26.9380 O.2   146  ASN146     -0.2716
    152  ND2      -20.4510   16.9240  -25.2770 N.am  146  ASN146     -0.0877
    153  N        -18.2570    8.0310  -25.9800 N.3   148  VAL148     -0.1245
    154  CA       -18.7860    6.7890  -26.5530 C.3   148  VAL148      0.1561
    155  C        -17.9540    5.5580  -26.2070 C.2   148  VAL148      0.2260
    156  O        -16.7340    5.6440  -26.0140 O.2   148  VAL148     -0.2867
    157  CB       -18.9880    6.8770  -28.0880 C.3   148  VAL148      0.0252
    158  CG1      -20.2410    7.6770  -28.4140 C.3   148  VAL148      0.0019
    159  CG2      -17.7530    7.4560  -28.7750 C.3   148  VAL148      0.0019
    160  N        -15.4830   12.4840  -27.5530 N.3   158  LEU158     -0.1245
    161  CA       -15.8740   12.9880  -28.8830 C.3   158  LEU158      0.1561
    162  C        -15.5760   14.4590  -29.1850 C.2   158  LEU158      0.2260
    163  O        -15.4340   14.8350  -30.3530 O.2   158  LEU158     -0.2867
    164  CB       -17.3650   12.7270  -29.1400 C.3   158  LEU158      0.0270
    165  CG       -17.8430   11.2840  -29.2970 C.3   158  LEU158      0.0019
    166  CD1      -19.3640   11.2450  -29.3840 C.3   158  LEU158      0.0001
    167  CD2      -17.2200   10.6270  -30.5190 C.3   158  LEU158      0.0001
@<TRIPOS>BOND
     1    68    69    1
     2    69    70    1
     3    69    72    1
     4    70    71    2
     5    38    37    2
     6    75    73    1
     7    37    36    1
     8    63    62    2
     9    72    73    1
    10    73    74    1
    11    62    61    1
    12    35    36    1
    13    67    65    1
    14    66    65    1
    15    33    32    2
    16    64    65    1
    17    64    61    1
    18    32    31    1
    19    76    77    1
    20    36    39    1
    21    30    31    1
    22    61    60    1
    23    31    34    1
    24    79    78    2
    25    25    26    2
    26    25    24    1
    27    77    78    1
    28    77    80    1
    29    78    84   am
    30    39    40    1
    31    24    23    1
    32    24    27    1
    33    84    85    1
    34   100    98    1
    35    40    41    1
    36    85    86    1
    37    85    88    1
    38    97    98    1
    39    97    94    1
    40    80    81    1
    41    93    86   am
    42    93    94    1
    43    21    20    1
    44    21    22    2
    45    20    19    1
    46     1     2    1
    47    98    99    1
    48    28    27    1
    49    86    87    2
    50    27    29    1
    51    47    46    2
    52    88    89    1
    53    81    82    1
    54    48    45    1
    55    48    49    1
    56     6     8    1
    57     6     5    1
    58    46    45    1
    59    50    49    1
    60    50    51    1
    61    94    95    1
    62    41    42    1
    63     7     5    1
    64    89    90    1
    65    45    44    1
    66     5     2    1
    67     2     3    1
    68    59    57    1
    69    12    11    2
    70    42    43    1
    71    90    92   ar
    72    90    91   ar
    73    95    96    2
    74    95   101   am
    75    18    17    1
    76    82    83    1
    77     9     3   am
    78     9    10    1
    79    17    14    1
    80     3     4    2
    81    11    10    1
    82    11    13   am
    83    57    56    1
    84    14    13    1
    85    14    15    1
    86   101   102    1
    87    54    55    2
    88    54    53    1
    89    16    15    2
    90   104   103    2
    91    56    58    1
    92    56    53    1
    93   102   103    1
    94   102   105    1
    95    53    52    1
    96   115   114   ar
    97   103   109   am
    98   106   107    1
    99   106   105    1
   100   107   108    1
   101   167   165    1
   102   163   162    2
   103   109   110    1
   104   114   116   ar
   105   114   113    1
   106   110   113    1
   107   110   111    1
   108   166   165    1
   109   165   164    1
   110   162   161    1
   111   164   161    1
   112   112   111    2
   113   161   160    1
   114   111   117   am
   115   159   157    1
   116   158   157    1
   117   157   154    1
   118   117   118    1
   119   151   150    2
   120   118   119    1
   121   118   121    1
   122   120   119    2
   123   154   155    1
   124   154   153    1
   125   119   122   am
   126   138   136   am
   127   155   156    2
   128   129   127   am
   129   122   123    1
   130   142   141    2
   131   148   147    2
   132   150   149    1
   133   150   152   am
   134   126   123    1
   135   126   127    1
   136   146   149    1
   137   146   147    1
   138   146   145    1
   139   123   124    1
   140   137   136    2
   141   127   128    2
   142   136   135    1
   143   141   145   am
   144   141   140    1
   145   124   125    2
   146   143   140    1
   147   143   144    1
   148   135   134    1
   149   140   139    1
   150   134   131    1
   151   130   131    1
   152   131   132    1
   153   132   133    2
