@<TRIPOS>MOLECULE
tmp/3oy3B00.pdb
 237 227 0 0 0
SMALL
GASTEIGER

@<TRIPOS>ATOM
      1  N         34.1700   39.2560   49.4190 N.3    21  LEU21      -0.1245
      2  CA        33.6760   38.1890   48.5670 C.3    21  LEU21       0.1561
      3  C         34.2270   36.8710   49.1170 C.2    21  LEU21       0.2260
      4  O         35.3730   36.8120   49.5670 O.2    21  LEU21      -0.2867
      5  CB        34.1450   38.4200   47.1160 C.3    21  LEU21       0.0270
      6  CG        33.7060   39.7320   46.4340 C.3    21  LEU21       0.0019
      7  CD1       34.6000   40.0730   45.2330 C.3    21  LEU21       0.0001
      8  CD2       32.2460   39.5960   45.9890 C.3    21  LEU21       0.0001
      9  N         38.5510   33.1610   50.4050 N.3    26  TYR26      -0.1241
     10  CA        39.3360   33.7340   49.3180 C.3    26  TYR26       0.1605
     11  C         40.2000   34.9000   49.7800 C.2    26  TYR26       0.2264
     12  O         40.8430   35.5770   48.9750 O.2    26  TYR26      -0.2867
     13  CB        38.4010   34.1640   48.1880 C.3    26  TYR26       0.0534
     14  CG        38.0420   32.9900   47.3130 C.ar   26  TYR26      -0.0201
     15  CD1       37.1720   31.9840   47.7740 C.ar   26  TYR26      -0.0009
     16  CD2       38.6640   32.8080   46.0850 C.ar   26  TYR26      -0.0009
     17  CE1       36.9500   30.8170   47.0270 C.ar   26  TYR26       0.0417
     18  CE2       38.4590   31.6560   45.3450 C.ar   26  TYR26       0.0417
     19  CZ        37.6060   30.6570   45.8130 C.ar   26  TYR26       0.1957
     20  OH        37.4620   29.4910   45.0750 O.3    26  TYR26      -0.2866
     21  N         39.5440   39.8100   49.7050 N.3    29  VAL29      -0.1245
     22  CA        39.0180   40.3090   48.4530 C.3    29  VAL29       0.1561
     23  C         37.6020   40.8270   48.6010 C.2    29  VAL29       0.2260
     24  O         36.7290   40.1440   49.1390 O.2    29  VAL29      -0.2867
     25  CB        39.0520   39.2270   47.3670 C.3    29  VAL29       0.0252
     26  CG1       38.4910   39.7830   46.0780 C.3    29  VAL29       0.0019
     27  CG2       40.4680   38.8010   47.1470 C.3    29  VAL29       0.0019
     28  N         36.7410   43.8750   41.6090 N.3    42  ALA42      -0.1231
     29  CA        37.0750   43.1670   42.8190 C.3    42  ALA42       0.1694
     30  C         38.3890   43.7820   43.2550 C.2    42  ALA42       0.2592
     31  O         39.2280   44.1150   42.4060 O.2    42  ALA42      -0.2718
     32  CB        37.2100   41.6400   42.5330 C.3    42  ALA42       0.0304
     33  N         38.5440   43.9820   44.5650 N.am   43  VAL43      -0.1966
     34  CA        39.7340   44.6240   45.1100 C.3    43  VAL43       0.1727
     35  C         40.3750   43.7150   46.1700 C.2    43  VAL43       0.2616
     36  O         39.7390   43.3610   47.1640 O.2    43  VAL43      -0.2715
     37  CB        39.4060   46.0040   45.7450 C.3    43  VAL43       0.0290
     38  CG1       40.7040   46.6390   46.2500 C.3    43  VAL43       0.0023
     39  CG2       38.7410   46.9420   44.7050 C.3    43  VAL43       0.0023
     40  N         41.6220   43.3110   45.9330 N.am   44  LYS44      -0.1977
     41  CA        42.3670   42.5620   46.9310 C.3    44  LYS44       0.1596
     42  C         43.1780   43.5370   47.7610 C.2    44  LYS44       0.2287
     43  O         43.8030   44.4680   47.2420 O.2    44  LYS44      -0.2864
     44  CB        43.3020   41.5510   46.2830 C.3    44  LYS44       0.0298
     45  CG        43.8420   40.5180   47.2710 C.3    44  LYS44       0.0038
     46  CD        44.7820   39.5540   46.5740 C.3    44  LYS44       0.0206
     47  CE        45.7260   38.9160   47.5640 C.3    44  LYS44       0.1093
     48  NZ        46.5750   37.9250   46.8670 N.3    44  LYS44      -0.1314
     49  N         52.9370   39.9660   43.6570 N.3    59  GLU59      -0.1245
     50  CA        51.6980   39.7410   42.9140 C.3    59  GLU59       0.1567
     51  C         51.4020   40.9200   41.9540 C.2    59  GLU59       0.2260
     52  O         51.1290   40.6930   40.7800 O.2    59  GLU59      -0.2867
     53  CB        50.5080   39.5340   43.8640 C.3    59  GLU59       0.0388
     54  CG        49.2670   39.0810   43.1020 C.3    59  GLU59       0.1160
     55  CD        48.1080   38.7160   43.9870 C.2    59  GLU59       0.3649
     56  OE1       48.2850   38.5910   45.2120 O.co2  59  GLU59      -0.2457
     57  OE2       47.0020   38.5370   43.4460 O.co2  59  GLU59      -0.2457
     58  N         53.7790   40.9130   38.9790 N.3    62  VAL62      -0.1231
     59  CA        53.4860   39.7800   38.1110 C.3    62  VAL62       0.1692
     60  C         52.2730   40.0870   37.2330 C.2    62  VAL62       0.2591
     61  O         52.2770   39.8120   36.0300 O.2    62  VAL62      -0.2718
     62  CB        53.2250   38.4980   38.9640 C.3    62  VAL62       0.0266
     63  CG1       52.5000   37.4370   38.1620 C.3    62  VAL62       0.0020
     64  CG2       54.5610   37.9300   39.4400 C.3    62  VAL62       0.0020
     65  N         51.2380   40.6700   37.8380 N.am   63  MET63      -0.1979
     66  CA        49.9930   40.9360   37.1270 C.3    63  MET63       0.1605
     67  C         50.1750   41.9940   36.0250 C.2    63  MET63       0.2287
     68  O         49.5100   41.9280   34.9850 O.2    63  MET63      -0.2864
     69  CB        48.8950   41.3490   38.1300 C.3    63  MET63       0.0413
     70  CG        48.4250   40.1690   38.9580 C.3    63  MET63       0.0598
     71  SD        47.1460   40.5050   40.1690 S.3    63  MET63      -0.1393
     72  CE        45.8180   41.1970   39.0560 C.3    63  MET63       0.0692
     73  N         50.7890   40.3260   32.6890 N.3    66  ILE66      -0.1245
     74  CA        49.8570   39.3360   32.1530 C.3    66  ILE66       0.1561
     75  C         48.6410   39.9540   31.4860 C.2    66  ILE66       0.2260
     76  O         47.8600   40.6610   32.1090 O.2    66  ILE66      -0.2867
     77  CB        49.3690   38.3650   33.2480 C.3    66  ILE66       0.0252
     78  CG1       50.5400   37.5040   33.7350 C.3    66  ILE66       0.0019
     79  CG2       48.2630   37.4410   32.6880 C.3    66  ILE66       0.0019
     80  CD1       50.2070   36.6210   34.9120 C.3    66  ILE66       0.0001
     81  N         42.9770   35.3030   31.0900 N.3    71  LEU71      -0.1231
     82  CA        43.6530   35.5560   32.3670 C.3    71  LEU71       0.1693
     83  C         43.1110   36.8480   32.9600 C.2    71  LEU71       0.2591
     84  O         42.7570   37.7770   32.2160 O.2    71  LEU71      -0.2718
     85  CB        45.1700   35.6730   32.1560 C.3    71  LEU71       0.0284
     86  CG        45.8100   34.3040   31.8750 C.3    71  LEU71       0.0019
     87  CD1       47.1590   34.4440   31.1410 C.3    71  LEU71       0.0001
     88  CD2       45.9700   33.5570   33.2220 C.3    71  LEU71       0.0001
     89  N         43.0350   36.9190   34.2960 N.am   72  VAL72      -0.1980
     90  CA        42.5760   38.1460   34.9400 C.3    72  VAL72       0.1595
     91  C         43.4500   39.3340   34.4890 C.2    72  VAL72       0.2287
     92  O         44.6760   39.2200   34.3870 O.2    72  VAL72      -0.2864
     93  CB        42.5860   38.0270   36.5080 C.3    72  VAL72       0.0276
     94  CG1       41.5790   36.9450   36.9660 C.3    72  VAL72       0.0022
     95  CG2       43.9680   37.6910   37.0050 C.3    72  VAL72       0.0022
     96  N         45.0190   45.6800   44.9430 N.3    86  ILE86      -0.1245
     97  CA        45.1030   45.1790   43.5740 C.3    86  ILE86       0.1561
     98  C         43.6770   45.0360   42.9610 C.2    86  ILE86       0.2260
     99  O         42.8320   44.3260   43.5100 O.2    86  ILE86      -0.2867
    100  CB        45.8110   43.8090   43.5390 C.3    86  ILE86       0.0252
    101  CG1       47.2760   43.9470   44.0040 C.3    86  ILE86       0.0019
    102  CG2       45.7530   43.2260   42.1390 C.3    86  ILE86       0.0019
    103  CD1       47.9190   42.5760   44.3810 C.3    86  ILE86       0.0001
    104  N         40.8820   44.2890   39.8320 N.3    88  ILE88      -0.1231
    105  CA        40.4730   43.7760   38.5180 C.3    88  ILE88       0.1692
    106  C         38.9630   43.9140   38.3510 C.2    88  ILE88       0.2592
    107  O         38.2710   44.2410   39.3100 O.2    88  ILE88      -0.2718
    108  CB        40.9140   42.2940   38.3040 C.3    88  ILE88       0.0266
    109  CG1       40.0820   41.3290   39.1490 C.3    88  ILE88       0.0019
    110  CG2       42.4060   42.1310   38.6870 C.3    88  ILE88       0.0020
    111  CD1       40.1950   39.8640   38.6730 C.3    88  ILE88       0.0001
    112  N         38.4620   43.6980   37.1340 N.am   89  GLU89      -0.1966
    113  CA        37.0240   43.7850   36.8600 C.3    89  GLU89       0.1733
    114  C         36.3320   42.6220   37.5570 C.2    89  GLU89       0.2616
    115  O         36.8670   41.5030   37.5770 O.2    89  GLU89      -0.2715
    116  CB        36.7640   43.6930   35.3400 C.3    89  GLU89       0.0429
    117  CG        35.2680   43.6450   34.9400 C.3    89  GLU89       0.1163
    118  CD        34.9780   44.1410   33.5030 C.2    89  GLU89       0.3649
    119  OE1       33.8290   44.5570   33.2340 O.co2  89  GLU89      -0.2457
    120  OE2       35.8890   44.1170   32.6420 O.co2  89  GLU89      -0.2457
    121  N         35.1450   42.8740   38.1090 N.am   90  PHE90      -0.1960
    122  CA        34.3710   41.8410   38.7850 C.3    90  PHE90       0.1771
    123  C         33.8970   40.7800   37.7750 C.2    90  PHE90       0.2619
    124  O         33.4750   41.0880   36.6580 O.2    90  PHE90      -0.2715
    125  CB        33.1780   42.4880   39.5110 C.3    90  PHE90       0.0574
    126  CG        32.3480   41.5240   40.3570 C.ar   90  PHE90      -0.0200
    127  CD1       32.6830   41.2660   41.6880 C.ar   90  PHE90      -0.0042
    128  CD2       31.2080   40.9280   39.8410 C.ar   90  PHE90      -0.0042
    129  CE1       31.8750   40.4270   42.4950 C.ar   90  PHE90      -0.0003
    130  CE2       30.3950   40.0860   40.6420 C.ar   90  PHE90      -0.0003
    131  CZ        30.7400   39.8440   41.9750 C.ar   90  PHE90      -0.0000
    132  N         33.9850   39.5190   38.1620 N.am   91  MET91      -0.1963
    133  CA        33.5190   38.4480   37.3000 C.3    91  MET91       0.1736
    134  C         32.1940   37.9030   37.8320 C.2    91  MET91       0.2617
    135  O         32.1210   37.3470   38.9490 O.2    91  MET91      -0.2715
    136  CB        34.5860   37.3680   37.2260 C.3    91  MET91       0.0427
    137  CG        35.8140   37.8370   36.4610 C.3    91  MET91       0.0599
    138  SD        35.4800   37.7100   34.6960 S.3    91  MET91      -0.1393
    139  CE        35.6790   36.0180   34.5130 C.3    91  MET91       0.0692
    140  N         31.1410   38.0910   37.0340 N.am   92  THR92      -0.1951
    141  CA        29.7680   37.9960   37.5170 C.3    92  THR92       0.1897
    142  C         29.4610   36.7210   38.2780 C.2    92  THR92       0.2313
    143  O         28.7890   36.7800   39.3020 O.2    92  THR92      -0.2863
    144  CB        28.7200   38.0920   36.3480 C.3    92  THR92       0.1794
    145  OG1       28.7670   39.3980   35.7820 O.3    92  THR92      -0.2208
    146  CG2       27.3110   37.8430   36.8620 C.3    92  THR92       0.0378
    147  N         31.5720   34.2860   39.7200 N.3    94  GLY94      -0.1225
    148  CA        32.4130   33.7720   40.7860 C.3    94  GLY94       0.1811
    149  C         33.3220   32.6580   40.3170 C.2    94  GLY94       0.2280
    150  O         33.6640   32.5300   39.1380 O.2    94  GLY94      -0.2866
    151  N         50.6410   31.5290   29.4970 N.3   127  LEU127     -0.1245
    152  CA        51.6050   31.4730   30.5920 C.3   127  LEU127      0.1561
    153  C         52.8410   30.6550   30.1770 C.2   127  LEU127      0.2260
    154  O         53.9790   31.0350   30.4530 O.2   127  LEU127     -0.2867
    155  CB        50.9720   30.8510   31.8430 C.3   127  LEU127      0.0270
    156  CG        49.8410   31.6520   32.4940 C.3   127  LEU127      0.0019
    157  CD1       49.3940   30.9330   33.7710 C.3   127  LEU127      0.0001
    158  CD2       50.3100   33.0590   32.7990 C.3   127  LEU127      0.0001
    159  N         55.9310   31.5790   32.5240 N.3   132  PHE132     -0.1227
    160  CA        55.4360   31.6610   33.8870 C.3   132  PHE132      0.1736
    161  C         55.0070   30.2640   34.3550 C.2   132  PHE132      0.2595
    162  O         54.8730   29.3470   33.5550 O.2   132  PHE132     -0.2718
    163  CB        54.2930   32.6880   33.9720 C.3   132  PHE132      0.0547
    164  CG        54.7600   34.1280   33.8360 C.ar  132  PHE132     -0.0202
    165  CD1       56.0780   34.4200   33.4920 C.ar  132  PHE132     -0.0042
    166  CD2       53.8980   35.1800   34.0590 C.ar  132  PHE132     -0.0042
    167  CE1       56.5130   35.7380   33.3770 C.ar  132  PHE132     -0.0003
    168  CE2       54.3290   36.5030   33.9460 C.ar  132  PHE132     -0.0003
    169  CZ        55.6300   36.7820   33.6060 C.ar  132  PHE132     -0.0000
    170  N         54.8410   30.1010   35.6570 N.am  133  ILE133     -0.1966
    171  CA        54.3360   28.8690   36.2300 C.3   133  ILE133      0.1727
    172  C         53.1680   29.2280   37.1630 C.2   133  ILE133      0.2616
    173  O         53.3170   30.0700   38.0480 O.2   133  ILE133     -0.2715
    174  CB        55.4490   28.1400   37.0340 C.3   133  ILE133      0.0290
    175  CG1       56.5980   27.7350   36.0900 C.3   133  ILE133      0.0022
    176  CG2       54.8950   26.9060   37.6890 C.3   133  ILE133      0.0023
    177  CD1       57.7280   26.9900   36.7700 C.3   133  ILE133      0.0001
    178  N         52.0030   28.6120   36.9700 N.am  134  HIS134     -0.1959
    179  CA        50.8580   29.0590   37.7420 C.3   134  HIS134      0.1787
    180  C         51.0660   28.6350   39.1810 C.2   134  HIS134      0.2620
    181  O         50.9710   29.4440   40.1150 O.2   134  HIS134     -0.2715
    182  CB        49.5570   28.4480   37.2180 C.3   134  HIS134      0.0785
    183  CG        48.3280   28.9790   37.8980 C.ar  134  HIS134      0.0821
    184  ND1       47.9690   28.6170   39.1800 N.ar  134  HIS134     -0.2267
    185  CD2       47.3750   29.8430   37.4720 C.ar  134  HIS134      0.1154
    186  CE1       46.8500   29.2360   39.5140 C.ar  134  HIS134      0.1986
    187  NE2       46.4680   29.9870   38.4950 N.ar  134  HIS134     -0.2212
    188  N         51.3330   27.3410   39.3140 N.am  135  ARG135     -0.1977
    189  CA        51.5480   26.6490   40.5700 C.3   135  ARG135      0.1597
    190  C         50.3390   26.1990   41.3790 C.2   135  ARG135      0.2287
    191  O         50.4820   25.3510   42.2540 O.2   135  ARG135     -0.2864
    192  CB        52.4970   27.4490   41.4610 C.3   135  ARG135      0.0334
    193  CG        53.9050   26.9280   41.3530 C.3   135  ARG135      0.0492
    194  CD        54.7070   27.1290   42.6190 C.3   135  ARG135      0.2205
    195  NE        56.1210   27.1770   42.2760 N.pl3 135  ARG135     -0.0865
    196  CZ        57.1040   26.8690   43.1140 C.cat 135  ARG135      0.5346
    197  NH1       56.8120   26.4880   44.3580 N.pl3 135  ARG135      0.1354
    198  NH2       58.3700   26.9360   42.7030 N.pl3 135  ARG135      0.1354
    199  N         37.6360   31.8710   37.3300 N.3   143  LEU143     -0.1245
    200  CA        36.5330   32.8040   37.5000 C.3   143  LEU143      0.1561
    201  C         35.5960   32.6450   36.2770 C.2   143  LEU143      0.2260
    202  O         36.0370   32.2520   35.2010 O.2   143  LEU143     -0.2867
    203  CB        37.0840   34.2400   37.5760 C.3   143  LEU143      0.0270
    204  CG        37.8780   34.5150   38.8490 C.3   143  LEU143      0.0019
    205  CD1       38.4780   35.9090   38.8210 C.3   143  LEU143      0.0001
    206  CD2       36.9390   34.3430   40.0310 C.3   143  LEU143      0.0001
    207  N         41.4840   32.5290   34.1180 N.3   152  VAL152     -0.1231
    208  CA        42.3050   31.7970   35.0970 C.3   152  VAL152      0.1692
    209  C         42.7780   32.8360   36.0950 C.2   152  VAL152      0.2592
    210  O         43.0950   33.9580   35.7310 O.2   152  VAL152     -0.2718
    211  CB        43.5400   31.0730   34.4210 C.3   152  VAL152      0.0266
    212  CG1       44.5920   30.5860   35.5070 C.3   152  VAL152      0.0020
    213  CG2       43.0490   29.8430   33.6340 C.3   152  VAL152      0.0020
    214  N         42.7610   32.4980   37.3720 N.am  153  ALA153     -0.1966
    215  CA        43.1590   33.4880   38.3570 C.3   153  ALA153      0.1728
    216  C         44.0460   32.7850   39.3730 C.2   153  ALA153      0.2616
    217  O         44.3660   31.6070   39.2120 O.2   153  ALA153     -0.2715
    218  CB        41.9010   34.1110   39.0250 C.3   153  ALA153      0.0334
    219  N         44.4420   33.4870   40.4190 N.am  154  ASP154     -0.1957
    220  CA        45.1290   32.8170   41.5310 C.3   154  ASP154      0.1840
    221  C         44.8600   33.6180   42.7920 C.2   154  ASP154      0.2622
    222  O         45.1170   34.8010   42.8340 O.2   154  ASP154     -0.2715
    223  CB        46.6470   32.7250   41.2640 C.3   154  ASP154      0.1450
    224  CG        47.4220   32.0720   42.4260 C.2   154  ASP154      0.3671
    225  OD1       46.8230   31.4250   43.2840 O.co2 154  ASP154     -0.2456
    226  OD2       48.6530   32.2080   42.4890 O.co2 154  ASP154     -0.2456
    227  N         44.3370   32.9670   43.8200 N.am  155  PHE155     -0.1974
    228  CA        43.9970   33.6640   45.0530 C.3   155  PHE155      0.1639
    229  C         44.9390   33.3540   46.2200 C.2   155  PHE155      0.2290
    230  O         44.6840   33.7750   47.3550 O.2   155  PHE155     -0.2864
    231  CB        42.5500   33.3350   45.4450 C.3   155  PHE155      0.0560
    232  CG        41.5430   33.9730   44.5550 C.ar  155  PHE155     -0.0200
    233  CD1       40.8980   33.2420   43.5790 C.ar  155  PHE155     -0.0042
    234  CD2       41.2800   35.3240   44.6610 C.ar  155  PHE155     -0.0042
    235  CE1       40.0080   33.8610   42.7240 C.ar  155  PHE155     -0.0003
    236  CE2       40.4000   35.9410   43.8160 C.ar  155  PHE155     -0.0003
    237  CZ        39.7620   35.2100   42.8430 C.ar  155  PHE155     -0.0000
@<TRIPOS>BOND
     1   151   152    1
     2   153   154    2
     3   153   152    1
     4   152   155    1
     5    81    82    1
     6    87    86    1
     7    75    76    2
     8    75    74    1
     9   155   156    1
    10    86    85    1
    11    86    88    1
    12    74    73    1
    13    74    77    1
    14    85    82    1
    15    84    83    2
    16    82    83    1
    17   156   158    1
    18   156   157    1
    19   159   160    1
    20   120   118   ar
    21    79    77    1
    22    83    89   am
    23   119   118   ar
    24    77    78    1
    25   167   165   ar
    26   167   169   ar
    27   165   164   ar
    28   118   117    1
    29   162   161    2
    30   169   168   ar
    31   213   211    1
    32    78    80    1
    33   164   163    1
    34   164   166   ar
    35   160   163    1
    36   160   161    1
    37   168   166   ar
    38   207   208    1
    39    89    90    1
    40   161   170   am
    41    92    91    2
    42   211   208    1
    43   211   212    1
    44    91    90    1
    45   139   138    1
    46   138   137    1
    47   117   116    1
    48    90    93    1
    49    68    67    2
    50   208   209    1
    51   202   201    2
    52   116   113    1
    53   170   171    1
    54   210   209    2
    55   145   144    1
    56    67    66    1
    57    61    60    2
    58   175   177    1
    59   175   174    1
    60   209   214   am
    61   171   174    1
    62   171   172    1
    63   201   200    1
    64   144   146    1
    65   144   141    1
    66   137   136    1
    67    93    94    1
    68    93    95    1
    69   124   123    2
    70   113   112    1
    71   113   114    1
    72   178   172   am
    73   178   179    1
    74   140   141    1
    75   140   134   am
    76   174   176    1
    77    66    65    1
    78    66    69    1
    79   112   106   am
    80   172   173    2
    81   182   179    1
    82   182   183    1
    83   136   133    1
    84    60    65   am
    85    60    59    1
    86   133   134    1
    87   133   132    1
    88   199   200    1
    89   214   215    1
    90   185   183   ar
    91   185   187   ar
    92   200   203    1
    93   141   142    1
    94   114   115    2
    95   114   121   am
    96   203   204    1
    97   179   180    1
    98   123   132   am
    99   123   122    1
   100   134   135    2
   101   183   184   ar
   102   121   122    1
   103    59    62    1
   104    59    58    1
   105    69    70    1
   106    63    62    1
   107   142   143    2
   108   108   105    1
   109   108   110    1
   110   108   109    1
   111   106   105    1
   112   106   107    2
   113   215   218    1
   114   215   216    1
   115   187   186   ar
   116   105   104    1
   117   111   109    1
   118   122   125    1
   119   205   204    1
   120   204   206    1
   121    70    71    1
   122    62    64    1
   123    72    71    1
   124   150   149    2
   125   184   186   ar
   126   180   188   am
   127   180   181    2
   128   217   216    2
   129   188   189    1
   130   216   219   am
   131   125   126    1
   132   147   148    1
   133   128   126   ar
   134   128   130   ar
   135   149   148    1
   136   126   127   ar
   137   219   220    1
   138   189   190    1
   139   189   192    1
   140   130   131   ar
   141    52    51    2
   142   223   220    1
   143   223   224    1
   144   193   192    1
   145   193   194    1
   146   190   191    2
   147   220   221    1
   148    28    29    1
   149   127   129   ar
   150    51    50    1
   151   131   129   ar
   152   102   100    1
   153   195   194    1
   154   195   196    2
   155    31    30    2
   156   224   226   ar
   157   224   225   ar
   158    32    29    1
   159   198   196    1
   160   235   237   ar
   161   235   233   ar
   162   221   222    2
   163   221   227   am
   164    29    30    1
   165   237   236   ar
   166    50    49    1
   167    50    53    1
   168    98    99    2
   169    98    97    1
   170    54    53    1
   171    54    55    1
   172   196   197    1
   173    30    33   am
   174    57    55   ar
   175   100    97    1
   176   100   101    1
   177    97    96    1
   178   233   232   ar
   179   236   234   ar
   180   227   228    1
   181    55    56   ar
   182   101   103    1
   183   232   234   ar
   184   232   231    1
   185    33    34    1
   186    39    37    1
   187   228   231    1
   188   228   229    1
   189    20    19    1
   190    34    37    1
   191    34    35    1
   192     7     6    1
   193    18    19   ar
   194    18    16   ar
   195    37    38    1
   196    19    17   ar
   197    40    35   am
   198    40    41    1
   199     8     6    1
   200    26    25    1
   201    16    14   ar
   202    35    36    2
   203   229   230    2
   204    44    41    1
   205    44    45    1
   206     6     5    1
   207    46    45    1
   208    46    47    1
   209    48    47    1
   210    41    42    1
   211    17    15   ar
   212     5     2    1
   213    27    25    1
   214    43    42    2
   215    14    15   ar
   216    14    13    1
   217    25    22    1
   218    13    10    1
   219    22    23    1
   220    22    21    1
   221     2     3    1
   222     2     1    1
   223    23    24    2
   224    12    11    2
   225     3     4    2
   226    10    11    1
   227    10     9    1
