@<TRIPOS>MOLECULE
tmp/3oy8A00.pdb
 103 96 0 0 0
SMALL
GASTEIGER

@<TRIPOS>ATOM
      1  N         19.0960    8.3220   10.7070 N.3    30  VAL30      -0.1245
      2  CA        18.4010    8.2100   11.9810 C.3    30  VAL30       0.1561
      3  C         17.3110    9.2740   12.1140 C.2    30  VAL30       0.2260
      4  O         17.5310   10.4360   11.7870 O.2    30  VAL30      -0.2867
      5  CB        19.3990    8.3190   13.1670 C.3    30  VAL30       0.0252
      6  CG1       18.6670    8.4050   14.4930 C.3    30  VAL30       0.0019
      7  CG2       20.3630    7.1330   13.1750 C.3    30  VAL30       0.0019
      8  N         13.5500    5.3720   18.1140 N.3    43  HIS43      -0.1241
      9  CA        14.7980    5.5110   17.3830 C.3    43  HIS43       0.1621
     10  C         14.6110    4.7040   16.0950 C.2    43  HIS43       0.2264
     11  O         14.5430    3.4830   16.1310 O.2    43  HIS43      -0.2867
     12  CB        15.9570    4.9650   18.2290 C.3    43  HIS43       0.0745
     13  CG        17.2430    4.8040   17.4840 C.ar   43  HIS43       0.0817
     14  ND1       18.0920    5.8600   17.2250 N.ar   43  HIS43      -0.2268
     15  CD2       17.8420    3.7040   16.9680 C.ar   43  HIS43       0.1154
     16  CE1       19.1500    5.4190   16.5660 C.ar   43  HIS43       0.1986
     17  NE2       19.0190    4.1160   16.3910 N.ar   43  HIS43      -0.2212
     18  N         16.0270    3.7810   12.4750 N.3    45  ASN45      -0.1240
     19  CA        17.3770    3.7450   11.9000 C.3    45  ASN45       0.1653
     20  C         17.4840    2.7710   10.7140 C.2    45  ASN45       0.2266
     21  O         17.9060    1.6250   10.8870 O.2    45  ASN45      -0.2867
     22  CB        18.4140    3.4370   13.0100 C.3    45  ASN45       0.1155
     23  CG        19.8590    3.2940   12.4910 C.2    45  ASN45       0.2627
     24  OD1       20.6360    2.5060   13.0340 O.2    45  ASN45      -0.2716
     25  ND2       20.2230    4.0630   11.4670 N.am   45  ASN45      -0.0877
     26  N         19.2710    1.0490    7.9490 N.3    47  ARG47      -0.1245
     27  CA        20.6690    0.7740    7.6540 C.3    47  ARG47       0.1563
     28  C         20.8000    0.2460    6.2310 C.2    47  ARG47       0.2260
     29  O         20.3780   -0.8730    5.9340 O.2    47  ARG47      -0.2867
     30  CB        21.2500   -0.2060    8.6740 C.3    47  ARG47       0.0307
     31  CG        21.4090    0.4010   10.0600 C.3    47  ARG47       0.0489
     32  CD        21.7000   -0.6390   11.1250 C.3    47  ARG47       0.2205
     33  NE        21.7060   -0.0410   12.4650 N.pl3  47  ARG47      -0.0865
     34  CZ        21.9800   -0.6990   13.5900 C.cat  47  ARG47       0.5346
     35  NH1       22.2800   -1.9940   13.5600 N.pl3  47  ARG47       0.1354
     36  NH2       21.9590   -0.0570   14.7510 N.pl3  47  ARG47       0.1354
     37  N         26.8690   -1.3880   10.6200 N.3    51  HIS51      -0.1241
     38  CA        26.8680   -2.3610   11.7280 C.3    51  HIS51       0.1621
     39  C         26.6920   -3.8200   11.2840 C.2    51  HIS51       0.2264
     40  O         26.1340   -4.6370   12.0200 O.2    51  HIS51      -0.2867
     41  CB        25.8130   -1.9950   12.7850 C.3    51  HIS51       0.0745
     42  CG        26.0080   -0.6430   13.3980 C.ar   51  HIS51       0.0817
     43  ND1       25.4010    0.4920   12.9050 N.ar   51  HIS51      -0.2268
     44  CD2       26.7370   -0.2450   14.4680 C.ar   51  HIS51       0.1154
     45  CE1       25.7500    1.5320   13.6420 C.ar   51  HIS51       0.1986
     46  NE2       26.5600    1.1120   14.5970 N.ar   51  HIS51      -0.2212
     47  N         24.7350   -4.7970    9.0470 N.3    53  ASP53      -0.1239
     48  CA        23.3930   -4.8880    8.4600 C.3    53  ASP53       0.1674
     49  C         23.3310   -4.3310    7.0430 C.2    53  ASP53       0.2266
     50  O         24.0680   -3.4060    6.6860 O.2    53  ASP53      -0.2867
     51  CB        22.3690   -4.1550    9.3280 C.3    53  ASP53       0.1410
     52  CG        22.1960   -4.7860   10.6890 C.2    53  ASP53       0.3668
     53  OD1       21.9100   -5.9990   10.7580 O.co2  53  ASP53      -0.2456
     54  OD2       22.3330   -4.0620   11.6950 O.co2  53  ASP53      -0.2456
     55  N         16.1220   -0.7960   11.6130 N.3    58  VAL58      -0.1245
     56  CA        16.2940   -1.1150   13.0170 C.3    58  VAL58       0.1561
     57  C         15.5480   -0.0610   13.8310 C.2    58  VAL58       0.2260
     58  O         15.6990    1.1380   13.5950 O.2    58  VAL58      -0.2867
     59  CB        17.7950   -1.1340   13.3980 C.3    58  VAL58       0.0252
     60  CG1       17.9890   -1.3670   14.8960 C.3    58  VAL58       0.0019
     61  CG2       18.5360   -2.1830   12.5860 C.3    58  VAL58       0.0019
     62  N         14.3510    1.0150   17.9730 N.3    60  ASN60      -0.1240
     63  CA        14.5860    0.8130   19.3970 C.3    60  ASN60       0.1653
     64  C         14.0370    2.0040   20.1710 C.2    60  ASN60       0.2266
     65  O         13.5590    2.9770   19.5790 O.2    60  ASN60      -0.2867
     66  CB        16.0900    0.6210   19.6840 C.3    60  ASN60       0.1155
     67  CG        16.3570   -0.1620   20.9750 C.2    60  ASN60       0.2627
     68  OD1       15.4410   -0.4700   21.7350 O.2    60  ASN60      -0.2716
     69  ND2       17.6230   -0.4780   21.2210 N.am   60  ASN60      -0.0877
     70  N         19.4070    2.0620   26.1050 N.3    67  TRP67      -0.1241
     71  CA        18.7700    1.4330   24.9530 C.3    67  TRP67       0.1605
     72  C         17.8870    0.2600   25.3840 C.2    67  TRP67       0.2264
     73  O         18.2740   -0.5380   26.2390 O.2    67  TRP67      -0.2867
     74  CB        19.8200    0.9170   23.9730 C.3    67  TRP67       0.0550
     75  CG        20.5600    1.9630   23.2130 C.ar   67  TRP67       0.0003
     76  CD1       21.8990    2.2210   23.2750 C.ar   67  TRP67       0.0946
     77  CD2       20.0170    2.8780   22.2490 C.ar   67  TRP67       0.0152
     78  NE1       22.2240    3.2460   22.4210 N.ar   67  TRP67      -0.2442
     79  CE2       21.0910    3.6670   21.7750 C.ar   67  TRP67       0.0810
     80  CE3       18.7280    3.1110   21.7430 C.ar   67  TRP67       0.0012
     81  CZ2       20.9180    4.6750   20.8170 C.ar   67  TRP67       0.0191
     82  CZ3       18.5540    4.1150   20.7920 C.ar   67  TRP67       0.0001
     83  CH2       19.6460    4.8840   20.3400 C.ar   67  TRP67       0.0015
     84  N         16.0540   -3.9890   20.8110 N.3    70  GLU70      -0.1245
     85  CA        15.9960   -3.7410   19.3750 C.3    70  GLU70       0.1567
     86  C         14.9570   -4.5990   18.6690 C.2    70  GLU70       0.2260
     87  O         14.8040   -5.7780   18.9860 O.2    70  GLU70      -0.2867
     88  CB        17.3420   -4.0580   18.7480 C.3    70  GLU70       0.0388
     89  CG        18.2690   -2.8920   18.5950 C.3    70  GLU70       0.1160
     90  CD        19.4770   -3.2440   17.7530 C.2    70  GLU70       0.3649
     91  OE1       19.5160   -4.3690   17.2250 O.co2  70  GLU70      -0.2457
     92  OE2       20.3860   -2.4010   17.6180 O.co2  70  GLU70      -0.2457
     93  N         13.7680   -5.3970   14.4930 N.3    72  ARG72      -0.1245
     94  CA        14.0280   -5.1950   13.0650 C.3    72  ARG72       0.1563
     95  C         12.7640   -5.4360   12.2350 C.2    72  ARG72       0.2260
     96  O         11.9620   -6.3280   12.5410 O.2    72  ARG72      -0.2867
     97  CB        15.1740   -6.0880   12.5980 C.3    72  ARG72       0.0307
     98  CG        16.5440   -5.5700   12.9820 C.3    72  ARG72       0.0489
     99  CD        17.5630   -6.6940   13.0940 C.3    72  ARG72       0.2205
    100  NE        18.9320   -6.2130   12.8970 N.pl3  72  ARG72      -0.0865
    101  CZ        19.6660   -5.6140   13.8320 C.cat  72  ARG72       0.5346
    102  NH1       19.1720   -5.4120   15.0460 N.pl3  72  ARG72       0.1354
    103  NH2       20.8960   -5.2090   13.5540 N.pl3  72  ARG72       0.1354
@<TRIPOS>BOND
     1    29    28    2
     2    28    27    1
     3    50    49    2
     4    49    48    1
     5    27    26    1
     6    27    30    1
     7    48    47    1
     8    48    51    1
     9    30    31    1
    10    51    52    1
    11    31    32    1
    12    37    38    1
    13    52    53   ar
    14    52    54   ar
    15     1     2    1
    16    20    21    2
    17    20    19    1
    18    32    33    1
    19    39    38    1
    20    39    40    2
    21    25    23   am
    22    55    56    1
    23    38    41    1
    24     4     3    2
    25    19    18    1
    26    19    22    1
    27     2     3    1
    28     2     5    1
    29    95    96    2
    30    95    94    1
    31    33    34    2
    32    23    22    1
    33    23    24    2
    34    61    59    1
    35    97    98    1
    36    97    94    1
    37    41    42    1
    38   100    99    1
    39   100   101    2
    40    43    42   ar
    41    43    45   ar
    42    98    99    1
    43    56    59    1
    44    56    57    1
    45    94    93    1
    46     5     7    1
    47     5     6    1
    48    42    44   ar
    49    59    60    1
    50   103   101    1
    51    35    34    1
    52    34    36    1
    53    58    57    2
    54    45    46   ar
    55   101   102    1
    56    44    46   ar
    57    10    11    2
    58    10     9    1
    59    17    16   ar
    60    17    15   ar
    61    16    14   ar
    62    15    13   ar
    63    14    13   ar
    64    91    90   ar
    65     9     8    1
    66     9    12    1
    67    13    12    1
    68    92    90   ar
    69    90    89    1
    70    62    63    1
    71    89    88    1
    72    86    87    2
    73    86    85    1
    74    88    85    1
    75    85    84    1
    76    63    66    1
    77    63    64    1
    78    65    64    2
    79    66    67    1
    80    83    82   ar
    81    83    81   ar
    82    82    80   ar
    83    81    79   ar
    84    67    69   am
    85    67    68    2
    86    80    77   ar
    87    79    77   ar
    88    79    78   ar
    89    77    75   ar
    90    78    76   ar
    91    75    76   ar
    92    75    74    1
    93    74    71    1
    94    71    72    1
    95    71    70    1
    96    72    73    2
