@<TRIPOS>MOLECULE
tmp/3oyaA00.pdb
 99 99 0 0 0
SMALL
GASTEIGER

@<TRIPOS>ATOM
      1  N        -35.7410   32.3730  -10.3050 N.3   121  ASP121     -0.1225
      2  CA       -35.4040   32.0460  -11.6850 C.3   121  ASP121      0.1805
      3  C        -33.8880   31.9580  -11.8440 C.2   121  ASP121      0.2597
      4  O        -33.1480   32.4950  -11.0200 O.2   121  ASP121     -0.2718
      5  CB       -35.9780   33.1010  -12.6310 C.3   121  ASP121      0.1424
      6  CG       -35.8330   32.7170  -14.0730 C.2   121  ASP121      0.3668
      7  OD1      -35.7260   31.5120  -14.3700 O.co2 121  ASP121     -0.2456
      8  OD2      -35.8200   33.6180  -14.9240 O.co2 121  ASP121     -0.2456
      9  N        -33.4360   31.2630  -12.8820 N.am  122  TYR122     -0.1976
     10  CA       -32.0090   31.2430  -13.2110 C.3   122  TYR122      0.1639
     11  C        -31.6850   32.1580  -14.3630 C.2   122  TYR122      0.2290
     12  O        -32.5200   32.3710  -15.2540 O.2   122  TYR122     -0.2864
     13  CB       -31.4980   29.8400  -13.5280 C.3   122  TYR122      0.0560
     14  CG       -31.1080   29.0720  -12.2920 C.ar  122  TYR122     -0.0198
     15  CD1      -31.9860   28.1410  -11.7140 C.ar  122  TYR122     -0.0009
     16  CD2      -29.8680   29.2730  -11.6910 C.ar  122  TYR122     -0.0009
     17  CE1      -31.6470   27.4280  -10.5760 C.ar  122  TYR122      0.0417
     18  CE2      -29.5110   28.5540  -10.5440 C.ar  122  TYR122      0.0417
     19  CZ       -30.4190   27.6440   -9.9950 C.ar  122  TYR122      0.1957
     20  OH       -30.0880   26.9740   -8.8570 O.3   122  TYR122     -0.2866
     21  N        -40.9200   29.3460  -12.6940 N.3   178  ASP178     -0.1225
     22  CA       -41.2830   28.8170  -14.0100 C.3   178  ASP178      0.1805
     23  C        -41.0740   27.3070  -14.0020 C.2   178  ASP178      0.2598
     24  O        -40.7740   26.7370  -12.9500 O.2   178  ASP178     -0.2718
     25  CB       -40.4430   29.4780  -15.1170 C.3   178  ASP178      0.1424
     26  CG       -38.9360   29.1450  -15.0300 C.2   178  ASP178      0.3668
     27  OD1      -38.1180   30.0190  -15.4170 O.co2 178  ASP178     -0.2456
     28  OD2      -38.5590   28.0330  -14.5930 O.co2 178  ASP178     -0.2456
     29  N        -41.1580   26.6590  -15.1570 N.am  179  GLN179     -0.1965
     30  CA       -41.0770   25.1980  -15.1470 C.3   179  GLN179      0.1733
     31  C        -39.7210   24.5450  -15.3510 C.2   179  GLN179      0.2616
     32  O        -39.6200   23.4150  -15.8130 O.2   179  GLN179     -0.2715
     33  CB       -42.2110   24.5710  -15.9530 C.3   179  GLN179      0.0408
     34  CG       -43.5140   24.7890  -15.1860 C.3   179  GLN179      0.0908
     35  CD       -44.6990   24.1060  -15.7840 C.2   179  GLN179      0.2608
     36  OE1      -44.5890   22.9910  -16.2970 O.2   179  GLN179     -0.2717
     37  NE2      -45.8640   24.7680  -15.7260 N.am  179  GLN179     -0.0878
     38  N        -38.6790   25.2390  -14.9320 N.am  180  GLY180     -0.1955
     39  CA       -37.3160   24.7040  -15.0260 C.3   180  GLY180      0.1869
     40  C        -37.1370   23.3590  -14.3320 C.2   180  GLY180      0.2309
     41  O        -37.7820   23.0730  -13.3030 O.2   180  GLY180     -0.2863
     42  N        -46.5190   26.9770  -18.8520 N.3   204  PRO204     -0.2102
     43  CA       -45.2360   26.6980  -19.5060 C.3   204  PRO204      0.1504
     44  C        -44.9740   27.6380  -20.6760 C.2   204  PRO204      0.2576
     45  O        -45.9240   28.1480  -21.2910 O.2   204  PRO204     -0.2718
     46  CB       -45.3790   25.2490  -19.9670 C.3   204  PRO204      0.0282
     47  CG       -46.8240   24.9980  -20.0280 C.3   204  PRO204      0.0208
     48  CD       -47.5240   25.9290  -19.1040 C.3   204  PRO204      0.0893
     49  N        -43.6870   27.8650  -20.9560 N.am  205  TYR205     -0.1963
     50  CA       -43.2370   28.7700  -22.0240 C.3   205  TYR205      0.1771
     51  C        -43.8940   30.1650  -21.9740 C.2   205  TYR205      0.2620
     52  O        -44.4010   30.6720  -22.9840 O.2   205  TYR205     -0.2715
     53  CB       -43.4110   28.1070  -23.4010 C.3   205  TYR205      0.0574
     54  CG       -42.4430   26.9670  -23.6080 C.ar  205  TYR205     -0.0198
     55  CD1      -41.1830   27.1870  -24.1930 C.ar  205  TYR205     -0.0009
     56  CD2      -42.7640   25.6770  -23.1930 C.ar  205  TYR205     -0.0009
     57  CE1      -40.2590   26.1270  -24.3680 C.ar  205  TYR205      0.0417
     58  CE2      -41.8610   24.6150  -23.3610 C.ar  205  TYR205      0.0417
     59  CZ       -40.6140   24.8400  -23.9460 C.ar  205  TYR205      0.1957
     60  OH       -39.7410   23.7740  -24.1050 O.3   205  TYR205     -0.2866
     61  N        -43.8790   30.7720  -20.7890 N.am  206  HIS206     -0.1960
     62  CA       -44.4780   32.0860  -20.5740 C.3   206  HIS206      0.1772
     63  C        -43.7160   32.8660  -19.4980 C.2   206  HIS206      0.2462
     64  O        -44.2430   33.0950  -18.4010 O.2   206  HIS206     -0.2730
     65  CB       -45.9470   31.9590  -20.1950 C.3   206  HIS206      0.0785
     66  CG       -46.7240   33.2080  -20.4220 C.ar  206  HIS206      0.0821
     67  ND1      -47.2320   33.9680  -19.3930 N.ar  206  HIS206     -0.2267
     68  CD2      -47.0520   33.8530  -21.5640 C.ar  206  HIS206      0.1154
     69  CE1      -47.8700   35.0110  -19.8920 C.ar  206  HIS206      0.1986
     70  NE2      -47.7820   34.9590  -21.2090 N.ar  206  HIS206     -0.2212
     71  N        -42.4800   33.2900  -19.8150 N.am  207  PRO207     -0.2716
     72  CA       -41.6500   33.9280  -18.7900 C.3   207  PRO207      0.1536
     73  C        -42.2430   35.2070  -18.2020 C.2   207  PRO207      0.2598
     74  O        -41.8440   35.5990  -17.1120 O.2   207  PRO207     -0.2715
     75  CB       -40.3360   34.2010  -19.5180 C.3   207  PRO207      0.0310
     76  CG       -40.3500   33.2610  -20.7070 C.3   207  PRO207      0.0237
     77  CD       -41.7760   33.1670  -21.1040 C.3   207  PRO207      0.0939
     78  N        -43.2040   35.8240  -18.8830 N.am  208  GLN208     -0.1978
     79  CA       -43.9000   36.9740  -18.3400 C.3   208  GLN208      0.1601
     80  C        -44.5260   36.6680  -16.9850 C.2   208  GLN208      0.2287
     81  O        -44.7290   37.5760  -16.1480 O.2   208  GLN208     -0.2864
     82  CB       -45.0360   37.3830  -19.2470 C.3   208  GLN208      0.0394
     83  CG       -44.6070   37.8330  -20.5890 C.3   208  GLN208      0.0908
     84  CD       -44.5710   36.6980  -21.5880 C.2   208  GLN208      0.2608
     85  OE1      -43.8030   35.7250  -21.4520 O.2   208  GLN208     -0.2717
     86  NE2      -45.4140   36.8200  -22.6180 N.am  208  GLN208     -0.0878
     87  N        -42.5020   37.6030  -14.4380 N.3   211  GLY211     -0.1225
     88  CA       -42.0730   38.9730  -14.7220 C.3   211  GLY211      0.1811
     89  C        -41.3410   39.7300  -13.6030 C.2   211  GLY211      0.2280
     90  O        -40.3560   40.4310  -13.8640 O.2   211  GLY211     -0.2866
     91  N        -37.9460   38.1090  -13.7630 N.3   214  GLU214     -0.1245
     92  CA       -37.3320   38.2580  -15.0930 C.3   214  GLU214      0.1567
     93  C        -36.8010   39.6560  -15.2330 C.2   214  GLU214      0.2260
     94  O        -35.6490   39.8370  -15.6240 O.2   214  GLU214     -0.2867
     95  CB       -38.3080   37.9530  -16.2190 C.3   214  GLU214      0.0388
     96  CG       -38.7670   36.5000  -16.2400 C.3   214  GLU214      0.1160
     97  CD       -37.6390   35.5260  -16.4850 C.2   214  GLU214      0.3649
     98  OE1      -36.4450   35.9270  -16.5450 O.co2 214  GLU214     -0.2457
     99  OE2      -37.9300   34.3280  -16.6080 O.co2 214  GLU214     -0.2457
@<TRIPOS>BOND
     1    57    55   ar
     2    57    59   ar
     3    55    54   ar
     4    60    59    1
     5    59    58   ar
     6    54    53    1
     7    54    56   ar
     8    53    50    1
     9    58    56   ar
    10    52    51    2
    11    86    84   am
    12    50    51    1
    13    50    49    1
    14    51    61   am
    15    84    85    2
    16    84    83    1
    17    68    70   ar
    18    68    66   ar
    19    45    44    2
    20    70    69   ar
    21    77    76    1
    22    77    71    1
    23    49    44   am
    24    61    62    1
    25    76    75    1
    26    44    43    1
    27    83    82    1
    28    62    65    1
    29    62    63    1
    30    66    65    1
    31    66    67   ar
    32    47    46    1
    33    47    48    1
    34    46    43    1
    35    69    67   ar
    36    71    63   am
    37    71    72    1
    38    75    72    1
    39    43    42    1
    40    63    64    2
    41    82    79    1
    42    48    42    1
    43    78    79    1
    44    78    73   am
    45    72    73    1
    46    79    80    1
    47    73    74    2
    48    80    81    2
    49    99    97   ar
    50    98    97   ar
    51    97    96    1
    52    36    35    2
    53    96    95    1
    54    95    92    1
    55    33    34    1
    56    33    30    1
    57    32    31    2
    58    35    37   am
    59    35    34    1
    60    94    93    2
    61    27    26   ar
    62    31    30    1
    63    31    38   am
    64    12    11    2
    65    93    92    1
    66    29    30    1
    67    29    23   am
    68    25    26    1
    69    25    22    1
    70    92    91    1
    71    26    28   ar
    72    39    38    1
    73    39    40    1
    74     8     6   ar
    75    88    87    1
    76    88    89    1
    77     7     6   ar
    78    11    10    1
    79    40    41    2
    80     6     5    1
    81    22    23    1
    82    22    21    1
    83    23    24    2
    84    90    89    2
    85    13    10    1
    86    13    14    1
    87    10     9    1
    88     9     3   am
    89     5     2    1
    90    14    15   ar
    91    14    16   ar
    92     3     2    1
    93     3     4    2
    94    15    17   ar
    95    16    18   ar
    96     2     1    1
    97    17    19   ar
    98    18    19   ar
    99    19    20    1
