@<TRIPOS>MOLECULE
tmp/3oydA00.pdb
 100 98 0 0 0
SMALL
GASTEIGER

@<TRIPOS>ATOM
      1  N        -35.3130   32.2420  -10.2450 N.3   121  ASP121     -0.1225
      2  CA       -34.9890   31.8760  -11.6030 C.3   121  ASP121      0.1805
      3  C        -33.5020   31.7470  -11.7060 C.2   121  ASP121      0.2597
      4  O        -32.7880   32.1520  -10.8000 O.2   121  ASP121     -0.2718
      5  CB       -35.4740   32.9560  -12.5670 C.3   121  ASP121      0.1424
      6  CG       -35.3300   32.5560  -14.0030 C.2   121  ASP121      0.3668
      7  OD1      -35.2370   31.3470  -14.3070 O.co2 121  ASP121     -0.2456
      8  OD2      -35.3230   33.4590  -14.8470 O.co2 121  ASP121     -0.2456
      9  N        -33.0400   31.1480  -12.7930 N.am  122  TYR122     -0.1976
     10  CA       -31.6260   31.1170  -13.0900 C.3   122  TYR122      0.1639
     11  C        -31.3000   32.0320  -14.2500 C.2   122  TYR122      0.2290
     12  O        -32.0820   32.1670  -15.1980 O.2   122  TYR122     -0.2864
     13  CB       -31.1800   29.6990  -13.4180 C.3   122  TYR122      0.0560
     14  CG       -30.7610   28.9200  -12.2040 C.ar  122  TYR122     -0.0198
     15  CD1      -31.5930   27.9300  -11.6580 C.ar  122  TYR122     -0.0009
     16  CD2      -29.5380   29.1710  -11.5880 C.ar  122  TYR122     -0.0009
     17  CE1      -31.2060   27.1990  -10.5200 C.ar  122  TYR122      0.0417
     18  CE2      -29.1390   28.4540  -10.4510 C.ar  122  TYR122      0.0417
     19  CZ       -29.9760   27.4770   -9.9290 C.ar  122  TYR122      0.1957
     20  OH       -29.5850   26.8070   -8.8040 O.3   122  TYR122     -0.2866
     21  N        -40.5220   29.1980  -12.6570 N.3   178  ASP178     -0.1225
     22  CA       -40.8590   28.6300  -13.9700 C.3   178  ASP178      0.1805
     23  C        -40.6010   27.1300  -13.9150 C.2   178  ASP178      0.2598
     24  O        -40.1950   26.6100  -12.8640 O.2   178  ASP178     -0.2718
     25  CB       -40.0350   29.2650  -15.1110 C.3   178  ASP178      0.1424
     26  CG       -38.5230   29.0460  -14.9730 C.2   178  ASP178      0.3668
     27  OD1      -37.7520   29.9570  -15.3720 O.co2 178  ASP178     -0.2456
     28  OD2      -38.0980   27.9790  -14.4730 O.co2 178  ASP178     -0.2456
     29  N        -40.7790   26.4530  -15.0540 N.am  179  GLN179     -0.1965
     30  CA       -40.6560   25.0130  -15.0840 C.3   179  GLN179      0.1733
     31  C        -39.2850   24.5270  -15.4370 C.2   179  GLN179      0.2616
     32  O        -39.1400   23.4360  -15.9590 O.2   179  GLN179     -0.2715
     33  CB       -41.7730   24.3640  -15.9030 C.3   179  GLN179      0.0408
     34  CG       -43.1270   24.5830  -15.1860 C.3   179  GLN179      0.0908
     35  CD       -44.2960   23.9060  -15.8590 C.2   179  GLN179      0.2608
     36  OE1      -44.1500   22.8570  -16.4940 O.2   179  GLN179     -0.2717
     37  NE2      -45.4760   24.5030  -15.7290 N.am  179  GLN179     -0.0878
     38  N        -38.2660   25.3060  -15.0980 N.am  180  GLY180     -0.1955
     39  CA       -36.8860   24.8160  -15.1680 C.3   180  GLY180      0.1869
     40  C        -36.6760   23.4770  -14.4500 C.2   180  GLY180      0.2309
     41  O        -37.3290   23.1820  -13.4310 O.2   180  GLY180     -0.2863
     42  N        -43.4660   27.5540  -20.7930 N.3   205  TYR205     -0.1227
     43  CA       -42.9640   28.4130  -21.8630 C.3   205  TYR205      0.1736
     44  C        -43.6440   29.7940  -21.8560 C.2   205  TYR205      0.2595
     45  O        -44.1600   30.2710  -22.8830 O.2   205  TYR205     -0.2718
     46  CB       -43.1240   27.7090  -23.2180 C.3   205  TYR205      0.0548
     47  CG       -42.6150   26.2890  -23.2010 C.ar  205  TYR205     -0.0200
     48  CD1      -41.2520   26.0300  -23.2740 C.ar  205  TYR205     -0.0009
     49  CD2      -43.4960   25.2050  -23.0890 C.ar  205  TYR205     -0.0009
     50  CE1      -40.7470   24.7400  -23.2380 C.ar  205  TYR205      0.0417
     51  CE2      -43.0120   23.8730  -23.0540 C.ar  205  TYR205      0.0417
     52  CZ       -41.6180   23.6590  -23.1290 C.ar  205  TYR205      0.1957
     53  OH       -41.0830   22.3840  -23.0990 O.3   205  TYR205     -0.2866
     54  N        -43.6720   30.4190  -20.6870 N.am  206  HIS206     -0.1962
     55  CA       -44.3080   31.7150  -20.5280 C.3   206  HIS206      0.1772
     56  C        -43.5650   32.5410  -19.4620 C.2   206  HIS206      0.2462
     57  O        -44.0930   32.7660  -18.3700 O.2   206  HIS206     -0.2730
     58  CB       -45.7870   31.5650  -20.1900 C.3   206  HIS206      0.0785
     59  CG       -46.5670   32.8240  -20.3750 C.ar  206  HIS206      0.0821
     60  ND1      -46.9720   33.6170  -19.3200 N.ar  206  HIS206     -0.2267
     61  CD2      -46.9980   33.4470  -21.5000 C.ar  206  HIS206      0.1154
     62  CE1      -47.6500   34.6530  -19.7840 C.ar  206  HIS206      0.1986
     63  NE2      -47.6750   34.5750  -21.1060 N.ar  206  HIS206     -0.2212
     64  N        -42.3450   33.0130  -19.7980 N.am  207  PRO207     -0.2716
     65  CA       -41.4740   33.7280  -18.8730 C.3   207  PRO207      0.1536
     66  C        -42.0920   35.0030  -18.2910 C.2   207  PRO207      0.2598
     67  O        -41.6830   35.4220  -17.2220 O.2   207  PRO207     -0.2715
     68  CB       -40.2430   34.0680  -19.7170 C.3   207  PRO207      0.0310
     69  CG       -40.4380   33.4580  -21.0280 C.3   207  PRO207      0.0237
     70  CD       -41.8540   33.0770  -21.1820 C.3   207  PRO207      0.0939
     71  N        -43.0750   35.5990  -18.9530 N.am  208  GLN208     -0.1978
     72  CA       -43.7700   36.7380  -18.3740 C.3   208  GLN208      0.1601
     73  C        -44.3410   36.4200  -16.9820 C.2   208  GLN208      0.2287
     74  O        -44.4950   37.3170  -16.1320 O.2   208  GLN208     -0.2864
     75  CB       -44.8860   37.2210  -19.2870 C.3   208  GLN208      0.0394
     76  CG       -44.4270   37.6500  -20.6830 C.3   208  GLN208      0.0908
     77  CD       -44.4590   36.5010  -21.6990 C.2   208  GLN208      0.2608
     78  OE1      -43.7800   35.4760  -21.5460 O.2   208  GLN208     -0.2717
     79  NE2      -45.2750   36.6680  -22.7340 N.am  208  GLN208     -0.0878
     80  N        -42.2370   37.2760  -14.5010 N.3   211  GLY211     -0.1225
     81  CA       -41.8510   38.6760  -14.7280 C.3   211  GLY211      0.1811
     82  C        -41.1180   39.4250  -13.6130 C.2   211  GLY211      0.2280
     83  O        -40.1840   40.1690  -13.8950 O.2   211  GLY211     -0.2866
     84  N        -37.5840   37.9120  -13.6310 N.3   214  GLU214     -0.1245
     85  CA       -37.0330   38.0820  -14.9790 C.3   214  GLU214      0.1567
     86  C        -36.5830   39.5220  -15.1010 C.2   214  GLU214      0.2260
     87  O        -35.4720   39.7850  -15.5740 O.2   214  GLU214     -0.2867
     88  CB       -38.0750   37.7970  -16.0690 C.3   214  GLU214      0.0388
     89  CG       -38.4770   36.3230  -16.2830 C.3   214  GLU214      0.1160
     90  CD       -37.2900   35.4060  -16.4420 C.2   214  GLU214      0.3649
     91  OE1      -36.1230   35.8910  -16.4000 O.co2 214  GLU214     -0.2457
     92  OE2      -37.5030   34.1790  -16.5970 O.co2 214  GLU214     -0.2457
     93  N        -33.4310   40.1430  -13.3780 N.3   217  ASN217     -0.1240
     94  CA       -32.3650   39.6090  -14.2150 C.3   217  ASN217      0.1653
     95  C        -31.8000   40.6660  -15.1790 C.2   217  ASN217      0.2266
     96  O        -30.5740   40.8410  -15.2940 O.2   217  ASN217     -0.2867
     97  CB       -32.8420   38.3770  -14.9820 C.3   217  ASN217      0.1155
     98  CG       -33.1660   37.2280  -14.0730 C.2   217  ASN217      0.2627
     99  OD1      -32.8760   37.2840  -12.8950 O.2   217  ASN217     -0.2716
    100  ND2      -33.7620   36.1750  -14.6090 N.am  217  ASN217     -0.0877
@<TRIPOS>BOND
     1    48    50   ar
     2    48    47   ar
     3    50    52   ar
     4    46    47    1
     5    46    43    1
     6    47    49   ar
     7    52    53    1
     8    52    51   ar
     9    49    51   ar
    10    45    44    2
    11    79    77   am
    12    43    44    1
    13    43    42    1
    14    44    54   am
    15    77    78    2
    16    77    76    1
    17    61    63   ar
    18    61    59   ar
    19    70    69    1
    20    70    64    1
    21    63    62   ar
    22    69    68    1
    23    54    55    1
    24    76    75    1
    25    55    58    1
    26    55    56    1
    27    59    58    1
    28    59    60   ar
    29    64    56   am
    30    64    65    1
    31    62    60   ar
    32    68    65    1
    33    56    57    2
    34    75    72    1
    35    71    72    1
    36    71    66   am
    37    65    66    1
    38    72    73    1
    39    66    67    2
    40    73    74    2
    41    92    90   ar
    42    36    35    2
    43    90    91   ar
    44    90    89    1
    45    89    88    1
    46    88    85    1
    47    32    31    2
    48    33    34    1
    49    33    30    1
    50    35    37   am
    51    35    34    1
    52    87    86    2
    53    31    38   am
    54    31    30    1
    55    27    26   ar
    56    96    95    2
    57    12    11    2
    58    95    94    1
    59    39    38    1
    60    39    40    1
    61    25    26    1
    62    25    22    1
    63    86    85    1
    64    30    29    1
    65    29    23   am
    66    97    94    1
    67    97    98    1
    68    85    84    1
    69    26    28   ar
    70     8     6   ar
    71    81    80    1
    72    81    82    1
    73   100    98   am
    74    40    41    2
    75     7     6   ar
    76    11    10    1
    77    94    93    1
    78    98    99    2
    79     6     5    1
    80    22    23    1
    81    22    21    1
    82    23    24    2
    83    83    82    2
    84    13    10    1
    85    13    14    1
    86    10     9    1
    87     9     3   am
    88     5     2    1
    89    14    15   ar
    90    14    16   ar
    91     3     2    1
    92     3     4    2
    93    15    17   ar
    94     2     1    1
    95    16    18   ar
    96    17    19   ar
    97    18    19   ar
    98    19    20    1
