@<TRIPOS>MOLECULE
tmp/3oyeA00.pdb
 95 91 0 0 0
SMALL
GASTEIGER

@<TRIPOS>ATOM
      1  N        -36.4430   32.7260  -10.4340 N.3   121  ASP121     -0.1225
      2  CA       -36.0770   32.3870  -11.7830 C.3   121  ASP121      0.1805
      3  C        -34.5620   32.2650  -11.8920 C.2   121  ASP121      0.2597
      4  O        -33.8170   32.7880  -11.0480 O.2   121  ASP121     -0.2718
      5  CB       -36.5290   33.4960  -12.7090 C.3   121  ASP121      0.1424
      6  CG       -36.5220   33.0870  -14.1620 C.2   121  ASP121      0.3668
      7  OD1      -36.3840   31.8820  -14.4610 O.co2 121  ASP121     -0.2456
      8  OD2      -36.6600   33.9810  -15.0190 O.co2 121  ASP121     -0.2456
      9  N        -34.1140   31.5570  -12.9300 N.am  122  TYR122     -0.1976
     10  CA       -32.7140   31.5350  -13.3030 C.3   122  TYR122      0.1639
     11  C        -32.4400   32.4380  -14.4750 C.2   122  TYR122      0.2290
     12  O        -33.2880   32.6230  -15.3610 O.2   122  TYR122     -0.2864
     13  CB       -32.2770   30.1320  -13.6510 C.3   122  TYR122      0.0560
     14  CG       -31.9200   29.3540  -12.4310 C.ar  122  TYR122     -0.0198
     15  CD1      -32.7940   28.3930  -11.9080 C.ar  122  TYR122     -0.0009
     16  CD2      -30.7250   29.6040  -11.7660 C.ar  122  TYR122     -0.0009
     17  CE1      -32.4810   27.6910  -10.7750 C.ar  122  TYR122      0.0417
     18  CE2      -30.3910   28.9020  -10.6150 C.ar  122  TYR122      0.0417
     19  CZ       -31.2750   27.9460  -10.1230 C.ar  122  TYR122      0.1957
     20  OH       -30.9320   27.2560   -8.9730 O.3   122  TYR122     -0.2866
     21  N        -41.6280   29.8000  -12.7740 N.3   178  ASP178     -0.1225
     22  CA       -42.0110   29.2060  -14.0400 C.3   178  ASP178      0.1805
     23  C        -41.8190   27.6980  -13.8760 C.2   178  ASP178      0.2598
     24  O        -41.5410   27.2290  -12.7760 O.2   178  ASP178     -0.2718
     25  CB       -41.2220   29.7800  -15.2380 C.3   178  ASP178      0.1424
     26  CG       -39.6950   29.5660  -15.1370 C.2   178  ASP178      0.3668
     27  OD1      -38.9390   30.4700  -15.5690 O.co2 178  ASP178     -0.2456
     28  OD2      -39.2380   28.5130  -14.6370 O.co2 178  ASP178     -0.2456
     29  N        -41.9770   26.9370  -14.9490 N.am  179  GLN179     -0.1965
     30  CA       -41.9760   25.4920  -14.8160 C.3   179  GLN179      0.1733
     31  C        -40.6560   24.8790  -15.1930 C.2   179  GLN179      0.2617
     32  O        -40.6300   23.7750  -15.7160 O.2   179  GLN179     -0.2715
     33  CB       -43.1160   24.8630  -15.6250 C.3   179  GLN179      0.0408
     34  CG       -44.5080   25.2710  -15.1130 C.3   179  GLN179      0.0908
     35  CD       -45.6400   24.5820  -15.8360 C.2   179  GLN179      0.2608
     36  OE1      -45.4970   23.4550  -16.3170 O.2   179  GLN179     -0.2717
     37  NE2      -46.7820   25.2610  -15.9250 N.am  179  GLN179     -0.0878
     38  N        -39.5590   25.5860  -14.9230 N.am  180  GLY180     -0.1940
     39  CA       -38.2230   25.0420  -15.1500 C.3   180  GLY180      0.2014
     40  C        -38.0260   23.7560  -14.3630 C.2   180  GLY180      0.2638
     41  O        -38.5720   23.6050  -13.2660 O.2   180  GLY180     -0.2714
     42  N        -37.2540   22.8230  -14.9170 N.am  181  ALA181     -0.1977
     43  CA       -36.9590   21.5570  -14.2340 C.3   181  ALA181      0.1597
     44  C        -36.6760   21.7390  -12.7330 C.2   181  ALA181      0.2287
     45  O        -37.2580   21.0240  -11.9110 O.2   181  ALA181     -0.2864
     46  CB       -35.8190   20.8210  -14.9130 C.3   181  ALA181      0.0319
     47  N        -44.2430   28.5610  -20.4780 N.3   205  TYR205     -0.1241
     48  CA       -43.7160   29.4350  -21.5340 C.3   205  TYR205      0.1605
     49  C        -44.4350   30.7710  -21.6170 C.2   205  TYR205      0.2264
     50  O        -44.9130   31.1590  -22.6880 O.2   205  TYR205     -0.2867
     51  CB       -43.7430   28.7170  -22.8910 C.3   205  TYR205      0.0534
     52  CG       -42.6620   27.6730  -22.9890 C.ar  205  TYR205     -0.0201
     53  CD1      -41.3820   28.0050  -23.4860 C.ar  205  TYR205     -0.0009
     54  CD2      -42.8960   26.3570  -22.5640 C.ar  205  TYR205     -0.0009
     55  CE1      -40.3680   27.0530  -23.5720 C.ar  205  TYR205      0.0417
     56  CE2      -41.8880   25.3780  -22.6450 C.ar  205  TYR205      0.0417
     57  CZ       -40.6270   25.7330  -23.1430 C.ar  205  TYR205      0.1957
     58  OH       -39.6290   24.7760  -23.2210 O.3   205  TYR205     -0.2866
     59  N        -43.3440   33.9480  -19.4380 N.3   207  PRO207     -0.2102
     60  CA       -42.5600   34.5640  -18.3830 C.3   207  PRO207      0.1504
     61  C        -43.1030   35.9020  -17.8830 C.2   207  PRO207      0.2575
     62  O        -42.7000   36.3400  -16.8040 O.2   207  PRO207     -0.2718
     63  CB       -41.1790   34.6890  -19.0160 C.3   207  PRO207      0.0282
     64  CG       -41.4460   34.6810  -20.4560 C.3   207  PRO207      0.0208
     65  CD       -42.5480   33.7480  -20.6550 C.3   207  PRO207      0.0893
     66  N        -44.0200   36.5180  -18.6310 N.am  208  GLN208     -0.1980
     67  CA       -44.7910   37.6540  -18.1190 C.3   208  GLN208      0.1601
     68  C        -45.3760   37.3400  -16.7490 C.2   208  GLN208      0.2287
     69  O        -45.4670   38.2150  -15.8850 O.2   208  GLN208     -0.2864
     70  CB       -45.9770   37.9840  -19.0300 C.3   208  GLN208      0.0394
     71  CG       -45.6250   38.5780  -20.3480 C.3   208  GLN208      0.0908
     72  CD       -45.5120   37.5350  -21.4200 C.2   208  GLN208      0.2608
     73  OE1      -44.8510   36.4840  -21.2600 O.2   208  GLN208     -0.2717
     74  NE2      -46.1750   37.8060  -22.5390 N.am  208  GLN208     -0.0878
     75  N        -43.3670   38.0940  -14.0790 N.3   211  GLY211     -0.1225
     76  CA       -42.8820   39.4100  -14.4800 C.3   211  GLY211      0.1811
     77  C        -42.0690   40.2190  -13.4710 C.2   211  GLY211      0.2280
     78  O        -41.1750   40.9790  -13.8730 O.2   211  GLY211     -0.2866
     79  N        -38.6520   38.6020  -13.6190 N.3   214  GLU214     -0.1245
     80  CA       -38.1020   38.7300  -14.9650 C.3   214  GLU214      0.1567
     81  C        -37.5620   40.1470  -15.1380 C.2   214  GLU214      0.2260
     82  O        -36.4020   40.3300  -15.5380 O.2   214  GLU214     -0.2867
     83  CB       -39.1160   38.3800  -16.0550 C.3   214  GLU214      0.0388
     84  CG       -39.5270   36.9150  -16.1040 C.3   214  GLU214      0.1160
     85  CD       -38.3990   35.9650  -16.4470 C.2   214  GLU214      0.3649
     86  OE1      -37.2060   36.3840  -16.4780 O.co2 214  GLU214     -0.2457
     87  OE2      -38.7000   34.7680  -16.6690 O.co2 214  GLU214     -0.2457
     88  N        -34.3860   40.6640  -13.5030 N.3   217  ASN217     -0.1240
     89  CA       -33.2980   40.0760  -14.2730 C.3   217  ASN217      0.1653
     90  C        -32.6680   41.1210  -15.1950 C.2   217  ASN217      0.2266
     91  O        -31.4400   41.3280  -15.2040 O.2   217  ASN217     -0.2867
     92  CB       -33.8130   38.9330  -15.1270 C.3   217  ASN217      0.1155
     93  CG       -34.1550   37.6900  -14.3140 C.2   217  ASN217      0.2627
     94  OD1      -33.7750   37.5860  -13.1430 O.2   217  ASN217     -0.2716
     95  ND2      -34.8690   36.7290  -14.9430 N.am  217  ASN217     -0.0877
@<TRIPOS>BOND
     1    55    53   ar
     2    55    57   ar
     3    53    52   ar
     4    58    57    1
     5    57    56   ar
     6    52    51    1
     7    52    54   ar
     8    51    48    1
     9    50    49    2
    10    56    54   ar
    11    74    72   am
    12    49    48    1
    13    48    47    1
    14    72    73    2
    15    72    71    1
    16    65    64    1
    17    65    59    1
    18    64    63    1
    19    71    70    1
    20    59    60    1
    21    70    67    1
    22    63    60    1
    23    66    67    1
    24    66    61   am
    25    60    61    1
    26    67    68    1
    27    61    62    2
    28    68    69    2
    29    87    85   ar
    30    86    85   ar
    31    85    84    1
    32    36    35    2
    33    84    83    1
    34    83    80    1
    35    37    35   am
    36    35    34    1
    37    32    31    2
    38    33    34    1
    39    33    30    1
    40    27    26   ar
    41    82    81    2
    42    12    11    2
    43    25    26    1
    44    25    22    1
    45    91    90    2
    46    90    89    1
    47    31    38   am
    48    31    30    1
    49    39    38    1
    50    39    40    1
    51    81    80    1
    52    26    28   ar
    53    92    93    1
    54    92    89    1
    55     8     6   ar
    56    80    79    1
    57    29    30    1
    58    29    23   am
    59    95    93   am
    60    42    40   am
    61    42    43    1
    62    46    43    1
    63    76    75    1
    64    76    77    1
    65    11    10    1
    66     7     6   ar
    67    40    41    2
    68    93    94    2
    69    89    88    1
    70    43    44    1
    71     6     5    1
    72    22    23    1
    73    22    21    1
    74    23    24    2
    75    78    77    2
    76    13    10    1
    77    13    14    1
    78    10     9    1
    79     9     3   am
    80    44    45    2
    81     5     2    1
    82    14    15   ar
    83    14    16   ar
    84    15    17   ar
    85     3     2    1
    86     3     4    2
    87     2     1    1
    88    16    18   ar
    89    17    19   ar
    90    18    19   ar
    91    19    20    1
