@<TRIPOS>MOLECULE
tmp/3oyfA00.pdb
 116 113 0 0 0
SMALL
GASTEIGER

@<TRIPOS>ATOM
      1  N        -35.3990   32.2590  -10.2100 N.3   121  ASP121     -0.1225
      2  CA       -35.0820   31.9110  -11.5730 C.3   121  ASP121      0.1805
      3  C        -33.5790   31.7590  -11.7150 C.2   121  ASP121      0.2597
      4  O        -32.8200   32.2140  -10.8490 O.2   121  ASP121     -0.2718
      5  CB       -35.5920   33.0020  -12.5250 C.3   121  ASP121      0.1424
      6  CG       -35.4640   32.6070  -13.9640 C.2   121  ASP121      0.3668
      7  OD1      -35.3770   31.3950  -14.2540 O.co2 121  ASP121     -0.2456
      8  OD2      -35.4520   33.5020  -14.8230 O.co2 121  ASP121     -0.2456
      9  N        -33.1570   31.1110  -12.7930 N.am  122  TYR122     -0.1976
     10  CA       -31.7390   31.0810  -13.1220 C.3   122  TYR122      0.1639
     11  C        -31.4040   31.9920  -14.2710 C.2   122  TYR122      0.2290
     12  O        -32.1820   32.1500  -15.2150 O.2   122  TYR122     -0.2864
     13  CB       -31.2630   29.6770  -13.4500 C.3   122  TYR122      0.0560
     14  CG       -30.8300   28.9150  -12.2350 C.ar  122  TYR122     -0.0198
     15  CD1      -31.6630   27.9480  -11.6590 C.ar  122  TYR122     -0.0009
     16  CD2      -29.5860   29.1550  -11.6500 C.ar  122  TYR122     -0.0009
     17  CE1      -31.2680   27.2260  -10.5280 C.ar  122  TYR122      0.0417
     18  CE2      -29.1720   28.4390  -10.5230 C.ar  122  TYR122      0.0417
     19  CZ       -30.0250   27.4870   -9.9620 C.ar  122  TYR122      0.1957
     20  OH       -29.6180   26.8050   -8.8480 O.3   122  TYR122     -0.2866
     21  N        -40.5750   29.1800  -12.6020 N.3   178  ASP178     -0.1225
     22  CA       -40.9260   28.6190  -13.9110 C.3   178  ASP178      0.1805
     23  C        -40.6800   27.1060  -13.8600 C.2   178  ASP178      0.2598
     24  O        -40.3230   26.5830  -12.8090 O.2   178  ASP178     -0.2718
     25  CB       -40.1250   29.2750  -15.0660 C.3   178  ASP178      0.1424
     26  CG       -38.6160   29.0430  -14.9710 C.2   178  ASP178      0.3668
     27  OD1      -37.8480   29.9630  -15.3570 O.co2 178  ASP178     -0.2456
     28  OD2      -38.1830   27.9610  -14.5080 O.co2 178  ASP178     -0.2456
     29  N        -40.8170   26.4250  -15.0020 N.am  179  GLN179     -0.1965
     30  CA       -40.6960   24.9800  -15.0310 C.3   179  GLN179      0.1733
     31  C        -39.3080   24.4850  -15.3700 C.2   179  GLN179      0.2616
     32  O        -39.1430   23.3690  -15.8470 O.2   179  GLN179     -0.2715
     33  CB       -41.8210   24.3230  -15.8500 C.3   179  GLN179      0.0408
     34  CG       -43.1710   24.5470  -15.1450 C.3   179  GLN179      0.0908
     35  CD       -44.3430   23.8460  -15.7990 C.2   179  GLN179      0.2608
     36  OE1      -44.2050   22.7500  -16.3470 O.2   179  GLN179     -0.2717
     37  NE2      -45.5200   24.4760  -15.7370 N.am  179  GLN179     -0.0878
     38  N        -38.2980   25.2870  -15.0570 N.am  180  GLY180     -0.1955
     39  CA       -36.8980   24.8070  -15.1240 C.3   180  GLY180      0.1869
     40  C        -36.7000   23.4570  -14.4140 C.2   180  GLY180      0.2309
     41  O        -37.3970   23.1430  -13.4280 O.2   180  GLY180     -0.2863
     42  N        -43.4460   27.4820  -20.6680 N.3   205  TYR205     -0.1227
     43  CA       -42.9740   28.2800  -21.7920 C.3   205  TYR205      0.1736
     44  C        -43.5760   29.6950  -21.8320 C.2   205  TYR205      0.2595
     45  O        -44.0430   30.1570  -22.8860 O.2   205  TYR205     -0.2718
     46  CB       -43.2490   27.5370  -23.1080 C.3   205  TYR205      0.0548
     47  CG       -42.7440   26.1240  -23.0860 C.ar  205  TYR205     -0.0200
     48  CD1      -41.3770   25.8690  -23.0670 C.ar  205  TYR205     -0.0009
     49  CD2      -43.6220   25.0410  -23.0520 C.ar  205  TYR205     -0.0009
     50  CE1      -40.8730   24.5740  -23.0370 C.ar  205  TYR205      0.0417
     51  CE2      -43.1300   23.7080  -23.0150 C.ar  205  TYR205      0.0417
     52  CZ       -41.7450   23.5000  -23.0030 C.ar  205  TYR205      0.1957
     53  OH       -41.2000   22.2370  -22.9690 O.3   205  TYR205     -0.2866
     54  N        -43.5660   30.3670  -20.6850 N.am  206  HIS206     -0.1962
     55  CA       -44.1910   31.6740  -20.5410 C.3   206  HIS206      0.1772
     56  C        -43.4720   32.5060  -19.4660 C.2   206  HIS206      0.2462
     57  O        -44.0230   32.7470  -18.3890 O.2   206  HIS206     -0.2730
     58  CB       -45.6670   31.5310  -20.1860 C.3   206  HIS206      0.0785
     59  CG       -46.4500   32.7780  -20.4100 C.ar  206  HIS206      0.0821
     60  ND1      -46.9340   33.5540  -19.3780 N.ar  206  HIS206     -0.2267
     61  CD2      -46.8140   33.4040  -21.5540 C.ar  206  HIS206      0.1154
     62  CE1      -47.6010   34.5790  -19.8780 C.ar  206  HIS206      0.1986
     63  NE2      -47.5400   34.5110  -21.1980 N.ar  206  HIS206     -0.2212
     64  N        -42.2510   32.9730  -19.7760 N.am  207  PRO207     -0.2716
     65  CA       -41.4270   33.7120  -18.8300 C.3   207  PRO207      0.1536
     66  C        -42.0610   34.9780  -18.2550 C.2   207  PRO207      0.2598
     67  O        -41.6470   35.4020  -17.1790 O.2   207  PRO207     -0.2715
     68  CB       -40.1740   34.0470  -19.6360 C.3   207  PRO207      0.0310
     69  CG       -40.1750   33.1090  -20.7940 C.3   207  PRO207      0.0237
     70  CD       -41.6080   32.8670  -21.1000 C.3   207  PRO207      0.0939
     71  N        -43.0480   35.5730  -18.9270 N.am  208  GLN208     -0.1978
     72  CA       -43.7870   36.6980  -18.3430 C.3   208  GLN208      0.1601
     73  C        -44.3000   36.3470  -16.9400 C.2   208  GLN208      0.2287
     74  O        -44.3930   37.2210  -16.0660 O.2   208  GLN208     -0.2864
     75  CB       -45.0140   37.0700  -19.1720 C.3   208  GLN208      0.0394
     76  CG       -44.7530   37.6400  -20.5330 C.3   208  GLN208      0.0908
     77  CD       -44.6570   36.5620  -21.6130 C.2   208  GLN208      0.2608
     78  OE1      -43.8500   35.6010  -21.5300 O.2   208  GLN208     -0.2717
     79  NE2      -45.4940   36.7160  -22.6450 N.am  208  GLN208     -0.0878
     80  N        -42.3000   37.2370  -14.3400 N.3   211  GLY211     -0.1225
     81  CA       -41.9220   38.6340  -14.6300 C.3   211  GLY211      0.1811
     82  C        -41.1700   39.3880  -13.5290 C.2   211  GLY211      0.2280
     83  O        -40.2450   40.1420  -13.8210 O.2   211  GLY211     -0.2866
     84  N        -37.6130   37.8260  -13.5490 N.3   214  GLU214     -0.1245
     85  CA       -37.0600   38.0620  -14.8960 C.3   214  GLU214      0.1567
     86  C        -36.6350   39.5040  -14.9990 C.2   214  GLU214      0.2260
     87  O        -35.5170   39.8010  -15.4470 O.2   214  GLU214     -0.2867
     88  CB       -38.0900   37.7930  -15.9910 C.3   214  GLU214      0.0388
     89  CG       -38.5360   36.3300  -16.1470 C.3   214  GLU214      0.1160
     90  CD       -37.3870   35.4040  -16.4190 C.2   214  GLU214      0.3649
     91  OE1      -36.2270   35.8670  -16.4240 O.co2 214  GLU214     -0.2457
     92  OE2      -37.6140   34.2000  -16.6030 O.co2 214  GLU214     -0.2457
     93  N        -33.4180   40.0780  -13.3300 N.3   217  ASN217     -0.1240
     94  CA       -32.3490   39.5260  -14.1730 C.3   217  ASN217      0.1653
     95  C        -31.7980   40.5770  -15.1380 C.2   217  ASN217      0.2266
     96  O        -30.5760   40.6930  -15.3140 O.2   217  ASN217     -0.2867
     97  CB       -32.8460   38.3360  -14.9850 C.3   217  ASN217      0.1155
     98  CG       -33.3090   37.1950  -14.1250 C.2   217  ASN217      0.2627
     99  OD1      -33.0420   37.1680  -12.9250 O.2   217  ASN217     -0.2716
    100  ND2      -34.0090   36.2290  -14.7350 N.am  217  ASN217     -0.0877
    101  N        -43.8340   23.3780  -28.5060 N.3   321  ALA321     -0.1231
    102  CA       -42.7570   23.9550  -27.7050 C.3   321  ALA321      0.1694
    103  C        -41.4550   24.2270  -28.4940 C.2   321  ALA321      0.2591
    104  O        -41.0400   25.3920  -28.6390 O.2   321  ALA321     -0.2718
    105  CB       -42.4830   23.0840  -26.4670 C.3   321  ALA321      0.0304
    106  N        -40.8070   23.1740  -28.9770 N.am  322  ARG322     -0.1980
    107  CA       -39.5940   23.3340  -29.7720 C.3   322  ARG322      0.1597
    108  C        -39.8350   22.6490  -31.1230 C.2   322  ARG322      0.2287
    109  O        -39.4520   21.4890  -31.3300 O.2   322  ARG322     -0.2864
    110  CB       -38.3710   22.7610  -29.0320 C.3   322  ARG322      0.0334
    111  CG       -37.9500   23.7040  -27.9360 C.3   322  ARG322      0.0492
    112  CD       -37.1530   24.8730  -28.4670 C.3   322  ARG322      0.2205
    113  NE       -36.0140   24.4880  -29.2870 N.pl3 322  ARG322     -0.0865
    114  CZ       -35.8570   24.8390  -30.5650 C.cat 322  ARG322      0.5346
    115  NH1      -36.7790   25.5700  -31.2030 N.pl3 322  ARG322      0.1354
    116  NH2      -34.7600   24.4040  -31.2090 N.pl3 322  ARG322      0.1354
@<TRIPOS>BOND
     1   109   108    2
     2   116   114    1
     3   115   114    1
     4   108   107    1
     5   114   113    2
     6   107   110    1
     7   107   106    1
     8   113   112    1
     9   110   111    1
    10   106   103   am
    11   104   103    2
    12   101   102    1
    13   103   102    1
    14   112   111    1
    15   102   105    1
    16    46    47    1
    17    46    43    1
    18    47    48   ar
    19    47    49   ar
    20    48    50   ar
    21    49    51   ar
    22    50    52   ar
    23    51    52   ar
    24    52    53    1
    25    45    44    2
    26    79    77   am
    27    44    43    1
    28    44    54   am
    29    43    42    1
    30    77    78    2
    31    77    76    1
    32    61    63   ar
    33    61    59   ar
    34    63    62   ar
    35    70    69    1
    36    70    64    1
    37    69    68    1
    38    54    55    1
    39    55    58    1
    40    55    56    1
    41    76    75    1
    42    59    58    1
    43    59    60   ar
    44    62    60   ar
    45    64    56   am
    46    64    65    1
    47    68    65    1
    48    56    57    2
    49    75    72    1
    50    71    72    1
    51    71    66   am
    52    65    66    1
    53    72    73    1
    54    66    67    2
    55    73    74    2
    56    92    90   ar
    57    91    90   ar
    58    90    89    1
    59    36    35    2
    60    89    88    1
    61    88    85    1
    62    33    34    1
    63    33    30    1
    64    32    31    2
    65    35    37   am
    66    35    34    1
    67    87    86    2
    68    31    38   am
    69    31    30    1
    70    27    26   ar
    71    96    95    2
    72    12    11    2
    73    95    94    1
    74    39    38    1
    75    39    40    1
    76    25    26    1
    77    25    22    1
    78    30    29    1
    79    29    23   am
    80    86    85    1
    81    97    94    1
    82    97    98    1
    83    26    28   ar
    84    85    84    1
    85     8     6   ar
    86   100    98   am
    87    81    80    1
    88    81    82    1
    89    40    41    2
    90    11    10    1
    91     7     6   ar
    92    94    93    1
    93    98    99    2
    94     6     5    1
    95    22    23    1
    96    22    21    1
    97    23    24    2
    98    83    82    2
    99    13    10    1
   100    13    14    1
   101    10     9    1
   102     9     3   am
   103     5     2    1
   104    14    15   ar
   105    14    16   ar
   106     3     2    1
   107     3     4    2
   108    15    17   ar
   109    16    18   ar
   110     2     1    1
   111    17    19   ar
   112    18    19   ar
   113    19    20    1
