@<TRIPOS>MOLECULE
tmp/3oygA00.pdb
 122 117 0 0 0
SMALL
GASTEIGER

@<TRIPOS>ATOM
      1  N        -36.3550   32.7770  -10.3640 N.3   121  ASP121     -0.1225
      2  CA       -35.9810   32.4770  -11.7340 C.3   121  ASP121      0.1805
      3  C        -34.4880   32.2910  -11.8820 C.2   121  ASP121      0.2597
      4  O        -33.6880   32.7940  -11.0640 O.2   121  ASP121     -0.2718
      5  CB       -36.3920   33.6190  -12.6370 C.3   121  ASP121      0.1424
      6  CG       -36.5020   33.2050  -14.0800 C.2   121  ASP121      0.3668
      7  OD1      -36.4530   31.9950  -14.3750 O.co2 121  ASP121     -0.2456
      8  OD2      -36.6560   34.0930  -14.9350 O.co2 121  ASP121     -0.2456
      9  N        -34.1070   31.5830  -12.9460 N.am  122  TYR122     -0.1976
     10  CA       -32.7140   31.5450  -13.3590 C.3   122  TYR122      0.1639
     11  C        -32.3990   32.4640  -14.5210 C.2   122  TYR122      0.2290
     12  O        -33.2210   32.6660  -15.4310 O.2   122  TYR122     -0.2864
     13  CB       -32.2900   30.1380  -13.6800 C.3   122  TYR122      0.0560
     14  CG       -31.9070   29.3910  -12.4470 C.ar  122  TYR122     -0.0198
     15  CD1      -32.7450   28.4020  -11.9190 C.ar  122  TYR122     -0.0009
     16  CD2      -30.7240   29.6930  -11.7730 C.ar  122  TYR122     -0.0009
     17  CE1      -32.4070   27.7090  -10.7680 C.ar  122  TYR122      0.0417
     18  CE2      -30.3610   28.9980  -10.6230 C.ar  122  TYR122      0.0417
     19  CZ       -31.2190   28.0070  -10.1210 C.ar  122  TYR122      0.1957
     20  OH       -30.8820   27.3300   -8.9660 O.3   122  TYR122     -0.2866
     21  N        -41.6660   29.8570  -12.7660 N.3   178  ASP178     -0.1225
     22  CA       -42.0910   29.2520  -14.0270 C.3   178  ASP178      0.1805
     23  C        -41.9090   27.7420  -13.8630 C.2   178  ASP178      0.2598
     24  O        -41.5680   27.2830  -12.7680 O.2   178  ASP178     -0.2718
     25  CB       -41.2980   29.8160  -15.2280 C.3   178  ASP178      0.1424
     26  CG       -39.7700   29.5880  -15.1180 C.2   178  ASP178      0.3668
     27  OD1      -38.9830   30.4620  -15.5770 O.co2 178  ASP178     -0.2456
     28  OD2      -39.3450   28.5430  -14.5870 O.co2 178  ASP178     -0.2456
     29  N        -42.1100   26.9770  -14.9320 N.am  179  GLN179     -0.1965
     30  CA       -42.0430   25.5250  -14.8400 C.3   179  GLN179      0.1733
     31  C        -40.6990   24.9460  -15.2470 C.2   179  GLN179      0.2617
     32  O        -40.6290   23.8660  -15.8180 O.2   179  GLN179     -0.2715
     33  CB       -43.1840   24.8810  -15.6260 C.3   179  GLN179      0.0408
     34  CG       -44.5710   25.3300  -15.1450 C.3   179  GLN179      0.0908
     35  CD       -45.7010   24.5570  -15.7900 C.2   179  GLN179      0.2608
     36  OE1      -45.5260   23.4210  -16.2340 O.2   179  GLN179     -0.2717
     37  NE2      -46.8700   25.1690  -15.8510 N.am  179  GLN179     -0.0878
     38  N        -39.6180   25.6450  -14.9330 N.am  180  GLY180     -0.1940
     39  CA       -38.2840   25.0930  -15.1890 C.3   180  GLY180      0.2014
     40  C        -38.0890   23.8080  -14.4010 C.2   180  GLY180      0.2638
     41  O        -38.7110   23.6220  -13.3550 O.2   180  GLY180     -0.2714
     42  N        -37.2140   22.9270  -14.8780 N.am  181  ALA181     -0.1977
     43  CA       -36.9540   21.6550  -14.1880 C.3   181  ALA181      0.1597
     44  C        -36.5760   21.8170  -12.7050 C.2   181  ALA181      0.2287
     45  O        -37.0530   21.0500  -11.8680 O.2   181  ALA181     -0.2864
     46  CB       -35.9050   20.8160  -14.9380 C.3   181  ALA181      0.0319
     47  N        -44.2590   28.5570  -20.4440 N.3   205  TYR205     -0.1241
     48  CA       -43.7380   29.4030  -21.5240 C.3   205  TYR205      0.1605
     49  C        -44.4200   30.7590  -21.5800 C.2   205  TYR205      0.2264
     50  O        -44.9080   31.1690  -22.6420 O.2   205  TYR205     -0.2867
     51  CB       -43.8660   28.6870  -22.8760 C.3   205  TYR205      0.0534
     52  CG       -42.9100   27.5410  -22.9640 C.ar  205  TYR205     -0.0201
     53  CD1      -41.5820   27.7630  -23.3580 C.ar  205  TYR205     -0.0009
     54  CD2      -43.2980   26.2380  -22.6110 C.ar  205  TYR205     -0.0009
     55  CE1      -40.6640   26.7230  -23.4250 C.ar  205  TYR205      0.0417
     56  CE2      -42.3810   25.1850  -22.6630 C.ar  205  TYR205      0.0417
     57  CZ       -41.0660   25.4410  -23.0740 C.ar  205  TYR205      0.1957
     58  OH       -40.1440   24.4140  -23.1600 O.3   205  TYR205     -0.2866
     59  N        -43.2700   33.9450  -19.4180 N.3   207  PRO207     -0.2102
     60  CA       -42.4680   34.6050  -18.4000 C.3   207  PRO207      0.1504
     61  C        -43.0590   35.9250  -17.9220 C.2   207  PRO207      0.2575
     62  O        -42.6530   36.4200  -16.8810 O.2   207  PRO207     -0.2718
     63  CB       -41.1250   34.8040  -19.0900 C.3   207  PRO207      0.0282
     64  CG       -41.4470   34.7660  -20.5750 C.3   207  PRO207      0.0208
     65  CD       -42.5470   33.7970  -20.6960 C.3   207  PRO207      0.0893
     66  N        -44.0310   36.4740  -18.6390 N.am  208  GLN208     -0.1980
     67  CA       -44.7840   37.6120  -18.1110 C.3   208  GLN208      0.1601
     68  C        -45.4150   37.3150  -16.7430 C.2   208  GLN208      0.2287
     69  O        -45.5200   38.1930  -15.8770 O.2   208  GLN208     -0.2864
     70  CB       -45.8690   38.0360  -19.0820 C.3   208  GLN208      0.0394
     71  CG       -45.3390   38.5440  -20.4100 C.3   208  GLN208      0.0908
     72  CD       -45.3430   37.4740  -21.4900 C.2   208  GLN208      0.2608
     73  OE1      -44.8520   36.3390  -21.3040 O.2   208  GLN208     -0.2717
     74  NE2      -45.9030   37.8350  -22.6400 N.am  208  GLN208     -0.0878
     75  N        -43.3610   38.0920  -14.1940 N.3   211  GLY211     -0.1225
     76  CA       -42.9360   39.4620  -14.5230 C.3   211  GLY211      0.1811
     77  C        -42.0640   40.1870  -13.4990 C.2   211  GLY211      0.2280
     78  O        -41.0070   40.7460  -13.8540 O.2   211  GLY211     -0.2866
     79  N        -38.6720   38.6240  -13.6740 N.3   214  GLU214     -0.1231
     80  CA       -38.1390   38.7530  -15.0330 C.3   214  GLU214      0.1699
     81  C        -37.6090   40.1870  -15.2070 C.2   214  GLU214      0.2592
     82  O        -36.4640   40.3780  -15.6470 O.2   214  GLU214     -0.2718
     83  CB       -39.1850   38.4060  -16.1090 C.3   214  GLU214      0.0402
     84  CG       -39.5750   36.9290  -16.2570 C.3   214  GLU214      0.1161
     85  CD       -38.4040   35.9850  -16.5020 C.2   214  GLU214      0.3649
     86  OE1      -37.2290   36.4310  -16.5240 O.co2 214  GLU214     -0.2457
     87  OE2      -38.6410   34.7630  -16.6680 O.co2 214  GLU214     -0.2457
     88  N        -38.4130   41.1680  -14.7860 N.am  215  ARG215     -0.1980
     89  CA       -38.0310   42.5650  -14.8860 C.3   215  ARG215      0.1597
     90  C        -36.7820   42.9090  -14.0870 C.2   215  ARG215      0.2287
     91  O        -35.9610   43.7070  -14.5270 O.2   215  ARG215     -0.2864
     92  CB       -39.1790   43.4930  -14.5110 C.3   215  ARG215      0.0334
     93  CG       -38.8300   44.9470  -14.6720 C.3   215  ARG215      0.0492
     94  CD       -38.3730   45.2780  -16.0950 C.3   215  ARG215      0.2205
     95  NE       -38.4090   46.7210  -16.2620 N.pl3 215  ARG215     -0.0865
     96  CZ       -37.4180   47.5400  -15.9140 C.cat 215  ARG215      0.5346
     97  NH1      -36.2820   47.0460  -15.4190 N.pl3 215  ARG215      0.1354
     98  NH2      -37.5730   48.8570  -16.0600 N.pl3 215  ARG215      0.1354
     99  N        -34.3750   40.7230  -13.5500 N.3   217  ASN217     -0.1240
    100  CA       -33.3000   40.1300  -14.3700 C.3   217  ASN217      0.1653
    101  C        -32.6550   41.1770  -15.3090 C.2   217  ASN217      0.2266
    102  O        -31.4220   41.3150  -15.3930 O.2   217  ASN217     -0.2867
    103  CB       -33.8380   38.9640  -15.1960 C.3   217  ASN217      0.1155
    104  CG       -34.1730   37.7390  -14.3440 C.2   217  ASN217      0.2627
    105  OD1      -33.8580   37.6920  -13.1470 O.2   217  ASN217     -0.2716
    106  ND2      -34.8170   36.7400  -14.9610 N.am  217  ASN217     -0.0877
    107  N        -44.4140   24.7480  -28.2610 N.3   321  ALA321     -0.1231
    108  CA       -43.4370   25.5040  -27.4720 C.3   321  ALA321      0.1694
    109  C        -42.0940   25.7070  -28.1940 C.2   321  ALA321      0.2591
    110  O        -41.5790   26.8490  -28.2710 O.2   321  ALA321     -0.2718
    111  CB       -43.2160   24.8590  -26.1070 C.3   321  ALA321      0.0304
    112  N        -41.5120   24.6170  -28.6850 N.am  322  ARG322     -0.1980
    113  CA       -40.2160   24.6950  -29.3240 C.3   322  ARG322      0.1597
    114  C        -40.3300   23.9630  -30.6830 C.2   322  ARG322      0.2287
    115  O        -39.7510   22.8800  -30.8860 O.2   322  ARG322     -0.2864
    116  CB       -39.1140   24.1360  -28.3960 C.3   322  ARG322      0.0334
    117  CG       -37.7200   24.3530  -28.9320 C.3   322  ARG322      0.0492
    118  CD       -37.3730   25.7760  -29.4110 C.3   322  ARG322      0.2205
    119  NE       -37.6380   26.7330  -28.3470 N.pl3 322  ARG322     -0.0865
    120  CZ       -36.9800   27.0190  -27.2590 C.cat 322  ARG322      0.5346
    121  NH1      -35.8550   26.3270  -27.0330 N.pl3 322  ARG322      0.1354
    122  NH2      -37.3510   27.9540  -26.3640 N.pl3 322  ARG322      0.1354
@<TRIPOS>BOND
     1   115   114    2
     2   114   113    1
     3   118   117    1
     4   118   119    1
     5   113   112    1
     6   113   116    1
     7   117   116    1
     8   112   109   am
     9   119   120    2
    10   110   109    2
    11   107   108    1
    12   109   108    1
    13   108   111    1
    14   120   121    1
    15   120   122    1
    16    55    53   ar
    17    55    57   ar
    18    53    52   ar
    19    58    57    1
    20    57    56   ar
    21    52    51    1
    22    52    54   ar
    23    51    48    1
    24    56    54   ar
    25    50    49    2
    26    74    72   am
    27    49    48    1
    28    48    47    1
    29    72    73    2
    30    72    71    1
    31    65    64    1
    32    65    59    1
    33    64    63    1
    34    71    70    1
    35    59    60    1
    36    63    60    1
    37    70    67    1
    38    66    67    1
    39    66    61   am
    40    60    61    1
    41    67    68    1
    42    61    62    2
    43    68    69    2
    44    87    85   ar
    45    86    85   ar
    46    85    84    1
    47    95    94    1
    48    95    96    2
    49    84    83    1
    50    36    35    2
    51    83    80    1
    52    94    93    1
    53    98    96    1
    54    96    97    1
    55    37    35   am
    56    32    31    2
    57    35    34    1
    58    82    81    2
    59    33    34    1
    60    33    30    1
    61    27    26   ar
    62    12    11    2
    63   102   101    2
    64   101   100    1
    65    31    38   am
    66    31    30    1
    67    25    26    1
    68    25    22    1
    69    81    80    1
    70    81    88   am
    71   103   100    1
    72   103   104    1
    73    39    38    1
    74    39    40    1
    75    26    28   ar
    76    80    79    1
    77   106   104   am
    78    46    43    1
    79     8     6   ar
    80    29    30    1
    81    29    23   am
    82    89    88    1
    83    89    92    1
    84    89    90    1
    85    42    40   am
    86    42    43    1
    87    93    92    1
    88    91    90    2
    89    76    75    1
    90    76    77    1
    91    11    10    1
    92    40    41    2
    93     7     6   ar
    94   100    99    1
    95   104   105    2
    96    43    44    1
    97     6     5    1
    98    22    23    1
    99    22    21    1
   100    23    24    2
   101    78    77    2
   102    13    10    1
   103    13    14    1
   104    10     9    1
   105     9     3   am
   106    44    45    2
   107     5     2    1
   108    14    15   ar
   109    14    16   ar
   110    15    17   ar
   111     3     2    1
   112     3     4    2
   113    16    18   ar
   114     2     1    1
   115    17    19   ar
   116    18    19   ar
   117    19    20    1
