@<TRIPOS>MOLECULE
tmp/3oyhA00.pdb
 93 89 0 0 0
SMALL
GASTEIGER

@<TRIPOS>ATOM
      1  N        -35.4690   32.0870  -10.2110 N.3   121  ASP121     -0.1225
      2  CA       -35.1470   31.7880  -11.6060 C.3   121  ASP121      0.1805
      3  C        -33.6550   31.7020  -11.7290 C.2   121  ASP121      0.2597
      4  O        -32.9310   32.2140  -10.8780 O.2   121  ASP121     -0.2718
      5  CB       -35.6590   32.8920  -12.5220 C.3   121  ASP121      0.1424
      6  CG       -35.6180   32.5090  -13.9560 C.2   121  ASP121      0.3668
      7  OD1      -35.6050   31.3080  -14.2440 O.co2 121  ASP121     -0.2456
      8  OD2      -35.5970   33.3930  -14.8250 O.co2 121  ASP121     -0.2456
      9  N        -33.1940   31.0400  -12.7730 N.am  122  TYR122     -0.1976
     10  CA       -31.7840   30.9870  -13.0490 C.3   122  TYR122      0.1639
     11  C        -31.4510   31.8680  -14.2180 C.2   122  TYR122      0.2290
     12  O        -32.2930   32.0490  -15.1220 O.2   122  TYR122     -0.2864
     13  CB       -31.3700   29.5730  -13.3780 C.3   122  TYR122      0.0560
     14  CG       -30.9490   28.8040  -12.1660 C.ar  122  TYR122     -0.0198
     15  CD1      -31.8030   27.8520  -11.5820 C.ar  122  TYR122     -0.0009
     16  CD2      -29.7000   29.0250  -11.5900 C.ar  122  TYR122     -0.0009
     17  CE1      -31.4220   27.1460  -10.4600 C.ar  122  TYR122      0.0417
     18  CE2      -29.3050   28.3100  -10.4670 C.ar  122  TYR122      0.0417
     19  CZ       -30.1750   27.3830   -9.9160 C.ar  122  TYR122      0.1957
     20  OH       -29.7920   26.7180   -8.8030 O.3   122  TYR122     -0.2866
     21  N        -40.7390   29.2240  -12.6730 N.3   178  ASP178     -0.1225
     22  CA       -41.0310   28.5970  -13.9620 C.3   178  ASP178      0.1805
     23  C        -40.8110   27.0840  -13.8650 C.2   178  ASP178      0.2598
     24  O        -40.4590   26.5690  -12.7960 O.2   178  ASP178     -0.2718
     25  CB       -40.1700   29.2050  -15.0860 C.3   178  ASP178      0.1424
     26  CG       -38.6520   28.9230  -14.9300 C.2   178  ASP178      0.3668
     27  OD1      -37.8560   29.8460  -15.2810 O.co2 178  ASP178     -0.2456
     28  OD2      -38.2610   27.7990  -14.4910 O.co2 178  ASP178     -0.2456
     29  N        -40.9810   26.3830  -14.9800 N.am  179  GLN179     -0.1965
     30  CA       -40.9140   24.9310  -14.9530 C.3   179  GLN179      0.1733
     31  C        -39.5510   24.3580  -15.2920 C.2   179  GLN179      0.2616
     32  O        -39.4360   23.2510  -15.7910 O.2   179  GLN179     -0.2715
     33  CB       -42.0510   24.2980  -15.7590 C.3   179  GLN179      0.0408
     34  CG       -43.4180   24.4780  -15.0680 C.3   179  GLN179      0.0908
     35  CD       -44.5460   23.7730  -15.7990 C.2   179  GLN179      0.2608
     36  OE1      -44.3460   22.7280  -16.4270 O.2   179  GLN179     -0.2717
     37  NE2      -45.7410   24.3470  -15.7380 N.am  179  GLN179     -0.0878
     38  N        -38.5050   25.0840  -14.9540 N.am  180  GLY180     -0.1955
     39  CA       -37.1720   24.5290  -15.0970 C.3   180  GLY180      0.1869
     40  C        -36.9710   23.2040  -14.3730 C.2   180  GLY180      0.2309
     41  O        -37.5430   22.9620  -13.3110 O.2   180  GLY180     -0.2863
     42  N        -43.4570   27.5950  -20.5760 N.3   205  TYR205     -0.1241
     43  CA       -42.9970   28.4060  -21.6990 C.3   205  TYR205      0.1605
     44  C        -43.6750   29.7820  -21.7480 C.2   205  TYR205      0.2264
     45  O        -44.2450   30.1920  -22.7850 O.2   205  TYR205     -0.2867
     46  CB       -43.1940   27.6290  -22.9900 C.3   205  TYR205      0.0534
     47  CG       -42.3000   26.4220  -23.0780 C.ar  205  TYR205     -0.0201
     48  CD1      -40.9230   26.5800  -23.1990 C.ar  205  TYR205     -0.0009
     49  CD2      -42.8190   25.1280  -23.0470 C.ar  205  TYR205     -0.0009
     50  CE1      -40.0610   25.4740  -23.2860 C.ar  205  TYR205      0.0417
     51  CE2      -41.9690   23.9980  -23.1280 C.ar  205  TYR205      0.0417
     52  CZ       -40.5940   24.1810  -23.2500 C.ar  205  TYR205      0.1957
     53  OH       -39.7480   23.0830  -23.3470 O.3   205  TYR205     -0.2866
     54  N        -42.3990   33.0330  -19.5490 N.3   207  PRO207     -0.2102
     55  CA       -41.6040   33.6740  -18.5260 C.3   207  PRO207      0.1504
     56  C        -42.1810   34.9910  -18.0210 C.2   207  PRO207      0.2575
     57  O        -41.8240   35.4300  -16.9350 O.2   207  PRO207     -0.2718
     58  CB       -40.2750   33.8880  -19.2320 C.3   207  PRO207      0.0282
     59  CG       -40.6200   33.9010  -20.6520 C.3   207  PRO207      0.0208
     60  CD       -41.6390   32.8870  -20.7960 C.3   207  PRO207      0.0893
     61  N        -43.0740   35.6100  -18.7740 N.am  208  GLN208     -0.1980
     62  CA       -43.7370   36.7890  -18.2790 C.3   208  GLN208      0.1601
     63  C        -44.3670   36.4710  -16.9280 C.2   208  GLN208      0.2287
     64  O        -44.4970   37.3630  -16.0470 O.2   208  GLN208     -0.2864
     65  CB       -44.8230   37.2450  -19.2330 C.3   208  GLN208      0.0394
     66  CG       -44.3420   37.6210  -20.6210 C.3   208  GLN208      0.0908
     67  CD       -44.2270   36.4290  -21.5330 C.2   208  GLN208      0.2608
     68  OE1      -43.4610   35.4820  -21.2770 O.2   208  GLN208     -0.2717
     69  NE2      -44.9940   36.4600  -22.6130 N.am  208  GLN208     -0.0878
     70  N        -42.3160   37.2490  -14.3990 N.3   211  GLY211     -0.1225
     71  CA       -41.9190   38.6340  -14.6520 C.3   211  GLY211      0.1811
     72  C        -41.1790   39.3940  -13.5500 C.2   211  GLY211      0.2280
     73  O        -40.2870   40.1940  -13.8500 O.2   211  GLY211     -0.2866
     74  N        -37.7500   37.8310  -13.5950 N.3   214  GLU214     -0.1245
     75  CA       -37.1690   37.9700  -14.9300 C.3   214  GLU214      0.1567
     76  C        -36.6400   39.3740  -15.0700 C.2   214  GLU214      0.2260
     77  O        -35.4820   39.5830  -15.4820 O.2   214  GLU214     -0.2867
     78  CB       -38.1860   37.6850  -16.0230 C.3   214  GLU214      0.0388
     79  CG       -38.6380   36.2180  -16.1060 C.3   214  GLU214      0.1160
     80  CD       -37.5210   35.2580  -16.4380 C.2   214  GLU214      0.3649
     81  OE1      -36.3290   35.6690  -16.4960 O.co2 214  GLU214     -0.2457
     82  OE2      -37.8170   34.0520  -16.6160 O.co2 214  GLU214     -0.2457
     83  N        -40.7200   23.3190  -29.0840 N.3   322  ARG322     -0.1245
     84  CA       -39.4560   23.3430  -29.7900 C.3   322  ARG322      0.1563
     85  C        -39.6970   22.7000  -31.1700 C.2   322  ARG322      0.2260
     86  O        -39.2900   21.5540  -31.4270 O.2   322  ARG322     -0.2867
     87  CB       -38.3850   22.5960  -28.9750 C.3   322  ARG322      0.0307
     88  CG       -38.0140   23.2530  -27.6720 C.3   322  ARG322      0.0489
     89  CD       -36.8230   24.1730  -27.8550 C.3   322  ARG322      0.2205
     90  NE       -36.4550   24.8440  -26.6130 N.pl3 322  ARG322     -0.0865
     91  CZ       -36.8700   26.0580  -26.2580 C.cat 322  ARG322      0.5346
     92  NH1      -37.6720   26.7710  -27.0530 N.pl3 322  ARG322      0.1354
     93  NH2      -36.4920   26.5590  -25.0900 N.pl3 322  ARG322      0.1354
@<TRIPOS>BOND
     1    86    85    2
     2    85    84    1
     3    84    83    1
     4    84    87    1
     5    87    88    1
     6    89    88    1
     7    89    90    1
     8    92    91    1
     9    90    91    2
    10    91    93    1
    11    53    52    1
    12    50    52   ar
    13    50    48   ar
    14    52    51   ar
    15    48    47   ar
    16    51    49   ar
    17    47    49   ar
    18    47    46    1
    19    46    43    1
    20    45    44    2
    21    69    67   am
    22    44    43    1
    23    43    42    1
    24    67    68    2
    25    67    66    1
    26    60    59    1
    27    60    54    1
    28    59    58    1
    29    66    65    1
    30    54    55    1
    31    65    62    1
    32    58    55    1
    33    61    62    1
    34    61    56   am
    35    55    56    1
    36    62    63    1
    37    56    57    2
    38    63    64    2
    39    82    80   ar
    40    81    80   ar
    41    80    79    1
    42    36    35    2
    43    79    78    1
    44    78    75    1
    45    35    37   am
    46    35    34    1
    47    32    31    2
    48    33    34    1
    49    33    30    1
    50    77    76    2
    51    31    38   am
    52    31    30    1
    53    27    26   ar
    54    12    11    2
    55    39    38    1
    56    39    40    1
    57    25    26    1
    58    25    22    1
    59    76    75    1
    60    29    30    1
    61    29    23   am
    62    75    74    1
    63    26    28   ar
    64     8     6   ar
    65    71    70    1
    66    71    72    1
    67    40    41    2
    68     7     6   ar
    69    11    10    1
    70    22    23    1
    71    22    21    1
    72     6     5    1
    73    23    24    2
    74    73    72    2
    75    13    10    1
    76    13    14    1
    77    10     9    1
    78     9     3   am
    79     5     2    1
    80    14    16   ar
    81    14    15   ar
    82     3     2    1
    83     3     4    2
    84     2     1    1
    85    16    18   ar
    86    15    17   ar
    87    18    19   ar
    88    17    19   ar
    89    19    20    1
