@<TRIPOS>MOLECULE
tmp/3oymB00.pdb
 89 83 0 0 0
SMALL
GASTEIGER

@<TRIPOS>ATOM
      1  N        -18.0830   30.7470   19.1190 N.3    15  ILE15      -0.1231
      2  CA       -18.3910   29.6030   19.9590 C.3    15  ILE15       0.1692
      3  C        -17.6680   28.3860   19.3730 C.2    15  ILE15       0.2592
      4  O        -17.7190   28.1500   18.1590 O.2    15  ILE15      -0.2718
      5  CB       -19.9190   29.4030   20.0630 C.3    15  ILE15       0.0266
      6  CG1      -20.4860   30.3750   21.0900 C.3    15  ILE15       0.0019
      7  CG2      -20.2760   27.9760   20.4370 C.3    15  ILE15       0.0020
      8  CD1      -22.0300   30.4410   21.1060 C.3    15  ILE15       0.0001
      9  N        -16.9690   27.6410   20.2260 N.am   16  GLY16      -0.1957
     10  CA       -16.2540   26.4390   19.8030 C.3    16  GLY16       0.1869
     11  C        -14.9270   26.2890   20.5200 C.2    16  GLY16       0.2309
     12  O        -14.5870   27.1250   21.3500 O.2    16  GLY16      -0.2863
     13  N        -16.2310   22.9310   18.3780 N.3    18  LEU18      -0.1231
     14  CA       -17.2760   21.9430   18.4620 C.3    18  LEU18       0.1678
     15  C        -16.7740   20.6880   17.7490 C.2    18  LEU18       0.2434
     16  O        -15.7710   20.7540   17.0350 O.2    18  LEU18      -0.2733
     17  CB       -18.5380   22.4810   17.7880 C.3    18  LEU18       0.0284
     18  CG       -19.0820   23.8050   18.3480 C.3    18  LEU18       0.0019
     19  CD1      -20.1560   24.3860   17.4410 C.3    18  LEU18       0.0001
     20  CD2      -19.5990   23.6360   19.7830 C.3    18  LEU18       0.0001
     21  N        -17.4500   19.5350   17.9460 N.am   19  PRO19      -0.2729
     22  CA       -17.0910   18.3450   17.1740 C.3    19  PRO19       0.1401
     23  C        -17.0830   18.6720   15.6740 C.2    19  PRO19       0.2269
     24  O        -17.9310   19.4510   15.2160 O.2    19  PRO19      -0.2865
     25  CB       -18.2340   17.3700   17.4850 C.3    19  PRO19       0.0296
     26  CG       -18.7510   17.8070   18.8060 C.3    19  PRO19       0.0237
     27  CD       -18.6290   19.2950   18.8010 C.3    19  PRO19       0.0939
     28  N        -25.9640   27.5850   22.9580 N.3   113  LYS113     -0.1245
     29  CA       -25.2570   26.4430   23.5450 C.3   113  LYS113      0.1561
     30  C        -26.2370   25.3720   24.0220 C.2   113  LYS113      0.2260
     31  O        -26.0240   24.1620   23.8060 O.2   113  LYS113     -0.2867
     32  CB       -24.3600   26.9090   24.6850 C.3   113  LYS113      0.0271
     33  CG       -23.2060   27.7870   24.2330 C.3   113  LYS113      0.0035
     34  CD       -22.4580   28.3830   25.4050 C.3   113  LYS113      0.0206
     35  CE       -21.3500   29.3110   24.9240 C.3   113  LYS113      0.1093
     36  NZ       -20.5760   29.9460   26.0330 N.3   113  LYS113     -0.1314
     37  N        -28.0650   23.7280   20.8410 N.3   116  LEU116     -0.1231
     38  CA       -27.1160   22.7950   20.2220 C.3   116  LEU116      0.1693
     39  C        -27.0000   21.4920   21.0160 C.2   116  LEU116      0.2592
     40  O        -27.1050   20.4010   20.4370 O.2   116  LEU116     -0.2718
     41  CB       -25.7320   23.4390   20.0110 C.3   116  LEU116      0.0284
     42  CG       -25.6160   24.5730   18.9620 C.3   116  LEU116      0.0019
     43  CD1      -24.2820   25.2950   19.0840 C.3   116  LEU116      0.0001
     44  CD2      -25.8370   24.0800   17.5220 C.3   116  LEU116      0.0001
     45  N        -26.7980   21.6020   22.3310 N.am  117  THR117     -0.1953
     46  CA       -26.6990   20.4200   23.1980 C.3   117  THR117      0.1897
     47  C        -27.9440   19.5290   23.0440 C.2   117  THR117      0.2313
     48  O        -27.8250   18.3320   22.7990 O.2   117  THR117     -0.2863
     49  CB       -26.4440   20.7980   24.6860 C.3   117  THR117      0.1794
     50  OG1      -25.2780   21.6300   24.7880 O.3   117  THR117     -0.2208
     51  CG2      -26.2220   19.5500   25.5330 C.3   117  THR117      0.0378
     52  N        -28.0230   17.9330   19.3860 N.3   120  LEU120     -0.1245
     53  CA       -26.8980   17.1030   18.9710 C.3   120  LEU120      0.1561
     54  C        -26.7930   15.7500   19.6780 C.2   120  LEU120      0.2260
     55  O        -25.8070   15.0270   19.4780 O.2   120  LEU120     -0.2867
     56  CB       -25.5900   17.8760   19.1020 C.3   120  LEU120      0.0270
     57  CG       -25.4740   19.0920   18.1780 C.3   120  LEU120      0.0019
     58  CD1      -24.1070   19.7540   18.3550 C.3   120  LEU120      0.0001
     59  CD2      -25.7020   18.6950   16.7290 C.3   120  LEU120      0.0001
     60  N        -23.3960   14.2400   17.2080 N.3   124  PRO124     -0.2116
     61  CA       -22.5540   15.3970   17.5130 C.3   124  PRO124      0.1372
     62  C        -21.8920   16.0400   16.2930 C.2   124  PRO124      0.2244
     63  O        -21.5130   17.2050   16.3550 O.2   124  PRO124     -0.2868
     64  CB       -21.4770   14.8180   18.4460 C.3   124  PRO124      0.0268
     65  CG       -21.4230   13.3780   18.1430 C.3   124  PRO124      0.0207
     66  CD       -22.8270   12.9920   17.7590 C.3   124  PRO124      0.0892
     67  N        -25.0490   13.1040   27.2280 N.3   178  SER178     -0.1202
     68  CA       -24.4760   13.1910   25.8750 C.3   178  SER178      0.2020
     69  C        -23.3780   14.2510   25.8010 C.2   178  SER178      0.2618
     70  O        -22.3880   14.0730   25.0970 O.2   178  SER178     -0.2717
     71  CB       -25.5570   13.4500   24.8130 C.3   178  SER178      0.2103
     72  OG       -25.8660   14.8290   24.6930 O.3   178  SER178     -0.2182
     73  N        -23.5670   15.3490   26.5290 N.am  179  LEU179     -0.1979
     74  CA       -22.5480   16.3820   26.6560 C.3   179  LEU179      0.1596
     75  C        -21.3300   15.8380   27.4150 C.2   179  LEU179      0.2287
     76  O        -20.1860   16.1090   27.0420 O.2   179  LEU179     -0.2864
     77  CB       -23.1290   17.6220   27.3480 C.3   179  LEU179      0.0297
     78  CG       -22.2320   18.8340   27.6300 C.3   179  LEU179      0.0022
     79  CD1      -21.6980   19.4600   26.3470 C.3   179  LEU179      0.0001
     80  CD2      -22.9890   19.8690   28.4420 C.3   179  LEU179      0.0001
     81  N        -19.4130   13.2640   25.2650 N.3   182  GLU182     -0.1245
     82  CA       -18.6520   13.9620   24.2220 C.3   182  GLU182      0.1567
     83  C        -17.2640   14.4090   24.6770 C.2   182  GLU182      0.2260
     84  O        -16.2930   14.2990   23.9240 O.2   182  GLU182     -0.2867
     85  CB       -19.4420   15.1550   23.6630 C.3   182  GLU182      0.0388
     86  CG       -20.4780   14.7700   22.6050 C.3   182  GLU182      0.1160
     87  CD       -19.9120   13.8390   21.5390 C.2   182  GLU182      0.3649
     88  OE1      -18.9680   14.2500   20.8220 O.co2 182  GLU182     -0.2457
     89  OE2      -20.4110   12.6970   21.4250 O.co2 182  GLU182     -0.2457
@<TRIPOS>BOND
     1    24    23    2
     2    23    22    1
     3    62    63    2
     4    62    61    1
     5    59    57    1
     6    16    15    2
     7    22    25    1
     8    22    21    1
     9    60    61    1
    10    60    66    1
    11    19    18    1
    12    25    26    1
    13    61    64    1
    14    44    42    1
    15    15    21   am
    16    15    14    1
    17    66    65    1
    18    17    18    1
    19    17    14    1
    20    21    27    1
    21    65    64    1
    22     4     3    2
    23    57    58    1
    24    57    56    1
    25    18    20    1
    26    13    14    1
    27    27    26    1
    28    42    43    1
    29    42    41    1
    30    53    56    1
    31    53    52    1
    32    53    54    1
    33     1     2    1
    34     3     2    1
    35     3     9   am
    36    55    54    2
    37    10     9    1
    38    10    11    1
    39     2     5    1
    40    41    38    1
    41     5     7    1
    42     5     6    1
    43    38    37    1
    44    38    39    1
    45    40    39    2
    46    11    12    2
    47    88    87   ar
    48    39    45   am
    49     6     8    1
    50    89    87   ar
    51    87    86    1
    52    45    46    1
    53    86    85    1
    54    48    47    2
    55    28    29    1
    56    47    46    1
    57    46    49    1
    58    29    30    1
    59    29    32    1
    60    85    82    1
    61    31    30    2
    62    84    83    2
    63    82    83    1
    64    82    81    1
    65    33    32    1
    66    33    34    1
    67    49    50    1
    68    49    51    1
    69    72    71    1
    70    71    68    1
    71    35    34    1
    72    35    36    1
    73    70    69    2
    74    69    68    1
    75    69    73   am
    76    68    67    1
    77    79    78    1
    78    73    74    1
    79    74    77    1
    80    74    75    1
    81    76    75    2
    82    77    78    1
    83    78    80    1
