@<TRIPOS>MOLECULE
tmp/3oynA00.pdb
 124 120 0 0 0
SMALL
GASTEIGER

@<TRIPOS>ATOM
      1  N        -36.5780   32.9020  -10.3350 N.3   121  ASP121     -0.1225
      2  CA       -36.2360   32.6140  -11.7290 C.3   121  ASP121      0.1805
      3  C        -34.7280   32.6030  -11.9060 C.2   121  ASP121      0.2597
      4  O        -33.9950   33.2430  -11.1370 O.2   121  ASP121     -0.2718
      5  CB       -36.8180   33.6670  -12.6620 C.3   121  ASP121      0.1424
      6  CG       -36.8570   33.2130  -14.0970 C.2   121  ASP121      0.3668
      7  OD1      -36.8200   31.9910  -14.3500 O.co2 121  ASP121     -0.2456
      8  OD2      -36.9230   34.0730  -14.9960 O.co2 121  ASP121     -0.2456
      9  N        -34.2710   31.8660  -12.9160 N.am  122  TYR122     -0.1976
     10  CA       -32.8650   31.8550  -13.3030 C.3   122  TYR122      0.1639
     11  C        -32.5880   32.7420  -14.5050 C.2   122  TYR122      0.2290
     12  O        -33.4390   32.9190  -15.3910 O.2   122  TYR122     -0.2864
     13  CB       -32.3900   30.4450  -13.6100 C.3   122  TYR122      0.0560
     14  CG       -32.0570   29.6640  -12.3870 C.ar  122  TYR122     -0.0198
     15  CD1      -32.9170   28.6720  -11.9080 C.ar  122  TYR122     -0.0009
     16  CD2      -30.8850   29.9170  -11.6920 C.ar  122  TYR122     -0.0009
     17  CE1      -32.6140   27.9520  -10.7710 C.ar  122  TYR122      0.0417
     18  CE2      -30.5650   29.2030  -10.5460 C.ar  122  TYR122      0.0417
     19  CZ       -31.4400   28.2240  -10.0880 C.ar  122  TYR122      0.1957
     20  OH       -31.1100   27.5350   -8.9420 O.3   122  TYR122     -0.2866
     21  N        -41.8220   30.0160  -12.6120 N.3   178  ASP178     -0.1225
     22  CA       -42.2250   29.3890  -13.8760 C.3   178  ASP178      0.1805
     23  C        -42.1000   27.8680  -13.7220 C.2   178  ASP178      0.2598
     24  O        -41.8590   27.3900  -12.6170 O.2   178  ASP178     -0.2718
     25  CB       -41.4310   29.9340  -15.0920 C.3   178  ASP178      0.1424
     26  CG       -39.9110   29.6830  -15.0070 C.2   178  ASP178      0.3668
     27  OD1      -39.1350   30.5840  -15.4170 O.co2 178  ASP178     -0.2456
     28  OD2      -39.4880   28.5980  -14.5540 O.co2 178  ASP178     -0.2456
     29  N        -42.2720   27.1100  -14.8020 N.am  179  GLN179     -0.1965
     30  CA       -42.2110   25.6550  -14.7050 C.3   179  GLN179      0.1733
     31  C        -40.8810   25.0630  -15.1220 C.2   179  GLN179      0.2617
     32  O        -40.8280   23.9450  -15.6170 O.2   179  GLN179     -0.2715
     33  CB       -43.3650   25.0100  -15.4680 C.3   179  GLN179      0.0408
     34  CG       -44.6880   25.2530  -14.7760 C.3   179  GLN179      0.0908
     35  CD       -45.8820   24.7480  -15.5450 C.2   179  GLN179      0.2608
     36  OE1      -45.8640   23.6520  -16.1200 O.2   179  GLN179     -0.2717
     37  NE2      -46.9490   25.5490  -15.5520 N.am  179  GLN179     -0.0878
     38  N        -39.7970   25.8000  -14.9010 N.am  180  GLY180     -0.1940
     39  CA       -38.4590   25.2640  -15.1330 C.3   180  GLY180      0.2014
     40  C        -38.2280   24.0230  -14.2900 C.2   180  GLY180      0.2638
     41  O        -38.7150   23.9380  -13.1620 O.2   180  GLY180     -0.2714
     42  N        -37.4880   23.0560  -14.8260 N.am  181  ALA181     -0.1977
     43  CA       -37.2810   21.7690  -14.1420 C.3   181  ALA181      0.1597
     44  C        -36.8930   21.9050  -12.6540 C.2   181  ALA181      0.2287
     45  O        -37.4370   21.1800  -11.8150 O.2   181  ALA181     -0.2864
     46  CB       -36.2690   20.9070  -14.8950 C.3   181  ALA181      0.0319
     47  N        -44.5330   28.6240  -20.3440 N.3   205  TYR205     -0.1241
     48  CA       -44.0280   29.4830  -21.4130 C.3   205  TYR205      0.1605
     49  C        -44.7590   30.8160  -21.4670 C.2   205  TYR205      0.2264
     50  O        -45.2950   31.1860  -22.5140 O.2   205  TYR205     -0.2867
     51  CB       -44.0950   28.7610  -22.7690 C.3   205  TYR205      0.0534
     52  CG       -42.9940   27.7510  -22.9130 C.ar  205  TYR205     -0.0201
     53  CD1      -41.7910   28.0780  -23.5590 C.ar  205  TYR205     -0.0009
     54  CD2      -43.1310   26.4770  -22.3710 C.ar  205  TYR205     -0.0009
     55  CE1      -40.7640   27.1440  -23.6710 C.ar  205  TYR205      0.0417
     56  CE2      -42.1180   25.5400  -22.4680 C.ar  205  TYR205      0.0417
     57  CZ       -40.9410   25.8680  -23.1160 C.ar  205  TYR205      0.1957
     58  OH       -39.9510   24.8980  -23.2090 O.3   205  TYR205     -0.2866
     59  N        -43.5640   34.0870  -19.3760 N.3   207  PRO207     -0.2102
     60  CA       -42.7570   34.7610  -18.3750 C.3   207  PRO207      0.1504
     61  C        -43.3300   36.0740  -17.8770 C.2   207  PRO207      0.2575
     62  O        -42.8740   36.5650  -16.8550 O.2   207  PRO207     -0.2718
     63  CB       -41.4420   35.0020  -19.1100 C.3   207  PRO207      0.0282
     64  CG       -41.8070   34.9440  -20.5770 C.3   207  PRO207      0.0208
     65  CD       -42.7970   33.8590  -20.6130 C.3   207  PRO207      0.0893
     66  N        -44.3100   36.6470  -18.5630 N.am  208  GLN208     -0.1980
     67  CA       -44.9810   37.8140  -18.0100 C.3   208  GLN208      0.1601
     68  C        -45.5850   37.4900  -16.6330 C.2   208  GLN208      0.2287
     69  O        -45.6840   38.3510  -15.7490 O.2   208  GLN208     -0.2864
     70  CB       -46.0700   38.3190  -18.9470 C.3   208  GLN208      0.0394
     71  CG       -45.5550   38.7940  -20.2950 C.3   208  GLN208      0.0908
     72  CD       -45.6600   37.7330  -21.3830 C.2   208  GLN208      0.2608
     73  OE1      -45.0910   36.6230  -21.2900 O.2   208  GLN208     -0.2717
     74  NE2      -46.3990   38.0740  -22.4340 N.am  208  GLN208     -0.0878
     75  N        -43.4460   38.2720  -14.1560 N.3   211  GLY211     -0.1225
     76  CA       -43.0070   39.6320  -14.4850 C.3   211  GLY211      0.1811
     77  C        -42.2040   40.4100  -13.4500 C.2   211  GLY211      0.2280
     78  O        -41.2550   41.1210  -13.8020 O.2   211  GLY211     -0.2866
     79  N        -38.9210   38.8720  -13.5250 N.3   214  GLU214     -0.1231
     80  CA       -38.3530   38.9070  -14.8740 C.3   214  GLU214      0.1699
     81  C        -37.7780   40.3040  -15.1120 C.2   214  GLU214      0.2592
     82  O        -36.6790   40.4550  -15.6540 O.2   214  GLU214     -0.2718
     83  CB       -39.3840   38.5300  -15.9560 C.3   214  GLU214      0.0402
     84  CG       -39.8150   37.0500  -16.0110 C.3   214  GLU214      0.1161
     85  CD       -38.6900   36.0990  -16.3500 C.2   214  GLU214      0.3649
     86  OE1      -37.4950   36.5050  -16.3120 O.co2 214  GLU214     -0.2457
     87  OE2      -38.9810   34.9250  -16.6560 O.co2 214  GLU214     -0.2457
     88  N        -38.5060   41.3140  -14.6430 N.am  215  ARG215     -0.1980
     89  CA       -38.1590   42.6870  -14.9230 C.3   215  ARG215      0.1597
     90  C        -36.8930   43.0900  -14.2110 C.2   215  ARG215      0.2287
     91  O        -36.1550   43.9660  -14.6590 O.2   215  ARG215     -0.2864
     92  CB       -39.2980   43.6180  -14.5440 C.3   215  ARG215      0.0334
     93  CG       -38.9640   45.0660  -14.7160 C.3   215  ARG215      0.0492
     94  CD       -38.5120   45.3600  -16.1410 C.3   215  ARG215      0.2205
     95  NE       -38.5140   46.7970  -16.3150 N.pl3 215  ARG215     -0.0865
     96  CZ       -37.5210   47.5850  -15.9410 C.cat 215  ARG215      0.5346
     97  NH1      -36.4310   47.0440  -15.3930 N.pl3 215  ARG215      0.1354
     98  NH2      -37.6250   48.9090  -16.1170 N.pl3 215  ARG215      0.1354
     99  N        -34.3320   41.1880  -13.9150 N.3   217  HIS217     -0.1241
    100  CA       -33.2220   40.6650  -14.7160 C.3   217  HIS217      0.1621
    101  C        -32.5600   41.7710  -15.5490 C.2   217  HIS217      0.2264
    102  O        -31.3430   41.9750  -15.5330 O.2   217  HIS217     -0.2867
    103  CB       -33.7310   39.6020  -15.6760 C.3   217  HIS217      0.0745
    104  CG       -34.1490   38.3430  -15.0080 C.ar  217  HIS217      0.0817
    105  ND1      -33.7380   38.0090  -13.7430 N.ar  217  HIS217     -0.2268
    106  CD2      -34.9150   37.3150  -15.4440 C.ar  217  HIS217      0.1154
    107  CE1      -34.2370   36.8270  -13.4230 C.ar  217  HIS217      0.1986
    108  NE2      -34.9600   36.3880  -14.4380 N.ar  217  HIS217     -0.2212
    109  N        -44.7410   24.8890  -28.0440 N.3   321  ALA321     -0.1231
    110  CA       -43.7800   25.6660  -27.2600 C.3   321  ALA321      0.1694
    111  C        -42.4430   25.8450  -27.9710 C.2   321  ALA321      0.2591
    112  O        -41.9390   26.9770  -28.1020 O.2   321  ALA321     -0.2718
    113  CB       -43.5710   25.0460  -25.8890 C.3   321  ALA321      0.0304
    114  N        -41.8590   24.7390  -28.4130 N.am  322  ARG322     -0.1980
    115  CA       -40.5810   24.8000  -29.0780 C.3   322  ARG322      0.1597
    116  C        -40.7520   24.0610  -30.4110 C.2   322  ARG322      0.2287
    117  O        -40.3260   22.9130  -30.5570 O.2   322  ARG322     -0.2864
    118  CB       -39.4630   24.2340  -28.1700 C.3   322  ARG322      0.0334
    119  CG       -39.1190   25.2360  -27.1000 C.3   322  ARG322      0.0492
    120  CD       -38.2200   26.3350  -27.6190 C.3   322  ARG322      0.2205
    121  NE       -37.0200   25.8530  -28.2840 N.pl3 322  ARG322     -0.0865
    122  CZ       -36.7150   26.1070  -29.5580 C.cat 322  ARG322      0.5346
    123  NH1      -37.5310   26.8240  -30.3390 N.pl3 322  ARG322      0.1354
    124  NH2      -35.5760   25.5870  -30.0500 N.pl3 322  ARG322      0.1354
@<TRIPOS>BOND
     1   117   116    2
     2   116   115    1
     3   123   122    1
     4   124   122    1
     5   122   121    2
     6   115   114    1
     7   115   118    1
     8   114   111   am
     9   121   120    1
    10   118   119    1
    11   112   111    2
    12   109   110    1
    13   111   110    1
    14   120   119    1
    15   110   113    1
    16    55    53   ar
    17    55    57   ar
    18    53    52   ar
    19    58    57    1
    20    57    56   ar
    21    52    51    1
    22    52    54   ar
    23    51    48    1
    24    50    49    2
    25    56    54   ar
    26    74    72   am
    27    49    48    1
    28    48    47    1
    29    72    73    2
    30    72    71    1
    31    65    64    1
    32    65    59    1
    33    64    63    1
    34    71    70    1
    35    59    60    1
    36    63    60    1
    37    70    67    1
    38    66    67    1
    39    66    61   am
    40    60    61    1
    41    67    68    1
    42    61    62    2
    43    87    85   ar
    44    68    69    2
    45    85    86   ar
    46    85    84    1
    47    95    94    1
    48    95    96    2
    49    94    93    1
    50    36    35    2
    51    98    96    1
    52    84    83    1
    53    83    80    1
    54    96    97    1
    55   103   104    1
    56   103   100    1
    57    82    81    2
    58    32    31    2
    59    37    35   am
    60   101   102    2
    61   101   100    1
    62    35    34    1
    63    33    34    1
    64    33    30    1
    65   106   104   ar
    66   106   108   ar
    67    27    26   ar
    68    12    11    2
    69    39    38    1
    70    39    40    1
    71    31    38   am
    72    31    30    1
    73    81    80    1
    74    81    88   am
    75    25    26    1
    76    25    22    1
    77   104   105   ar
    78    26    28   ar
    79     8     6   ar
    80    89    88    1
    81    89    92    1
    82    89    90    1
    83    46    43    1
    84    80    79    1
    85    42    40   am
    86    42    43    1
    87    29    30    1
    88    29    23   am
    89   100    99    1
    90    93    92    1
    91    91    90    2
    92    11    10    1
    93    76    75    1
    94    76    77    1
    95   108   107   ar
    96     7     6   ar
    97    40    41    2
    98    43    44    1
    99     6     5    1
   100    22    23    1
   101    22    21    1
   102    78    77    2
   103   105   107   ar
   104    23    24    2
   105    13    10    1
   106    13    14    1
   107    10     9    1
   108     9     3   am
   109     5     2    1
   110    44    45    2
   111    14    15   ar
   112    14    16   ar
   113    15    17   ar
   114     3     2    1
   115     3     4    2
   116     2     1    1
   117    16    18   ar
   118    17    19   ar
   119    18    19   ar
   120    19    20    1
