@<TRIPOS>MOLECULE
tmp/3oypB01.pdb
 161 156 0 0 0
SMALL
GASTEIGER

@<TRIPOS>ATOM
      1  N        -20.2940   -6.5660   34.5580 N.3    41  GLN41      -0.1231
      2  CA       -20.9560   -7.8580   34.7750 C.3    41  GLN41       0.1698
      3  C        -20.4110   -8.9690   33.8740 C.2    41  GLN41       0.2593
      4  O        -19.8560   -8.7020   32.8100 O.2    41  GLN41      -0.2718
      5  CB       -22.4650   -7.6990   34.5640 C.3    41  GLN41       0.0381
      6  CG       -22.8520   -7.2240   33.1590 C.3    41  GLN41       0.0905
      7  CD       -24.2820   -6.7030   33.0620 C.2    41  GLN41       0.2608
      8  OE1      -25.0940   -6.8860   33.9690 O.2    41  GLN41      -0.2717
      9  NE2      -24.5900   -6.0420   31.9480 N.am   41  GLN41      -0.0878
     10  N        -20.5780  -10.2140   34.3190 N.am   42  SER42      -0.1938
     11  CA       -20.1200  -11.3910   33.5730 C.3    42  SER42       0.2055
     12  C        -21.2310  -12.4380   33.4230 C.2    42  SER42       0.2643
     13  O        -22.1190  -12.5460   34.2670 O.2    42  SER42      -0.2714
     14  CB       -18.9160  -12.0180   34.2620 C.3    42  SER42       0.2130
     15  OG       -18.4290  -13.1020   33.4980 O.3    42  SER42      -0.2179
     16  N        -21.1590  -13.2170   32.3480 N.am   43  PHE43      -0.1973
     17  CA       -22.2560  -14.1000   31.9560 C.3    43  PHE43       0.1639
     18  C        -21.7870  -15.1240   30.9190 C.2    43  PHE43       0.2290
     19  O        -20.5870  -15.2520   30.6760 O.2    43  PHE43      -0.2864
     20  CB       -23.4270  -13.2620   31.4210 C.3    43  PHE43       0.0560
     21  CG       -23.0410  -12.3020   30.3300 C.ar   43  PHE43      -0.0200
     22  CD1      -22.5880  -11.0280   30.6340 C.ar   43  PHE43      -0.0042
     23  CD2      -23.1300  -12.6710   29.0030 C.ar   43  PHE43      -0.0042
     24  CE1      -22.2320  -10.1400   29.6320 C.ar   43  PHE43      -0.0003
     25  CE2      -22.7750  -11.7880   27.9960 C.ar   43  PHE43      -0.0003
     26  CZ       -22.3290  -10.5210   28.3130 C.ar   43  PHE43      -0.0000
     27  N        -29.2790   -9.9740   26.0800 N.3    56  TYR56      -0.1227
     28  CA       -29.1320   -8.5280   25.9200 C.3    56  TYR56       0.1736
     29  C        -28.7940   -7.8140   27.2300 C.2    56  TYR56       0.2595
     30  O        -27.9980   -6.8770   27.2290 O.2    56  TYR56      -0.2718
     31  CB       -30.3940   -7.9050   25.3170 C.3    56  TYR56       0.0548
     32  CG       -30.2140   -6.4460   24.9600 C.ar   56  TYR56      -0.0200
     33  CD1      -29.7350   -6.0700   23.7080 C.ar   56  TYR56      -0.0009
     34  CD2      -30.5080   -5.4400   25.8790 C.ar   56  TYR56      -0.0009
     35  CE1      -29.5590   -4.7390   23.3760 C.ar   56  TYR56       0.0417
     36  CE2      -30.3330   -4.1020   25.5540 C.ar   56  TYR56       0.0417
     37  CZ       -29.8570   -3.7620   24.3020 C.ar   56  TYR56       0.1957
     38  OH       -29.6830   -2.4410   23.9690 O.3    56  TYR56      -0.2866
     39  N        -29.3790   -8.2530   28.3420 N.am   57  HIS57      -0.1961
     40  CA       -29.1390   -7.5830   29.6270 C.3    57  HIS57       0.1787
     41  C        -27.7070   -7.7460   30.1610 C.2    57  HIS57       0.2620
     42  O        -27.3620   -7.1630   31.1870 O.2    57  HIS57      -0.2715
     43  CB       -30.1790   -7.9990   30.6760 C.3    57  HIS57       0.0785
     44  CG       -30.0190   -9.3930   31.1980 C.ar   57  HIS57       0.0821
     45  ND1      -30.6790  -10.4740   30.6520 N.ar   57  HIS57      -0.2267
     46  CD2      -29.3180   -9.8750   32.2520 C.ar   57  HIS57       0.1154
     47  CE1      -30.3720  -11.5650   31.3310 C.ar   57  HIS57       0.1986
     48  NE2      -29.5480  -11.2290   32.3070 N.ar   57  HIS57      -0.2212
     49  N        -26.8860   -8.5250   29.4560 N.am   58  GLY58      -0.1954
     50  CA       -25.4630   -8.6630   29.7640 C.3    58  GLY58       0.1869
     51  C        -24.5520   -7.9690   28.7610 C.2    58  GLY58       0.2309
     52  O        -23.6240   -7.2560   29.1470 O.2    58  GLY58      -0.2863
     53  N        -34.3500   -6.8620   22.0160 N.3    78  VAL78      -0.1231
     54  CA       -34.4460   -6.4490   23.4100 C.3    78  VAL78       0.1692
     55  C        -35.6370   -7.1130   24.0980 C.2    78  VAL78       0.2592
     56  O        -35.5310   -7.5340   25.2500 O.2    78  VAL78      -0.2718
     57  CB       -34.5610   -4.9120   23.5230 C.3    78  VAL78       0.0266
     58  CG1      -34.6490   -4.4700   24.9820 C.3    78  VAL78       0.0020
     59  CG2      -33.3720   -4.2410   22.8440 C.3    78  VAL78       0.0020
     60  N        -36.7670   -7.1950   23.3960 N.am   79  ASP79      -0.1974
     61  CA       -37.9760   -7.8410   23.9260 C.3    79  ASP79       0.1709
     62  C        -37.7070   -9.2590   24.4230 C.2    79  ASP79       0.2293
     63  O        -37.9570   -9.5730   25.5890 O.2    79  ASP79      -0.2864
     64  CB       -39.0840   -7.8840   22.8610 C.3    79  ASP79       0.1436
     65  CG       -39.8280   -6.5660   22.7250 C.2    79  ASP79       0.3671
     66  OD1      -39.3350   -5.5310   23.2320 O.co2  79  ASP79      -0.2456
     67  OD2      -40.9170   -6.5700   22.1080 O.co2  79  ASP79      -0.2456
     68  N        -34.7900  -10.5870   24.6460 N.3    81  ASP81      -0.1239
     69  CA       -33.5460  -10.5550   25.4170 C.3    81  ASP81       0.1674
     70  C        -32.4590  -11.4210   24.7750 C.2    81  ASP81       0.2266
     71  O        -31.6930  -12.0840   25.4700 O.2    81  ASP81      -0.2867
     72  CB       -33.8140  -10.9960   26.8660 C.3    81  ASP81       0.1410
     73  CG       -32.6910  -10.6350   27.8120 C.2    81  ASP81       0.3668
     74  OD1      -31.7070  -10.0060   27.3710 O.co2  81  ASP81      -0.2456
     75  OD2      -32.7920  -10.9850   29.0060 O.co2  81  ASP81      -0.2456
     76  N        -30.2520  -18.3820   44.3080 N.3   132  VAL132     -0.1245
     77  CA       -30.1500  -17.4860   43.1570 C.3   132  VAL132      0.1561
     78  C        -28.6900  -17.2330   42.7530 C.2   132  VAL132      0.2260
     79  O        -28.3730  -17.1780   41.5690 O.2   132  VAL132     -0.2867
     80  CB       -30.8790  -16.1400   43.4240 C.3   132  VAL132      0.0252
     81  CG1      -30.2500  -15.3720   44.5990 C.3   132  VAL132      0.0019
     82  CG2      -30.8870  -15.2790   42.1750 C.3   132  VAL132      0.0019
     83  N        -26.9570  -19.5750   40.3870 N.3   135  LEU135     -0.1231
     84  CA       -27.3540  -19.3770   38.9920 C.3   135  LEU135      0.1693
     85  C        -26.8540  -18.0570   38.4020 C.2   135  LEU135      0.2592
     86  O        -26.6390  -17.9710   37.1910 O.2   135  LEU135     -0.2718
     87  CB       -28.8820  -19.4680   38.8580 C.3   135  LEU135      0.0284
     88  CG       -29.4810  -20.8040   38.3960 C.3   135  LEU135      0.0019
     89  CD1      -28.7750  -22.0300   38.9740 C.3   135  LEU135      0.0001
     90  CD2      -30.9620  -20.8400   38.7420 C.3   135  LEU135      0.0001
     91  N        -26.6820  -17.0390   39.2480 N.am  136  LYS136     -0.1966
     92  CA       -26.2070  -15.7270   38.7990 C.3   136  LYS136      0.1728
     93  C        -24.9000  -15.8430   38.0330 C.2   136  LYS136      0.2617
     94  O        -23.9680  -16.4980   38.4900 O.2   136  LYS136     -0.2715
     95  CB       -26.0050  -14.7690   39.9760 C.3   136  LYS136      0.0311
     96  CG       -27.2620  -14.0580   40.4400 C.3   136  LYS136      0.0038
     97  CD       -27.7100  -12.9660   39.4650 C.3   136  LYS136      0.0206
     98  CE       -29.0230  -12.3360   39.9220 C.3   136  LYS136      0.1093
     99  NZ       -29.6090  -11.4680   38.8760 N.3   136  LYS136     -0.1314
    100  N        -24.8460  -15.2000   36.8690 N.am  137  GLY137     -0.1940
    101  CA       -23.6700  -15.2380   36.0120 C.3   137  GLY137      0.2014
    102  C        -23.7430  -16.3140   34.9490 C.2   137  GLY137      0.2640
    103  O        -22.7750  -16.5140   34.2180 O.2   137  GLY137     -0.2714
    104  N        -24.8810  -17.0060   34.8540 N.am  138  SER138     -0.1935
    105  CA       -25.0480  -18.1010   33.8900 C.3   138  SER138      0.2055
    106  C        -26.1000  -17.8320   32.8120 C.2   138  SER138      0.2643
    107  O        -26.4070  -18.7260   32.0250 O.2   138  SER138     -0.2714
    108  CB       -25.3910  -19.4080   34.6120 C.3   138  SER138      0.2130
    109  OG       -24.3850  -19.7700   35.5400 O.3   138  SER138     -0.2179
    110  N        -26.6540  -16.6230   32.7640 N.am  139  SER139     -0.1949
    111  CA       -27.5410  -16.2510   31.6580 C.3   139  SER139      0.1924
    112  C        -26.7650  -16.3350   30.3530 C.2   139  SER139      0.2314
    113  O        -25.6050  -15.9170   30.2810 O.2   139  SER139     -0.2863
    114  CB       -28.1160  -14.8420   31.8290 C.3   139  SER139      0.2116
    115  OG       -27.0880  -13.8710   31.9500 O.3   139  SER139     -0.2180
    116  N        -30.6740  -19.8700   28.6820 N.3   154  PHE154     -0.1227
    117  CA       -31.0790  -19.3640   29.9950 C.3   154  PHE154      0.1736
    118  C        -31.1150  -17.8290   29.9870 C.2   154  PHE154      0.2595
    119  O        -30.1440  -17.1930   29.5700 O.2   154  PHE154     -0.2718
    120  CB       -30.0930  -19.9000   31.0480 C.3   154  PHE154      0.0547
    121  CG       -30.4540  -19.5860   32.4820 C.ar  154  PHE154     -0.0202
    122  CD1      -31.7720  -19.4100   32.8890 C.ar  154  PHE154     -0.0042
    123  CD2      -29.4500  -19.5180   33.4420 C.ar  154  PHE154     -0.0042
    124  CE1      -32.0740  -19.1380   34.2130 C.ar  154  PHE154     -0.0003
    125  CE2      -29.7450  -19.2550   34.7660 C.ar  154  PHE154     -0.0003
    126  CZ       -31.0610  -19.0770   35.1550 C.ar  154  PHE154     -0.0000
    127  N        -32.2380  -17.2420   30.4130 N.am  155  ARG155     -0.1966
    128  CA       -32.3660  -15.7740   30.4440 C.3   155  ARG155      0.1729
    129  C        -32.7900  -15.1890   31.8030 C.2   155  ARG155      0.2616
    130  O        -32.2950  -14.1350   32.2030 O.2   155  ARG155     -0.2715
    131  CB       -33.2780  -15.2700   29.3080 C.3   155  ARG155      0.0348
    132  CG       -34.7730  -15.1470   29.6300 C.3   155  ARG155      0.0492
    133  CD       -35.4210  -13.9980   28.8680 C.3   155  ARG155      0.2205
    134  NE       -35.9980  -14.4060   27.5870 N.pl3 155  ARG155     -0.0865
    135  CZ       -37.2560  -14.8060   27.3950 C.cat 155  ARG155      0.5346
    136  NH1      -38.1180  -14.8810   28.4010 N.pl3 155  ARG155      0.1354
    137  NH2      -37.6590  -15.1410   26.1770 N.pl3 155  ARG155      0.1354
    138  N        -33.6940  -15.8570   32.5090 N.am  156  ALA156     -0.1963
    139  CA       -34.1510  -15.3590   33.8050 C.3   156  ALA156      0.1728
    140  C        -34.6120  -16.4850   34.7120 C.2   156  ALA156      0.2616
    141  O        -34.9420  -17.5760   34.2500 O.2   156  ALA156     -0.2715
    142  CB       -35.2660  -14.3440   33.6180 C.3   156  ALA156      0.0334
    143  N        -34.6270  -16.2080   36.0100 N.am  157  ALA157     -0.1977
    144  CA       -35.0260  -17.1920   37.0080 C.3   157  ALA157      0.1597
    145  C        -36.2160  -16.6670   37.7950 C.2   157  ALA157      0.2287
    146  O        -36.4420  -15.4610   37.8530 O.2   157  ALA157     -0.2864
    147  CB       -33.8620  -17.4910   37.9360 C.3   157  ALA157      0.0319
    148  N        -37.7650  -16.7280   41.6460 N.3   159  CYS159     -0.1235
    149  CA       -37.2550  -16.9330   42.9950 C.3   159  CYS159      0.1677
    150  C        -38.2890  -16.6060   44.0470 C.2   159  CYS159      0.2270
    151  O        -39.3380  -16.0380   43.7510 O.2   159  CYS159     -0.2867
    152  CB       -36.0480  -16.0260   43.2500 C.3   159  CYS159      0.0956
    153  SG       -34.6410  -16.2930   42.1760 S.3   159  CYS159     -0.0801
    154  N        -36.3830  -19.4240   33.3030 N.3   168  ASP168     -0.1239
    155  CA       -36.9410  -18.8900   32.0740 C.3   168  ASP168      0.1674
    156  C        -35.8410  -18.9030   31.0230 C.2   168  ASP168      0.2266
    157  O        -34.7070  -18.5170   31.3070 O.2   168  ASP168     -0.2867
    158  CB       -37.4350  -17.4610   32.3020 C.3   168  ASP168      0.1410
    159  CG       -38.2020  -16.9110   31.1190 C.2   168  ASP168      0.3668
    160  OD1      -39.3060  -16.3620   31.3300 O.co2 168  ASP168     -0.2456
    161  OD2      -37.7060  -17.0310   29.9780 O.co2 168  ASP168     -0.2456
@<TRIPOS>BOND
     1    53    54    1
     2    67    65   ar
     3    65    64    1
     4    65    66   ar
     5    59    57    1
     6    64    61    1
     7    35    33   ar
     8    35    37   ar
     9    60    61    1
    10    60    55   am
    11    54    57    1
    12    54    55    1
    13    57    58    1
    14    33    32   ar
    15    61    62    1
    16    38    37    1
    17    55    56    2
    18    37    36   ar
    19    62    63    2
    20    68    69    1
    21    70    69    1
    22    70    71    2
    23    32    31    1
    24    32    34   ar
    25    31    28    1
    26    69    72    1
    27    36    34   ar
    28    28    27    1
    29    28    29    1
    30   137   135    1
    31    72    73    1
    32    30    29    2
    33    29    39   am
    34    74    73   ar
    35   135   134    2
    36   135   136    1
    37   134   133    1
    38    73    75   ar
    39    25    26   ar
    40    25    23   ar
    41    26    24   ar
    42    39    40    1
    43   116   117    1
    44    51    52    2
    45    51    50    1
    46   133   132    1
    47    23    21   ar
    48   131   132    1
    49   131   128    1
    50    49    50    1
    51    49    41   am
    52   119   118    2
    53    40    41    1
    54    40    43    1
    55    24    22   ar
    56   161   159   ar
    57   118   117    1
    58   118   127   am
    59   117   120    1
    60    41    42    2
    61   113   112    2
    62    21    22   ar
    63    21    20    1
    64   112   111    1
    65   127   128    1
    66   128   129    1
    67    45    44   ar
    68    45    47   ar
    69    43    44    1
    70    19    18    2
    71    18    17    1
    72   156   157    2
    73   156   155    1
    74   120   121    1
    75   159   160   ar
    76   159   158    1
    77    44    46   ar
    78    47    48   ar
    79    20    17    1
    80   111   114    1
    81   111   110    1
    82   129   130    2
    83   129   138   am
    84   114   115    1
    85     9     7   am
    86    17    16    1
    87   107   106    2
    88   155   158    1
    89   155   154    1
    90    46    48   ar
    91    16    12   am
    92   121   122   ar
    93   121   123   ar
    94   138   139    1
    95   110   106   am
    96     4     3    2
    97   106   105    1
    98   122   124   ar
    99     7     6    1
   100     7     8    2
   101     6     5    1
   102    12    11    1
   103    12    13    2
   104   123   125   ar
   105    15    14    1
   106    11    14    1
   107    11    10    1
   108   142   139    1
   109   139   140    1
   110     3    10   am
   111     3     2    1
   112   105   108    1
   113   105   104    1
   114   124   126   ar
   115   103   102    2
   116   141   140    2
   117     1     2    1
   118     5     2    1
   119   108   109    1
   120   140   143   am
   121   125   126   ar
   122   104   102   am
   123   102   101    1
   124   143   144    1
   125   101   100    1
   126   100    93   am
   127   144   145    1
   128   144   147    1
   129    86    85    2
   130   145   146    2
   131    93    94    2
   132    93    92    1
   133    88    90    1
   134    88    87    1
   135    88    89    1
   136    85    84    1
   137    85    91   am
   138    92    91    1
   139    92    95    1
   140    87    84    1
   141    99    98    1
   142    84    83    1
   143    97    98    1
   144    97    96    1
   145    95    96    1
   146    79    78    2
   147   148   149    1
   148    82    80    1
   149   153   152    1
   150    78    77    1
   151   149   152    1
   152   149   150    1
   153    77    80    1
   154    77    76    1
   155    80    81    1
   156   151   150    2
