@<TRIPOS>MOLECULE
tmp/3oyqA00.pdb
 158 153 0 0 0
SMALL
GASTEIGER

@<TRIPOS>ATOM
      1  N         -0.7450   -1.9550    6.4060 N.3    61  HIS61      -0.1241
      2  CA        -0.8450   -2.6680    7.7040 C.3    61  HIS61       0.1621
      3  C         -2.2430   -3.2320    7.9530 C.2    61  HIS61       0.2264
      4  O         -2.3970   -4.2020    8.7020 O.2    61  HIS61      -0.2867
      5  CB        -0.2930   -1.9380    8.9460 C.3    61  HIS61       0.0745
      6  CG        -0.4560   -0.4620    8.9490 C.ar   61  HIS61       0.0817
      7  ND1       -1.4940    0.1640    9.5980 N.ar   61  HIS61      -0.2268
      8  CD2        0.3350    0.5220    8.4670 C.ar   61  HIS61       0.1154
      9  CE1       -1.3680    1.4710    9.4710 C.ar   61  HIS61       0.1986
     10  NE2       -0.2650    1.7150    8.7860 N.ar   61  HIS61      -0.2212
     11  N        -12.6580    6.3110   11.2160 N.3    89  GLN89      -0.1245
     12  CA       -12.3690    5.1620   10.3640 C.3    89  GLN89       0.1566
     13  C        -12.5970    3.8970   11.1540 C.2    89  GLN89       0.2260
     14  O        -12.6040    3.9210   12.3900 O.2    89  GLN89      -0.2867
     15  CB       -10.9200    5.1650    9.8060 C.3    89  GLN89       0.0367
     16  CG        -9.8030    5.3080   10.8610 C.3    89  GLN89       0.0905
     17  CD        -9.0870    4.0410   11.2660 C.2    89  GLN89       0.2608
     18  OE1       -9.6300    2.9480   11.1860 O.2    89  GLN89      -0.2717
     19  NE2       -7.8820    4.2000   11.7590 N.am   89  GLN89      -0.0878
     20  N        -11.2650   -0.3900   10.9090 N.3    91  HIS91      -0.1241
     21  CA       -10.3710   -1.3710   10.3100 C.3    91  HIS91       0.1621
     22  C        -10.4300   -2.6400   11.1310 C.2    91  HIS91       0.2264
     23  O        -11.0560   -2.6850   12.1760 O.2    91  HIS91      -0.2867
     24  CB        -8.9280   -0.8580   10.2380 C.3    91  HIS91       0.0745
     25  CG        -8.3460   -0.5850   11.5870 C.ar   91  HIS91       0.0817
     26  ND1       -8.5100    0.6220   12.2310 N.ar   91  HIS91      -0.2268
     27  CD2       -7.7000   -1.3930   12.4740 C.ar   91  HIS91       0.1154
     28  CE1       -7.9710    0.5610   13.4290 C.ar   91  HIS91       0.1986
     29  NE2       -7.4660   -0.6540   13.5960 N.ar   91  HIS91      -0.2212
     30  N         -8.0510   -6.3680   12.3950 N.3    93  HIS93      -0.1241
     31  CA        -6.8520   -7.1810   12.5390 C.3    93  HIS93       0.1621
     32  C         -7.2790   -8.6320   12.4190 C.2    93  HIS93       0.2264
     33  O         -8.3450   -8.9830   12.9230 O.2    93  HIS93      -0.2867
     34  CB        -6.1770   -6.9440   13.8950 C.3    93  HIS93       0.0745
     35  CG        -5.9010   -5.5020   14.1790 C.ar   93  HIS93       0.0817
     36  ND1       -4.6740   -4.9150   13.9570 N.ar   93  HIS93      -0.2268
     37  CD2       -6.7200   -4.5100   14.6110 C.ar   93  HIS93       0.1154
     38  CE1       -4.7370   -3.6260   14.2670 C.ar   93  HIS93       0.1986
     39  NE2       -5.9630   -3.3520   14.6700 N.ar   93  HIS93      -0.2212
     40  N        -11.9940   -2.5970   14.8320 N.3   116  HIS116     -0.1241
     41  CA       -11.7540   -1.3580   15.5730 C.3   116  HIS116      0.1621
     42  C        -12.4500   -0.2040   14.8960 C.2   116  HIS116      0.2264
     43  O        -12.0780    0.1690   13.7820 O.2   116  HIS116     -0.2867
     44  CB       -10.2500   -1.0710   15.6590 C.3   116  HIS116      0.0745
     45  CG        -9.5410   -2.0450   16.5310 C.ar  116  HIS116      0.0817
     46  ND1       -8.1670   -2.2400   16.5340 N.ar  116  HIS116     -0.2268
     47  CD2      -10.0490   -2.8780   17.4640 C.ar  116  HIS116      0.1154
     48  CE1       -7.8780   -3.1700   17.4210 C.ar  116  HIS116      0.1986
     49  NE2       -8.9960   -3.5600   18.0150 N.ar  116  HIS116     -0.2212
     50  N        -12.7560    3.5930   15.2260 N.3   118  VAL118     -0.1245
     51  CA       -11.9080    4.6070   15.8520 C.3   118  VAL118      0.1561
     52  C        -12.6220    5.9400   15.8730 C.2   118  VAL118      0.2260
     53  O        -13.0850    6.4050   14.8250 O.2   118  VAL118     -0.2867
     54  CB       -10.5950    4.7400   15.0700 C.3   118  VAL118      0.0252
     55  CG1       -9.7080    5.7800   15.7120 C.3   118  VAL118      0.0019
     56  CG2       -9.8430    3.3840   14.9560 C.3   118  VAL118      0.0019
     57  N         -8.2230   15.0020   14.7230 N.3   127  PHE127     -0.1227
     58  CA        -7.6520   13.7290   15.1220 C.3   127  PHE127      0.1736
     59  C         -6.2030   13.8610   15.5220 C.2   127  PHE127      0.2596
     60  O         -5.7770   13.2650   16.5090 O.2   127  PHE127     -0.2718
     61  CB        -7.8060   12.7460   13.9790 C.3   127  PHE127      0.0547
     62  CG        -7.2470   11.4040   14.2540 C.ar  127  PHE127     -0.0202
     63  CD1       -7.9810   10.4530   14.9520 C.ar  127  PHE127     -0.0042
     64  CD2       -5.9830   11.0710   13.8130 C.ar  127  PHE127     -0.0042
     65  CE1       -7.4720    9.2240   15.1960 C.ar  127  PHE127     -0.0003
     66  CE2       -5.4630    9.8250   14.0590 C.ar  127  PHE127     -0.0003
     67  CZ        -6.2290    8.8890   14.7590 C.ar  127  PHE127     -0.0000
     68  N         -5.4060   14.6300   14.7680 N.am  128  GLY128     -0.1957
     69  CA        -3.9980   14.7590   15.1050 C.3   128  GLY128      0.1869
     70  C         -3.7530   15.3910   16.4690 C.2   128  GLY128      0.2309
     71  O         -2.7800   15.0400   17.1360 O.2   128  GLY128     -0.2863
     72  N         -4.8660   12.6140   19.3290 N.3   131  VAL131     -0.1245
     73  CA        -3.9660   11.4970   19.6750 C.3   131  VAL131      0.1561
     74  C         -2.8760   11.9210   20.6510 C.2   131  VAL131      0.2260
     75  O         -2.1890   11.0620   21.2100 O.2   131  VAL131     -0.2867
     76  CB        -3.3300   10.8150   18.4540 C.3   131  VAL131      0.0252
     77  CG1       -4.4180   10.2450   17.5670 C.3   131  VAL131      0.0019
     78  CG2       -2.4600   11.7530   17.6830 C.3   131  VAL131      0.0019
     79  N         -9.0150    9.5870   22.1540 N.3   137  LEU137     -0.1245
     80  CA        -9.6750    8.6120   21.2940 C.3   137  LEU137      0.1561
     81  C        -10.5400    7.6870   22.1090 C.2   137  LEU137      0.2260
     82  O        -10.2490    7.4140   23.2630 O.2   137  LEU137     -0.2867
     83  CB        -8.6580    7.7620   20.5490 C.3   137  LEU137      0.0270
     84  CG        -8.0480    8.3280   19.2690 C.3   137  LEU137      0.0019
     85  CD1       -7.4280    9.6560   19.4350 C.3   137  LEU137      0.0001
     86  CD2       -7.1070    7.3610   18.5340 C.3   137  LEU137      0.0001
     87  N        -11.9010    3.8120   21.0970 N.3   139  VAL139     -0.1245
     88  CA       -11.9600    2.7600   20.0930 C.3   139  VAL139      0.1561
     89  C        -12.8980    1.6850   20.5840 C.2   139  VAL139      0.2260
     90  O        -12.7650    1.1890   21.6990 O.2   139  VAL139     -0.2867
     91  CB       -10.5840    2.1670   19.7260 C.3   139  VAL139      0.0252
     92  CG1      -10.7210    1.1370   18.6200 C.3   139  VAL139      0.0019
     93  CG2       -9.6630    3.2550   19.2410 C.3   139  VAL139      0.0019
     94  N         -3.0110    3.1790   21.1510 N.3   194  LEU194     -0.1231
     95  CA        -3.0190    2.6410   19.7960 C.3   194  LEU194      0.1693
     96  C         -2.2760    1.3330   19.8250 C.2   194  LEU194      0.2593
     97  O         -1.2730    1.1850   20.5500 O.2   194  LEU194     -0.2718
     98  CB        -2.2960    3.5870   18.8290 C.3   194  LEU194      0.0284
     99  CG        -2.7900    5.0170   18.7810 C.3   194  LEU194      0.0019
    100  CD1       -1.9290    5.8580   17.8410 C.3   194  LEU194      0.0001
    101  CD2       -4.2590    5.0750   18.3810 C.3   194  LEU194      0.0001
    102  N         -2.7120    0.3780   19.0110 N.am  195  THR195     -0.1939
    103  CA        -2.0380   -0.9340   18.9790 C.3   195  THR195      0.2028
    104  C         -1.0280   -1.0460   17.8550 C.2   195  THR195      0.2643
    105  O         -0.4360   -2.0910   17.7120 O.2   195  THR195     -0.2714
    106  CB        -3.0500   -2.0700   18.8640 C.3   195  THR195      0.1808
    107  OG1       -3.6730   -2.0010   17.5620 O.3   195  THR195     -0.2208
    108  CG2       -4.0720   -2.0120   20.0090 C.3   195  THR195      0.0379
    109  N         -0.8370    0.0250   17.0730 N.am  196  THR196     -0.1937
    110  CA         0.2590    0.1040   16.1020 C.3   196  THR196      0.2013
    111  C          1.0580    1.3580   16.3990 C.2   196  THR196      0.2484
    112  O          0.5480    2.3240   16.9830 O.2   196  THR196     -0.2729
    113  CB        -0.2210    0.1920   14.6540 C.3   196  THR196      0.1807
    114  OG1       -0.8960    1.4180   14.4570 O.3   196  THR196     -0.2208
    115  CG2       -1.1710   -0.9050   14.3270 C.3   196  THR196      0.0379
    116  N          2.3170    1.3670   15.9510 N.am  197  PRO197     -0.2715
    117  CA         3.0820    2.6060   16.0720 C.3   197  PRO197      0.1521
    118  C          2.2550    3.7580   15.5010 C.2   197  PRO197      0.2440
    119  O          1.5650    3.5960   14.4670 O.2   197  PRO197     -0.2731
    120  CB         4.3280    2.2860   15.2450 C.3   197  PRO197      0.0310
    121  CG         4.5400    0.8450   15.4700 C.3   197  PRO197      0.0237
    122  CD         3.1250    0.2850   15.3720 C.3   197  PRO197      0.0939
    123  N          2.2770    4.9160   16.1550 N.am  198  PRO198     -0.2727
    124  CA         3.1820    5.3050   17.2510 C.3   198  PRO198      0.1402
    125  C          2.8030    4.9040   18.6840 C.2   198  PRO198      0.2269
    126  O          3.4260    5.3670   19.6290 O.2   198  PRO198     -0.2865
    127  CB         3.2110    6.8240   17.1200 C.3   198  PRO198      0.0296
    128  CG         1.8990    7.1840   16.5540 C.3   198  PRO198      0.0237
    129  CD         1.5060    6.0670   15.6450 C.3   198  PRO198      0.0939
    130  N          0.5850    5.5540   20.7910 N.3   200  LEU200     -0.1245
    131  CA         0.2600    6.6380   21.7060 C.3   200  LEU200      0.1561
    132  C         -0.7860    6.2370   22.7300 C.2   200  LEU200      0.2260
    133  O         -1.7810    5.5680   22.4100 O.2   200  LEU200     -0.2867
    134  CB        -0.2090    7.8730   20.9240 C.3   200  LEU200      0.0270
    135  CG         0.8490    8.4780   19.9780 C.3   200  LEU200      0.0019
    136  CD1        0.2380    9.5280   19.0270 C.3   200  LEU200      0.0001
    137  CD2        1.9790    9.0700   20.7830 C.3   200  LEU200      0.0001
    138  N         -6.0950    6.2890   24.1980 N.3   203  VAL203     -0.1245
    139  CA        -7.3340    5.5860   23.8900 C.3   203  VAL203      0.1561
    140  C         -8.1030    5.1000   25.1050 C.2   203  VAL203      0.2260
    141  O         -7.5320    4.4400   25.9720 O.2   203  VAL203     -0.2867
    142  CB        -7.0500    4.3250   23.0320 C.3   203  VAL203      0.0252
    143  CG1       -8.3610    3.6350   22.6890 C.3   203  VAL203      0.0019
    144  CG2       -6.2790    4.6870   21.7590 C.3   203  VAL203      0.0019
    145  N        -10.4540    2.3280   25.6200 N.3   205  TRP205     -0.1241
    146  CA       -10.9300    1.1320   24.9410 C.3   205  TRP205      0.1605
    147  C        -12.2840    0.7140   25.4690 C.2   205  TRP205      0.2264
    148  O        -12.5080    0.6570   26.6570 O.2   205  TRP205     -0.2867
    149  CB        -9.9110   -0.0260   25.1290 C.3   205  TRP205      0.0550
    150  CG        -8.8100    0.0960   24.1410 C.ar  205  TRP205      0.0003
    151  CD1       -7.5930    0.6870   24.3370 C.ar  205  TRP205      0.0946
    152  CD2       -8.8470   -0.3100   22.7700 C.ar  205  TRP205      0.0152
    153  NE1       -6.8870    0.6850   23.1730 N.ar  205  TRP205     -0.2442
    154  CE2       -7.6200    0.0600   22.1890 C.ar  205  TRP205      0.0810
    155  CE3       -9.8190   -0.9500   21.9720 C.ar  205  TRP205      0.0012
    156  CZ2       -7.3360   -0.1780   20.8550 C.ar  205  TRP205      0.0191
    157  CZ3       -9.5270   -1.2240   20.6710 C.ar  205  TRP205      0.0001
    158  CH2       -8.2990   -0.8310   20.1040 C.ar  205  TRP205      0.0015
@<TRIPOS>BOND
     1     1     2    1
     2     2     3    1
     3     2     5    1
     4     3     4    2
     5     8    10   ar
     6     8     6   ar
     7    10     9   ar
     8     5     6    1
     9     6     7   ar
    10     9     7   ar
    11    15    12    1
    12    15    16    1
    13    24    21    1
    14    24    25    1
    15    21    20    1
    16    21    22    1
    17    12    13    1
    18    12    11    1
    19    16    17    1
    20    22    23    2
    21    13    14    2
    22    18    17    2
    23    17    19   am
    24    25    26   ar
    25    25    27   ar
    26    26    28   ar
    27    30    31    1
    28    32    31    1
    29    32    33    2
    30    27    29   ar
    31    31    34    1
    32    28    29   ar
    33    43    42    2
    34    64    66   ar
    35    64    62   ar
    36    34    35    1
    37    36    35   ar
    38    36    38   ar
    39    61    62    1
    40    61    58    1
    41    66    67   ar
    42    35    37   ar
    43    62    63   ar
    44    38    39   ar
    45   115   113    1
    46   114   113    1
    47   119   118    2
    48    37    39   ar
    49   113   110    1
    50    57    58    1
    51    67    65   ar
    52    68    69    1
    53    68    59   am
    54    53    52    2
    55    40    41    1
    56    42    41    1
    57    63    65   ar
    58    56    54    1
    59    54    55    1
    60    54    51    1
    61    69    70    1
    62    58    59    1
    63    50    51    1
    64   120   121    1
    65   120   117    1
    66   122   121    1
    67   122   116    1
    68   118   117    1
    69   118   123   am
    70    59    60    2
    71    41    44    1
    72   129   123    1
    73   129   128    1
    74    44    45    1
    75    51    52    1
    76   116   117    1
    77   116   111   am
    78   110   111    1
    79   110   109    1
    80   123   124    1
    81   111   112    2
    82    70    71    2
    83    45    46   ar
    84    45    47   ar
    85    46    48   ar
    86   128   127    1
    87   109   104   am
    88   127   124    1
    89   124   125    1
    90    48    49   ar
    91    47    49   ar
    92   107   106    1
    93    77    76    1
    94    78    76    1
    95   105   104    2
    96   100    99    1
    97   104   103    1
    98   101    99    1
    99    76    73    1
   100    86    84    1
   101    92    91    1
   102   125   126    2
   103    99    98    1
   104    98    95    1
   105   106   103    1
   106   106   108    1
   107   103   102    1
   108   102    96   am
   109   136   135    1
   110    93    91    1
   111    84    85    1
   112    84    83    1
   113    72    73    1
   114    73    74    1
   115    91    88    1
   116    95    96    1
   117    95    94    1
   118    96    97    2
   119   135   137    1
   120   135   134    1
   121    88    89    1
   122    88    87    1
   123   158   157   ar
   124   158   156   ar
   125    83    80    1
   126    89    90    2
   127    74    75    2
   128   157   155   ar
   129   130   131    1
   130   156   154   ar
   131   134   131    1
   132    80    81    1
   133    80    79    1
   134   131   132    1
   135   144   142    1
   136   155   152   ar
   137    81    82    2
   138   154   152   ar
   139   154   153   ar
   140   133   132    2
   141   143   142    1
   142   152   150   ar
   143   142   139    1
   144   153   151   ar
   145   139   138    1
   146   139   140    1
   147   150   151   ar
   148   150   149    1
   149   146   149    1
   150   146   147    1
   151   146   145    1
   152   140   141    2
   153   147   148    2
