@<TRIPOS>MOLECULE
tmp/3oyrB00.pdb
 156 148 0 0 0
SMALL
GASTEIGER

@<TRIPOS>ATOM
      1  N         38.8040    2.6130  -16.1780 N.3    48  GLY48      -0.1210
      2  CA        38.2490    1.5080  -16.9390 C.3    48  GLY48       0.1956
      3  C         39.1110    1.2890  -18.1540 C.2    48  GLY48       0.2612
      4  O         39.5760    2.2410  -18.7640 O.2    48  GLY48      -0.2717
      5  N         39.3140    0.0300  -18.5140 N.am   49  LYS49      -0.1965
      6  CA        40.2780   -0.3190  -19.5560 C.3    49  LYS49       0.1728
      7  C         39.7500   -0.1120  -20.9640 C.2    49  LYS49       0.2616
      8  O         40.5260   -0.1390  -21.9110 O.2    49  LYS49      -0.2715
      9  CB        40.7640   -1.7600  -19.3760 C.3    49  LYS49       0.0311
     10  CG        41.4700   -2.0170  -18.0550 C.3    49  LYS49       0.0038
     11  CD        41.8060   -3.5160  -17.8980 C.3    49  LYS49       0.0206
     12  CE        40.5400   -4.4060  -17.7940 C.3    49  LYS49       0.1093
     13  NZ        39.8530   -4.1710  -16.4740 N.3    49  LYS49      -0.1314
     14  N         38.4340    0.0800  -21.1010 N.am   50  ARG50      -0.1963
     15  CA        37.8030    0.3270  -22.3970 C.3    50  ARG50       0.1729
     16  C         38.0380   -0.7870  -23.4070 C.2    50  ARG50       0.2616
     17  O         38.0330   -0.5430  -24.6140 O.2    50  ARG50      -0.2715
     18  CB        38.2310    1.6870  -22.9620 C.3    50  ARG50       0.0348
     19  CG        37.9180    2.8430  -22.0030 C.3    50  ARG50       0.0492
     20  CD        36.4070    3.1450  -21.9990 C.3    50  ARG50       0.2205
     21  NE        36.1350    4.4060  -21.3260 N.pl3  50  ARG50      -0.0865
     22  CZ        35.9950    4.5340  -20.0100 C.cat  50  ARG50       0.5346
     23  NH1       36.0660    3.4680  -19.2200 N.pl3  50  ARG50       0.1354
     24  NH2       35.7810    5.7330  -19.4870 N.pl3  50  ARG50       0.1354
     25  N         38.2130   -2.0170  -22.9110 N.am   51  LEU51      -0.1963
     26  CA        38.5070   -3.1740  -23.7790 C.3    51  LEU51       0.1728
     27  C         37.3820   -3.4540  -24.7460 C.2    51  LEU51       0.2616
     28  O         37.6180   -3.7830  -25.9170 O.2    51  LEU51      -0.2715
     29  CB        38.8120   -4.4380  -22.9610 C.3    51  LEU51       0.0311
     30  CG        40.0070   -4.3870  -22.0050 C.3    51  LEU51       0.0022
     31  CD1       40.3070   -5.7610  -21.4490 C.3    51  LEU51       0.0001
     32  CD2       41.2630   -3.8180  -22.6800 C.3    51  LEU51       0.0001
     33  N         36.1540   -3.2810  -24.2700 N.am   52  ARG52      -0.1977
     34  CA        35.0100   -3.5300  -25.1240 C.3    52  ARG52       0.1597
     35  C         34.8970   -2.6040  -26.3380 C.2    52  ARG52       0.2287
     36  O         34.8450   -3.1350  -27.4660 O.2    52  ARG52      -0.2864
     37  CB        33.7300   -3.6690  -24.3170 C.3    52  ARG52       0.0334
     38  CG        33.6880   -4.9410  -23.5040 C.3    52  ARG52       0.0492
     39  CD        32.8260   -4.6890  -22.3070 C.3    52  ARG52       0.2205
     40  NE        32.9130   -5.7350  -21.3020 N.pl3  52  ARG52      -0.0865
     41  CZ        33.7830   -5.7380  -20.3050 C.cat  52  ARG52       0.5346
     42  NH1       34.6860   -4.7560  -20.1850 N.pl3  52  ARG52       0.1354
     43  NH2       33.7600   -6.7350  -19.4440 N.pl3  52  ARG52       0.1354
     44  N         30.2670    0.5050  -24.6730 N.3    78  GLU78      -0.1245
     45  CA        30.7490    0.9930  -23.3660 C.3    78  GLU78       0.1567
     46  C         29.6230    1.4330  -22.4570 C.2    78  GLU78       0.2260
     47  O         29.7040    1.2230  -21.2390 O.2    78  GLU78      -0.2867
     48  CB        31.8010    2.1140  -23.5050 C.3    78  GLU78       0.0388
     49  CG        32.5570    2.4780  -22.1910 C.3    78  GLU78       0.1160
     50  CD        33.3530    1.3180  -21.5630 C.2    78  GLU78       0.3649
     51  OE1       33.6510    0.3100  -22.2280 O.co2  78  GLU78      -0.2457
     52  OE2       33.7140    1.4210  -20.3840 O.co2  78  GLU78      -0.2457
     53  N         28.0840   -1.7320  -21.1370 N.3    81  HIS81      -0.1241
     54  CA        28.9830   -2.1990  -20.0910 C.3    81  HIS81       0.1621
     55  C         28.8270   -1.3700  -18.7950 C.2    81  HIS81       0.2264
     56  O         28.6480   -1.9340  -17.7070 O.2    81  HIS81      -0.2867
     57  CB        30.4210   -2.2070  -20.6170 C.3    81  HIS81       0.0745
     58  CG        31.4640   -2.4420  -19.5670 C.ar   81  HIS81       0.0817
     59  ND1       31.5080   -3.5870  -18.8020 N.ar   81  HIS81      -0.2268
     60  CD2       32.5390   -1.7040  -19.1990 C.ar   81  HIS81       0.1154
     61  CE1       32.5440   -3.5300  -17.9820 C.ar   81  HIS81       0.1986
     62  NE2       33.1870   -2.3980  -18.2030 N.ar   81  HIS81      -0.2212
     63  N         27.5130   -2.5490  -15.0090 N.3    85  LEU85      -0.1245
     64  CA        28.2690   -2.2680  -13.7760 C.3    85  LEU85       0.1561
     65  C         27.4270   -1.6500  -12.6700 C.2    85  LEU85       0.2260
     66  O         27.4770   -2.1080  -11.5210 O.2    85  LEU85      -0.2867
     67  CB        29.4830   -1.3790  -14.0470 C.3    85  LEU85       0.0270
     68  CG        30.5280   -1.9330  -15.0120 C.3    85  LEU85       0.0019
     69  CD1       31.6650   -0.9400  -15.1510 C.3    85  LEU85       0.0001
     70  CD2       31.0600   -3.3220  -14.5760 C.3    85  LEU85       0.0001
     71  N         34.3920    0.4550   -6.8990 N.3    97  ARG97      -0.1231
     72  CA        34.4100    0.2380   -8.3360 C.3    97  ARG97       0.1694
     73  C         35.3180    1.2670   -8.9700 C.2    97  ARG97       0.2591
     74  O         35.1090    2.4800   -8.7930 O.2    97  ARG97      -0.2718
     75  CB        32.9930    0.3330   -8.9330 C.3    97  ARG97       0.0321
     76  CG        32.9860    0.3670  -10.4750 C.3    97  ARG97       0.0489
     77  CD        33.3630   -0.9700  -11.0920 C.3    97  ARG97       0.2205
     78  NE        32.3560   -1.9750  -10.7800 N.pl3  97  ARG97      -0.0865
     79  CZ        32.4630   -3.2770  -11.0420 C.cat  97  ARG97       0.5346
     80  NH1       33.5410   -3.7670  -11.6540 N.pl3  97  ARG97       0.1354
     81  NH2       31.4630   -4.0830  -10.7020 N.pl3  97  ARG97       0.1354
     82  N         36.3290    0.7740   -9.6900 N.am   98  ARG98      -0.1980
     83  CA        37.3190    1.6100  -10.3750 C.3    98  ARG98       0.1597
     84  C         38.0190    2.5950   -9.4180 C.2    98  ARG98       0.2287
     85  O         38.3500    3.7280   -9.7980 O.2    98  ARG98      -0.2864
     86  CB        36.7010    2.3410  -11.5850 C.3    98  ARG98       0.0334
     87  CG        36.2470    1.4300  -12.7260 C.3    98  ARG98       0.0492
     88  CD        35.5490    2.2390  -13.8370 C.3    98  ARG98       0.2205
     89  NE        35.2070    1.4100  -15.0090 N.pl3  98  ARG98      -0.0865
     90  CZ        34.4020    1.7830  -16.0030 C.cat  98  ARG98       0.5346
     91  NH1       34.1740    0.9420  -17.0160 N.pl3  98  ARG98       0.1354
     92  NH2       33.8110    2.9870  -15.9940 N.pl3  98  ARG98       0.1354
     93  N         27.0020  -13.8080  -18.9900 N.3   174  LYS174     -0.1231
     94  CA        27.0930  -12.5520  -18.2850 C.3   174  LYS174      0.1693
     95  C         28.3150  -11.7310  -18.6870 C.2   174  LYS174      0.2592
     96  O         28.2990  -10.5160  -18.5180 O.2   174  LYS174     -0.2718
     97  CB        27.0720  -12.7770  -16.7760 C.3   174  LYS174      0.0285
     98  CG        28.4400  -13.0560  -16.1850 C.3   174  LYS174      0.0035
     99  CD        28.4170  -12.9170  -14.6800 C.3   174  LYS174      0.0206
    100  CE        29.7430  -13.4000  -14.1090 C.3   174  LYS174      0.1093
    101  NZ        29.7780  -13.2140  -12.6190 N.3   174  LYS174     -0.1314
    102  N         29.3570  -12.3810  -19.2170 N.am  175  THR175     -0.1953
    103  CA        30.5970  -11.6650  -19.5320 C.3   175  THR175      0.1897
    104  C         31.0870  -11.8610  -20.9510 C.2   175  THR175      0.2313
    105  O         31.4060  -10.8910  -21.6300 O.2   175  THR175     -0.2863
    106  CB        31.7170  -12.0110  -18.5380 C.3   175  THR175      0.1794
    107  OG1       31.2940  -11.6530  -17.2090 O.3   175  THR175     -0.2208
    108  CG2       33.0110  -11.2610  -18.8860 C.3   175  THR175      0.0378
    109  N         38.8590  -13.8920  -20.0310 N.3   211  PHE211     -0.1227
    110  CA        38.7800  -12.6540  -19.2650 C.3   211  PHE211      0.1736
    111  C         38.0920  -12.8810  -17.9290 C.2   211  PHE211      0.2595
    112  O         38.6160  -12.4880  -16.8820 O.2   211  PHE211     -0.2718
    113  CB        38.0400  -11.5600  -20.0740 C.3   211  PHE211      0.0547
    114  CG        38.0810  -10.1950  -19.4340 C.ar  211  PHE211     -0.0202
    115  CD1       39.1720   -9.3470  -19.6480 C.ar  211  PHE211     -0.0042
    116  CD2       37.0330   -9.7550  -18.6080 C.ar  211  PHE211     -0.0042
    117  CE1       39.2210   -8.0790  -19.0330 C.ar  211  PHE211     -0.0003
    118  CE2       37.0680   -8.4750  -18.0030 C.ar  211  PHE211     -0.0003
    119  CZ        38.1620   -7.6450  -18.2080 C.ar  211  PHE211     -0.0000
    120  N         36.9260  -13.5270  -17.9660 N.am  212  GLN212     -0.1979
    121  CA        36.1350  -13.7280  -16.7550 C.3   212  GLN212      0.1601
    122  C         36.7650  -14.7360  -15.7860 C.2   212  GLN212      0.2287
    123  O         36.7370  -14.5330  -14.5610 O.2   212  GLN212     -0.2864
    124  CB        34.7190  -14.1390  -17.1120 C.3   212  GLN212      0.0394
    125  CG        33.7930  -14.1550  -15.9140 C.3   212  GLN212      0.0908
    126  CD        33.7110  -12.8130  -15.2020 C.2   212  GLN212      0.2608
    127  OE1       33.5480  -11.7720  -15.8280 O.2   212  GLN212     -0.2717
    128  NE2       33.8270  -12.8370  -13.8920 N.am  212  GLN212     -0.0878
    129  N         39.3450  -12.8350  -14.1340 N.3   215  ASP215     -0.1239
    130  CA        38.6700  -11.9600  -13.1760 C.3   215  ASP215      0.1674
    131  C         38.2660  -12.7040  -11.9110 C.2   215  ASP215      0.2266
    132  O         38.4420  -12.1940  -10.7980 O.2   215  ASP215     -0.2867
    133  CB        37.4320  -11.2960  -13.7890 C.3   215  ASP215      0.1410
    134  CG        36.8080  -10.2860  -12.8580 C.2   215  ASP215      0.3668
    135  OD1       35.8430  -10.6500  -12.1250 O.co2 215  ASP215     -0.2456
    136  OD2       37.3160   -9.1410  -12.8180 O.co2 215  ASP215     -0.2456
    137  N         38.5760   -2.5860   -7.0600 N.3   229  LYS229     -0.1245
    138  CA        37.3850   -3.1270   -6.4280 C.3   229  LYS229      0.1561
    139  C         37.8730   -4.0920   -5.3490 C.2   229  LYS229      0.2260
    140  O         39.0020   -4.5570   -5.4150 O.2   229  LYS229     -0.2867
    141  CB        36.4980   -3.8320   -7.4700 C.3   229  LYS229      0.0271
    142  CG        37.1940   -4.9450   -8.2500 C.3   229  LYS229      0.0035
    143  CD        36.4190   -5.3400   -9.5210 C.3   229  LYS229      0.0206
    144  CE        36.9000   -6.6580  -10.0610 C.3   229  LYS229      0.1093
    145  NZ        36.5610   -6.8280  -11.5190 N.3   229  LYS229     -0.1314
    146  N         46.9210  -10.2460  -16.8970 N.3   326  ARG326     -0.1245
    147  CA        46.6420   -8.9840  -16.1760 C.3   326  ARG326      0.1563
    148  C         46.4500   -9.0980  -14.6600 C.2   326  ARG326      0.2260
    149  O         46.0560  -10.1460  -14.1350 O.2   326  ARG326     -0.2867
    150  CB        45.4050   -8.2900  -16.7720 C.3   326  ARG326      0.0307
    151  CG        44.1300   -9.0550  -16.5370 C.3   326  ARG326      0.0489
    152  CD        43.0120   -8.7750  -17.5570 C.3   326  ARG326      0.2205
    153  NE        41.8330   -9.5820  -17.2080 N.pl3 326  ARG326     -0.0865
    154  CZ        40.8850   -9.1870  -16.3650 C.cat 326  ARG326      0.5346
    155  NH1       39.8530   -9.9800  -16.0870 N.pl3 326  ARG326      0.1354
    156  NH2       40.9500   -7.9780  -15.8240 N.pl3 326  ARG326      0.1354
@<TRIPOS>BOND
     1    36    35    2
     2    35    34    1
     3    28    27    2
     4    34    37    1
     5    34    33    1
     6    27    33   am
     7    27    26    1
     8    44    45    1
     9    17    16    2
    10    37    38    1
    11    26    29    1
    12    26    25    1
    13    48    45    1
    14    48    49    1
    15    38    39    1
    16    16    25   am
    17    16    15    1
    18    45    46    1
    19    18    15    1
    20    18    19    1
    21    29    30    1
    22    32    30    1
    23    46    47    2
    24    15    14    1
    25    39    40    1
    26    51    50   ar
    27    49    50    1
    28    30    31    1
    29    19    20    1
    30    20    21    1
    31     8     7    2
    32   105   104    2
    33    50    52   ar
    34    21    22    2
    35    40    41    2
    36    53    54    1
    37    14     7   am
    38     7     6    1
    39   104   103    1
    40    57    54    1
    41    57    58    1
    42    41    42    1
    43    41    43    1
    44    54    55    1
    45   113   114    1
    46   113   110    1
    47   109   110    1
    48    22    24    1
    49    22    23    1
    50   115   114   ar
    51   115   117   ar
    52    58    60   ar
    53    58    59   ar
    54     6     9    1
    55     6     5    1
    56   103   102    1
    57   103   106    1
    58   114   116   ar
    59     9    10    1
    60   110   111    1
    61   102    95   am
    62    60    62   ar
    63   117   119   ar
    64    93    94    1
    65   108   106    1
    66    59    61   ar
    67    55    56    2
    68     4     3    2
    69    95    96    2
    70    95    94    1
    71   116   118   ar
    72   106   107    1
    73     5     3   am
    74    94    97    1
    75   119   118   ar
    76    62    61   ar
    77     3     2    1
    78    10    11    1
    79   120   111   am
    80   120   121    1
    81   111   112    2
    82    11    12    1
    83    12    13    1
    84   152   153    1
    85   152   151    1
    86   153   154    2
    87   124   121    1
    88   124   125    1
    89    91    90    1
    90     2     1    1
    91   146   147    1
    92    97    98    1
    93   150   151    1
    94   150   147    1
    95   121   122    1
    96   154   155    1
    97   154   156    1
    98    98    99    1
    99   147   148    1
   100    90    92    1
   101    90    89    2
   102   125   126    1
   103   127   126    2
   104   122   123    2
   105   126   128   am
   106    69    68    1
   107    68    70    1
   108    68    67    1
   109    89    88    1
   110    63    64    1
   111    99   100    1
   112   148   149    2
   113   129   130    1
   114   100   101    1
   115    67    64    1
   116    88    87    1
   117   133   130    1
   118   133   134    1
   119    64    65    1
   120   130   131    1
   121   134   136   ar
   122   134   135   ar
   123    87    86    1
   124    65    66    2
   125   131   132    2
   126    80    79    1
   127    86    83    1
   128   145   144    1
   129    77    78    1
   130    77    76    1
   131    79    78    2
   132    79    81    1
   133    76    75    1
   134    83    82    1
   135    83    84    1
   136   144   143    1
   137    85    84    2
   138    82    73   am
   139   143   142    1
   140    73    74    2
   141    73    72    1
   142    75    72    1
   143    72    71    1
   144   142   141    1
   145   141   138    1
   146   137   138    1
   147   138   139    1
   148   140   139    2
