@<TRIPOS>MOLECULE
tmp/3oyrB01.pdb
 166 152 0 0 0
SMALL
GASTEIGER

@<TRIPOS>ATOM
      1  N         28.0840   -1.7320  -21.1370 N.3    81  HIS81      -0.1241
      2  CA        28.9830   -2.1990  -20.0910 C.3    81  HIS81       0.1621
      3  C         28.8270   -1.3700  -18.7950 C.2    81  HIS81       0.2264
      4  O         28.6480   -1.9340  -17.7070 O.2    81  HIS81      -0.2867
      5  CB        30.4210   -2.2070  -20.6170 C.3    81  HIS81       0.0745
      6  CG        31.4640   -2.4420  -19.5670 C.ar   81  HIS81       0.0817
      7  ND1       31.5080   -3.5870  -18.8020 N.ar   81  HIS81      -0.2268
      8  CD2       32.5390   -1.7040  -19.1990 C.ar   81  HIS81       0.1154
      9  CE1       32.5440   -3.5300  -17.9820 C.ar   81  HIS81       0.1986
     10  NE2       33.1870   -2.3980  -18.2030 N.ar   81  HIS81      -0.2212
     11  N         25.6320   -2.1080  -16.9630 N.3    84  THR84      -0.1203
     12  CA        25.6390   -3.4170  -16.3010 C.3    84  THR84       0.1994
     13  C         26.4500   -3.3530  -15.0130 C.2    84  THR84       0.2617
     14  O         26.1110   -4.0250  -14.0530 O.2    84  THR84      -0.2717
     15  CB        26.2480   -4.5490  -17.1600 C.3    84  THR84       0.1784
     16  OG1       27.6460   -4.3050  -17.3430 O.3    84  THR84      -0.2211
     17  CG2       25.5380   -4.6750  -18.5060 C.3    84  THR84       0.0376
     18  N         27.5130   -2.5490  -15.0090 N.am   85  LEU85      -0.1979
     19  CA        28.2690   -2.2680  -13.7760 C.3    85  LEU85       0.1596
     20  C         27.4270   -1.6500  -12.6700 C.2    85  LEU85       0.2287
     21  O         27.4770   -2.1080  -11.5210 O.2    85  LEU85      -0.2864
     22  CB        29.4830   -1.3790  -14.0470 C.3    85  LEU85       0.0297
     23  CG        30.5280   -1.9330  -15.0120 C.3    85  LEU85       0.0022
     24  CD1       31.6650   -0.9400  -15.1510 C.3    85  LEU85       0.0001
     25  CD2       31.0600   -3.3220  -14.5760 C.3    85  LEU85       0.0001
     26  N         24.9920   -4.3130  -11.5860 N.3    88  ASP88      -0.1225
     27  CA        25.6180   -5.4600  -10.9560 C.3    88  ASP88       0.1805
     28  C         26.1700   -5.0860   -9.5770 C.2    88  ASP88       0.2597
     29  O         26.0210   -5.8560   -8.6330 O.2    88  ASP88      -0.2718
     30  CB        26.6940   -6.0500  -11.8610 C.3    88  ASP88       0.1424
     31  CG        27.4180   -7.2300  -11.2280 C.2    88  ASP88       0.3668
     32  OD1       26.8720   -8.3500  -11.1970 O.co2  88  ASP88      -0.2456
     33  OD2       28.5580   -7.0350  -10.7590 O.co2  88  ASP88      -0.2456
     34  N         26.7610   -3.8950   -9.4510 N.am   89  ASP89      -0.1974
     35  CA        27.2220   -3.4080   -8.1380 C.3    89  ASP89       0.1709
     36  C         26.1070   -3.2330   -7.1140 C.2    89  ASP89       0.2293
     37  O         26.3290   -3.4850   -5.9220 O.2    89  ASP89      -0.2864
     38  CB        28.0040   -2.1000   -8.2580 C.3    89  ASP89       0.1436
     39  CG        29.4250   -2.3050   -8.7550 C.2    89  ASP89       0.3671
     40  OD1       30.0120   -3.3960   -8.5290 O.co2  89  ASP89      -0.2456
     41  OD2       29.9500   -1.3620   -9.3870 O.co2  89  ASP89      -0.2456
     42  N         25.0510   -7.0300   -6.2390 N.3    92  ASP92      -0.1239
     43  CA        26.0570   -7.7060   -5.4320 C.3    92  ASP92       0.1674
     44  C         26.3570   -7.0200   -4.0880 C.2    92  ASP92       0.2266
     45  O         26.9450   -7.6320   -3.1920 O.2    92  ASP92      -0.2867
     46  CB        27.3420   -7.8310   -6.2330 C.3    92  ASP92       0.1410
     47  CG        27.2980   -8.9500   -7.2320 C.2    92  ASP92       0.3668
     48  OD1       28.2160   -9.0050   -8.0880 O.co2  92  ASP92      -0.2456
     49  OD2       26.3580   -9.7700   -7.1780 O.co2  92  ASP92      -0.2456
     50  N         28.4680   -4.4070   -3.7950 N.3    94  SER94      -0.1217
     51  CA        29.8980   -4.0380   -3.8150 C.3    94  SER94       0.1889
     52  C         30.1180   -2.5760   -3.4270 C.2    94  SER94       0.2288
     53  O         29.3260   -1.7140   -3.8010 O.2    94  SER94      -0.2866
     54  CB        30.4970   -4.2960   -5.1960 C.3    94  SER94       0.2089
     55  OG        30.4880   -5.6830   -5.4960 O.3    94  SER94      -0.2183
     56  N         34.3920    0.4550   -6.8990 N.3    97  ARG97      -0.1245
     57  CA        34.4100    0.2380   -8.3360 C.3    97  ARG97       0.1563
     58  C         35.3180    1.2670   -8.9700 C.2    97  ARG97       0.2260
     59  O         35.1090    2.4800   -8.7930 O.2    97  ARG97      -0.2867
     60  CB        32.9930    0.3330   -8.9330 C.3    97  ARG97       0.0307
     61  CG        32.9860    0.3670  -10.4750 C.3    97  ARG97       0.0489
     62  CD        33.3630   -0.9700  -11.0920 C.3    97  ARG97       0.2205
     63  NE        32.3560   -1.9750  -10.7800 N.pl3  97  ARG97      -0.0865
     64  CZ        32.4630   -3.2770  -11.0420 C.cat  97  ARG97       0.5346
     65  NH1       33.5410   -3.7670  -11.6540 N.pl3  97  ARG97       0.1354
     66  NH2       31.4630   -4.0830  -10.7020 N.pl3  97  ARG97       0.1354
     67  N         23.1400  -11.1160  -21.2010 N.3   146  ILE146     -0.1245
     68  CA        23.7150  -10.6370  -19.9420 C.3   146  ILE146      0.1561
     69  C         22.7280  -10.7410  -18.7860 C.2   146  ILE146      0.2260
     70  O         23.0680  -11.2800  -17.7420 O.2   146  ILE146     -0.2867
     71  CB        24.2430   -9.1830  -20.0700 C.3   146  ILE146      0.0252
     72  CG1       25.4470   -9.1580  -21.0130 C.3   146  ILE146      0.0019
     73  CG2       24.6380   -8.6220  -18.7230 C.3   146  ILE146      0.0019
     74  CD1       25.7080   -7.8110  -21.6410 C.3   146  ILE146      0.0001
     75  N         22.9660  -13.1200  -15.4490 N.3   150  GLU150     -0.1245
     76  CA        22.9590  -12.5520  -14.1030 C.3   150  GLU150      0.1567
     77  C         21.8670  -13.1600  -13.2280 C.2   150  GLU150      0.2260
     78  O         22.0680  -13.3870  -12.0270 O.2   150  GLU150     -0.2867
     79  CB        22.7660  -11.0420  -14.1810 C.3   150  GLU150      0.0388
     80  CG        23.9870  -10.2580  -14.7320 C.3   150  GLU150      0.1160
     81  CD        24.9600   -9.8670  -13.6380 C.2   150  GLU150      0.3649
     82  OE1       25.6340  -10.7620  -13.0780 O.co2 150  GLU150     -0.2457
     83  OE2       25.0490   -8.6560  -13.3440 O.co2 150  GLU150     -0.2457
     84  N         27.0020  -13.8080  -18.9900 N.3   174  LYS174     -0.1231
     85  CA        27.0930  -12.5520  -18.2850 C.3   174  LYS174      0.1693
     86  C         28.3150  -11.7310  -18.6870 C.2   174  LYS174      0.2592
     87  O         28.2990  -10.5160  -18.5180 O.2   174  LYS174     -0.2718
     88  CB        27.0720  -12.7770  -16.7760 C.3   174  LYS174      0.0285
     89  CG        28.4400  -13.0560  -16.1850 C.3   174  LYS174      0.0035
     90  CD        28.4170  -12.9170  -14.6800 C.3   174  LYS174      0.0206
     91  CE        29.7430  -13.4000  -14.1090 C.3   174  LYS174      0.1093
     92  NZ        29.7780  -13.2140  -12.6190 N.3   174  LYS174     -0.1314
     93  N         29.3570  -12.3810  -19.2170 N.am  175  THR175     -0.1953
     94  CA        30.5970  -11.6650  -19.5320 C.3   175  THR175      0.1897
     95  C         31.0870  -11.8610  -20.9510 C.2   175  THR175      0.2313
     96  O         31.4060  -10.8910  -21.6300 O.2   175  THR175     -0.2863
     97  CB        31.7170  -12.0110  -18.5380 C.3   175  THR175      0.1794
     98  OG1       31.2940  -11.6530  -17.2090 O.3   175  THR175     -0.2208
     99  CG2       33.0110  -11.2610  -18.8860 C.3   175  THR175      0.0378
    100  N         36.9260  -13.5270  -17.9660 N.3   212  GLN212     -0.1245
    101  CA        36.1350  -13.7280  -16.7550 C.3   212  GLN212      0.1566
    102  C         36.7650  -14.7360  -15.7860 C.2   212  GLN212      0.2260
    103  O         36.7370  -14.5330  -14.5610 O.2   212  GLN212     -0.2867
    104  CB        34.7190  -14.1390  -17.1120 C.3   212  GLN212      0.0367
    105  CG        33.7930  -14.1550  -15.9140 C.3   212  GLN212      0.0905
    106  CD        33.7110  -12.8130  -15.2020 C.2   212  GLN212      0.2608
    107  OE1       33.5480  -11.7720  -15.8280 O.2   212  GLN212     -0.2717
    108  NE2       33.8270  -12.8370  -13.8920 N.am  212  GLN212     -0.0878
    109  N         39.3450  -12.8350  -14.1340 N.3   215  ASP215     -0.1225
    110  CA        38.6700  -11.9600  -13.1760 C.3   215  ASP215      0.1805
    111  C         38.2660  -12.7040  -11.9110 C.2   215  ASP215      0.2597
    112  O         38.4420  -12.1940  -10.7980 O.2   215  ASP215     -0.2718
    113  CB        37.4320  -11.2960  -13.7890 C.3   215  ASP215      0.1424
    114  CG        36.8080  -10.2860  -12.8580 C.2   215  ASP215      0.3668
    115  OD1       35.8430  -10.6500  -12.1250 O.co2 215  ASP215     -0.2456
    116  OD2       37.3160   -9.1410  -12.8180 O.co2 215  ASP215     -0.2456
    117  N         37.7190  -13.9080  -12.0810 N.am  216  ASP216     -0.1974
    118  CA        37.3460  -14.7460  -10.9500 C.3   216  ASP216      0.1709
    119  C         38.5610  -15.1530  -10.0980 C.2   216  ASP216      0.2293
    120  O         38.4820  -15.1410   -8.8700 O.2   216  ASP216     -0.2864
    121  CB        36.5380  -15.9610  -11.4180 C.3   216  ASP216      0.1436
    122  CG        35.1090  -15.5850  -11.8460 C.2   216  ASP216      0.3671
    123  OD1       34.6950  -14.4130  -11.6840 O.co2 216  ASP216     -0.2456
    124  OD2       34.3870  -16.4660  -12.3430 O.co2 216  ASP216     -0.2456
    125  N         39.7860  -12.2090   -8.0610 N.3   219  ASP219     -0.1239
    126  CA        38.9630  -11.9160   -6.9010 C.3   219  ASP219      0.1674
    127  C         39.5620  -12.4850   -5.6070 C.2   219  ASP219      0.2266
    128  O         39.4090  -11.9070   -4.5330 O.2   219  ASP219     -0.2867
    129  CB        37.5450  -12.4330   -7.0850 C.3   219  ASP219      0.1410
    130  CG        36.5170  -11.5790   -6.3390 C.2   219  ASP219      0.3668
    131  OD1       36.3400  -10.3960   -6.7020 O.co2 219  ASP219     -0.2456
    132  OD2       35.8910  -12.0890   -5.3900 O.co2 219  ASP219     -0.2456
    133  N         38.5760   -2.5860   -7.0600 N.3   229  LYS229     -0.1245
    134  CA        37.3850   -3.1270   -6.4280 C.3   229  LYS229      0.1561
    135  C         37.8730   -4.0920   -5.3490 C.2   229  LYS229      0.2260
    136  O         39.0020   -4.5570   -5.4150 O.2   229  LYS229     -0.2867
    137  CB        36.4980   -3.8320   -7.4700 C.3   229  LYS229      0.0271
    138  CG        37.1940   -4.9450   -8.2500 C.3   229  LYS229      0.0035
    139  CD        36.4190   -5.3400   -9.5210 C.3   229  LYS229      0.0206
    140  CE        36.9000   -6.6580  -10.0610 C.3   229  LYS229      0.1093
    141  NZ        36.5610   -6.8280  -11.5190 N.3   229  LYS229     -0.1314
    142  N         34.9460  -10.0040   -2.8230 N.3   233  ASP233     -0.1225
    143  CA        33.5090   -9.7650   -3.0430 C.3   233  ASP233      0.1805
    144  C         32.7190  -11.0570   -3.2860 C.2   233  ASP233      0.2597
    145  O         31.6880  -11.2340   -2.6620 O.2   233  ASP233     -0.2718
    146  CB        33.2500   -8.7520   -4.1720 C.3   233  ASP233      0.1424
    147  CG        33.2790   -7.2970   -3.6880 C.2   233  ASP233      0.3668
    148  OD1       33.4200   -7.0690   -2.4630 O.co2 233  ASP233     -0.2456
    149  OD2       33.1560   -6.3810   -4.5420 O.co2 233  ASP233     -0.2456
    150  N         33.2180  -11.9520   -4.1520 N.am  234  ASP234     -0.1974
    151  CA        32.5380  -13.2300   -4.4450 C.3   234  ASP234      0.1709
    152  C         32.3890  -14.0500   -3.1680 C.2   234  ASP234      0.2293
    153  O         31.2830  -14.4870   -2.8400 O.2   234  ASP234     -0.2864
    154  CB        33.2730  -14.0750   -5.5060 C.3   234  ASP234      0.1436
    155  CG        33.3700  -13.3870   -6.8860 C.2   234  ASP234      0.3671
    156  OD1       32.5280  -12.5220   -7.2350 O.co2 234  ASP234     -0.2456
    157  OD2       34.3150  -13.7310   -7.6300 O.co2 234  ASP234     -0.2456
    158  N         29.1600  -16.2860   -3.2420 N.3   239  LYS239     -0.1245
    159  CA        29.0880  -16.5920   -4.6580 C.3   239  LYS239      0.1561
    160  C         30.1710  -17.5910   -5.0630 C.2   239  LYS239      0.2260
    161  O         31.3660  -17.2970   -4.9990 O.2   239  LYS239     -0.2867
    162  CB        29.1960  -15.2960   -5.4720 C.3   239  LYS239      0.0271
    163  CG        28.9320  -15.4510   -6.9590 C.3   239  LYS239      0.0035
    164  CD        28.1720  -14.2520   -7.5010 C.3   239  LYS239      0.0206
    165  CE        29.0750  -13.1130   -7.8930 C.3   239  LYS239      0.1093
    166  NZ        28.2680  -11.9200   -8.2490 N.3   239  LYS239     -0.1314
@<TRIPOS>BOND
     1    74    72    1
     2    96    95    2
     3    67    68    1
     4     1     2    1
     5    72    71    1
     6    95    94    1
     7     5     2    1
     8     5     6    1
     9     2     3    1
    10    71    68    1
    11    71    73    1
    12    68    69    1
    13     6     8   ar
    14     6     7   ar
    15    94    93    1
    16    94    97    1
    17    93    86   am
    18     8    10   ar
    19    84    85    1
    20    99    97    1
    21     7     9   ar
    22     3     4    2
    23    69    70    2
    24    86    87    2
    25    86    85    1
    26    97    98    1
    27    17    15    1
    28    85    88    1
    29    10     9   ar
    30   100   101    1
    31    16    15    1
    32    15    12    1
    33   104   101    1
    34   104   105    1
    35    11    12    1
    36    88    89    1
    37   101   102    1
    38    12    13    1
    39    89    90    1
    40   105   106    1
    41   107   106    2
    42   102   103    2
    43    75    76    1
    44   106   108   am
    45    24    23    1
    46    13    18   am
    47    13    14    2
    48    23    25    1
    49    23    22    1
    50    18    19    1
    51    80    79    1
    52    80    81    1
    53    90    91    1
    54    79    76    1
    55   109   110    1
    56    91    92    1
    57    76    77    1
    58    22    19    1
    59   113   110    1
    60   113   114    1
    61    19    20    1
    62    81    83   ar
    63    81    82   ar
    64    77    78    2
    65   110   111    1
    66   114   116   ar
    67   114   115   ar
    68    20    21    2
    69   124   122   ar
    70   117   111   am
    71   117   118    1
    72   111   112    2
    73    30    31    1
    74    30    27    1
    75   122   123   ar
    76   122   121    1
    77    65    64    1
    78    26    27    1
    79   141   140    1
    80   121   118    1
    81    31    32   ar
    82    31    33   ar
    83    62    63    1
    84    62    61    1
    85    64    63    2
    86    64    66    1
    87    27    28    1
    88   118   119    1
    89    61    60    1
    90   119   120    2
    91   140   139    1
    92    28    34   am
    93    28    29    2
    94   139   138    1
    95    34    35    1
    96    41    39   ar
    97    58    59    2
    98    58    57    1
    99    60    57    1
   100    39    40   ar
   101    39    38    1
   102    57    56    1
   103    38    35    1
   104   138   137    1
   105   166   165    1
   106    35    36    1
   107    48    47   ar
   108   125   126    1
   109   165   164    1
   110   157   155   ar
   111   164   163    1
   112   137   134    1
   113   156   155   ar
   114    47    49   ar
   115    47    46    1
   116    36    37    2
   117   129   126    1
   118   129   130    1
   119   133   134    1
   120   163   162    1
   121   126   127    1
   122   155   154    1
   123   131   130   ar
   124   134   135    1
   125   130   132   ar
   126    42    43    1
   127    46    43    1
   128   127   128    2
   129   154   151    1
   130    55    54    1
   131   162   159    1
   132    43    44    1
   133   136   135    2
   134    54    51    1
   135   160   161    2
   136   160   159    1
   137   159   158    1
   138   149   147   ar
   139   151   150    1
   140   151   152    1
   141   146   147    1
   142   146   143    1
   143   150   144   am
   144    44    45    2
   145    51    50    1
   146    51    52    1
   147    53    52    2
   148   147   148   ar
   149   144   143    1
   150   144   145    2
   151   152   153    2
   152   143   142    1
