@<TRIPOS>MOLECULE
tmp/3oysA00.pdb
 140 136 0 0 0
SMALL
GASTEIGER

@<TRIPOS>ATOM
      1  N        -12.6720    6.3180   11.2650 N.3    89  GLN89      -0.1245
      2  CA       -12.3980    5.1710   10.4080 C.3    89  GLN89       0.1566
      3  C        -12.6420    3.8990   11.1750 C.2    89  GLN89       0.2260
      4  O        -12.6650    3.9140   12.4140 O.2    89  GLN89      -0.2867
      5  CB       -10.9470    5.1850    9.8720 C.3    89  GLN89       0.0367
      6  CG        -9.8740    5.2930   10.9830 C.3    89  GLN89       0.0905
      7  CD        -9.0920    4.0440   11.2320 C.2    89  GLN89       0.2608
      8  OE1       -9.6010    2.9330   11.1230 O.2    89  GLN89      -0.2717
      9  NE2       -7.8490    4.2300   11.6340 N.am   89  GLN89      -0.0878
     10  N        -11.2810   -0.4000   10.9110 N.3    91  HIS91      -0.1241
     11  CA       -10.3910   -1.3540   10.3180 C.3    91  HIS91       0.1621
     12  C        -10.4350   -2.6280   11.1120 C.2    91  HIS91       0.2264
     13  O        -11.0950   -2.7070   12.1550 O.2    91  HIS91      -0.2867
     14  CB        -8.9670   -0.8290   10.2420 C.3    91  HIS91       0.0745
     15  CG        -8.3940   -0.5780   11.5910 C.ar   91  HIS91       0.0817
     16  ND1       -8.5340    0.6260   12.2470 N.ar   91  HIS91      -0.2268
     17  CD2       -7.7450   -1.4080   12.4430 C.ar   91  HIS91       0.1154
     18  CE1       -7.9620    0.5340   13.4400 C.ar   91  HIS91       0.1986
     19  NE2       -7.4840   -0.6900   13.5800 N.ar   91  HIS91      -0.2212
     20  N         -8.0390   -6.3260   12.3690 N.3    93  HIS93      -0.1241
     21  CA        -6.8380   -7.1380   12.4950 C.3    93  HIS93       0.1621
     22  C         -7.2400   -8.5910   12.3890 C.2    93  HIS93       0.2264
     23  O         -8.3120   -8.9660   12.9100 O.2    93  HIS93      -0.2867
     24  CB        -6.1440   -6.9110   13.8350 C.3    93  HIS93       0.0745
     25  CG        -5.8800   -5.4710   14.1220 C.ar   93  HIS93       0.0817
     26  ND1       -4.6440   -4.8950   13.8960 N.ar   93  HIS93      -0.2268
     27  CD2       -6.6970   -4.4640   14.5380 C.ar   93  HIS93       0.1154
     28  CE1       -4.7070   -3.6070   14.1900 C.ar   93  HIS93       0.1986
     29  NE2       -5.9430   -3.3150   14.5660 N.ar   93  HIS93      -0.2212
     30  N        -11.9800   -2.6080   14.8230 N.3   116  HIS116     -0.1241
     31  CA       -11.7630   -1.3770   15.5670 C.3   116  HIS116      0.1621
     32  C        -12.4360   -0.2280   14.9010 C.2   116  HIS116      0.2264
     33  O        -12.0890    0.1290   13.7750 O.2   116  HIS116     -0.2867
     34  CB       -10.2560   -1.0910   15.6220 C.3   116  HIS116      0.0745
     35  CG        -9.5340   -2.0530   16.5070 C.ar  116  HIS116      0.0817
     36  ND1       -8.1620   -2.2550   16.4750 N.ar  116  HIS116     -0.2268
     37  CD2      -10.0110   -2.8970   17.4460 C.ar  116  HIS116      0.1154
     38  CE1       -7.8330   -3.1550   17.3760 C.ar  116  HIS116      0.1986
     39  NE2       -8.9380   -3.5710   17.9740 N.ar  116  HIS116     -0.2212
     40  N        -12.7360    3.5560   15.2220 N.3   118  VAL118     -0.1245
     41  CA       -11.8960    4.5690   15.8480 C.3   118  VAL118      0.1561
     42  C        -12.5800    5.9120   15.8970 C.2   118  VAL118      0.2260
     43  O        -13.0410    6.4080   14.8630 O.2   118  VAL118     -0.2867
     44  CB       -10.5900    4.7100   15.0430 C.3   118  VAL118      0.0252
     45  CG1       -9.6800    5.7410   15.6660 C.3   118  VAL118      0.0019
     46  CG2       -9.8390    3.3550   14.9050 C.3   118  VAL118      0.0019
     47  N         -8.2000   14.9780   14.8360 N.3   127  PHE127     -0.1227
     48  CA        -7.5980   13.7030   15.2120 C.3   127  PHE127      0.1736
     49  C         -6.1490   13.8610   15.6120 C.2   127  PHE127      0.2596
     50  O         -5.7160   13.2520   16.5970 O.2   127  PHE127     -0.2718
     51  CB        -7.7080   12.7230   14.0390 C.3   127  PHE127      0.0547
     52  CG        -7.2030   11.3560   14.3370 C.ar  127  PHE127     -0.0202
     53  CD1       -8.0130   10.4230   14.9900 C.ar  127  PHE127     -0.0042
     54  CD2       -5.9370   10.9730   13.9450 C.ar  127  PHE127     -0.0042
     55  CE1       -7.5580    9.1760   15.2830 C.ar  127  PHE127     -0.0003
     56  CE2       -5.4760    9.7300   14.2230 C.ar  127  PHE127     -0.0003
     57  CZ        -6.2930    8.8000   14.8790 C.ar  127  PHE127     -0.0000
     58  N         -5.3640   14.6300   14.8510 N.am  128  GLY128     -0.1957
     59  CA        -3.9650   14.7690   15.1740 C.3   128  GLY128      0.1869
     60  C         -3.7160   15.3940   16.5430 C.2   128  GLY128      0.2309
     61  O         -2.7020   15.0690   17.1810 O.2   128  GLY128     -0.2863
     62  N         -4.8330   12.6100   19.4140 N.3   131  VAL131     -0.1245
     63  CA        -3.9140   11.5110   19.7510 C.3   131  VAL131      0.1561
     64  C         -2.8070   11.9220   20.7440 C.2   131  VAL131      0.2260
     65  O         -2.1030   11.0620   21.2810 O.2   131  VAL131     -0.2867
     66  CB        -3.2460   10.8460   18.5220 C.3   131  VAL131      0.0252
     67  CG1       -4.3100   10.2360   17.6400 C.3   131  VAL131      0.0019
     68  CG2       -2.3750   11.8280   17.7690 C.3   131  VAL131      0.0019
     69  N        -11.8360    3.7710   21.0970 N.3   139  VAL139     -0.1245
     70  CA       -11.8890    2.7450   20.0670 C.3   139  VAL139      0.1561
     71  C        -12.8420    1.6640   20.5380 C.2   139  VAL139      0.2260
     72  O        -12.6830    1.1450   21.6550 O.2   139  VAL139     -0.2867
     73  CB       -10.4900    2.1360   19.7000 C.3   139  VAL139      0.0252
     74  CG1      -10.6500    1.1240   18.5630 C.3   139  VAL139      0.0019
     75  CG2       -9.5400    3.2150   19.2510 C.3   139  VAL139      0.0019
     76  N         -2.9390    3.1420   21.1630 N.3   194  LEU194     -0.1231
     77  CA        -2.9320    2.5980   19.8030 C.3   194  LEU194      0.1693
     78  C         -2.1840    1.2770   19.8430 C.2   194  LEU194      0.2593
     79  O         -1.1630    1.1280   20.5390 O.2   194  LEU194     -0.2718
     80  CB        -2.1990    3.5310   18.8160 C.3   194  LEU194      0.0284
     81  CG        -2.7380    4.9570   18.7580 C.3   194  LEU194      0.0019
     82  CD1       -1.8830    5.7810   17.8060 C.3   194  LEU194      0.0001
     83  CD2       -4.2130    4.9880   18.3610 C.3   194  LEU194      0.0001
     84  N         -2.6200    0.3090   19.0440 N.am  195  THR195     -0.1939
     85  CA        -1.9770   -1.0050   19.0500 C.3   195  THR195      0.2028
     86  C         -0.9490   -1.1640   17.9310 C.2   195  THR195      0.2643
     87  O         -0.4080   -2.2350   17.7920 O.2   195  THR195     -0.2714
     88  CB        -2.9940   -2.1270   18.8940 C.3   195  THR195      0.1808
     89  OG1       -3.5690   -2.0240   17.5880 O.3   195  THR195     -0.2208
     90  CG2       -4.0790   -2.0770   19.9620 C.3   195  THR195      0.0379
     91  N         -0.6970   -0.1080   17.1520 N.am  196  THR196     -0.1937
     92  CA         0.4310   -0.0470   16.2300 C.3   196  THR196      0.2013
     93  C          1.2170    1.2130   16.5340 C.2   196  THR196      0.2484
     94  O          0.7060    2.1630   17.1150 O.2   196  THR196     -0.2729
     95  CB        -0.0250    0.0050   14.7360 C.3   196  THR196      0.1807
     96  OG1       -0.4380    1.3350   14.3690 O.3   196  THR196     -0.2208
     97  CG2       -1.1580   -0.9250   14.4780 C.3   196  THR196      0.0379
     98  N          2.4660    1.2600   16.0690 N.am  197  PRO197     -0.2715
     99  CA         3.1790    2.5210   16.1310 C.3   197  PRO197      0.1521
    100  C          2.3060    3.6430   15.5590 C.2   197  PRO197      0.2440
    101  O          1.5950    3.4400   14.5510 O.2   197  PRO197     -0.2731
    102  CB         4.4160    2.2140   15.2730 C.3   197  PRO197      0.0310
    103  CG         4.6610    0.7970   15.5050 C.3   197  PRO197      0.0237
    104  CD         3.2710    0.1970   15.4480 C.3   197  PRO197      0.0939
    105  N          2.3280    4.8220   16.1780 N.am  198  PRO198     -0.2727
    106  CA         3.2310    5.2580   17.2600 C.3   198  PRO198      0.1402
    107  C          2.8740    4.8740   18.6990 C.2   198  PRO198      0.2269
    108  O          3.5130    5.3440   19.6230 O.2   198  PRO198     -0.2865
    109  CB         3.2280    6.7810   17.0940 C.3   198  PRO198      0.0296
    110  CG         1.8910    7.0870   16.5710 C.3   198  PRO198      0.0237
    111  CD         1.5250    5.9500   15.6640 C.3   198  PRO198      0.0939
    112  N          0.6330    5.5080   20.8070 N.3   200  LEU200     -0.1245
    113  CA         0.3200    6.6050   21.7140 C.3   200  LEU200      0.1561
    114  C         -0.7280    6.1990   22.7400 C.2   200  LEU200      0.2260
    115  O         -1.7200    5.5300   22.4250 O.2   200  LEU200     -0.2867
    116  CB        -0.1200    7.8340   20.9100 C.3   200  LEU200      0.0270
    117  CG         0.9430    8.4040   19.9530 C.3   200  LEU200      0.0019
    118  CD1        0.3550    9.4780   19.0820 C.3   200  LEU200      0.0001
    119  CD2        2.0610    9.0160   20.7580 C.3   200  LEU200      0.0001
    120  N         -6.0100    6.2450   24.2090 N.3   203  VAL203     -0.1245
    121  CA        -7.2440    5.5360   23.8550 C.3   203  VAL203      0.1561
    122  C         -8.0200    5.0600   25.0740 C.2   203  VAL203      0.2260
    123  O         -7.4590    4.3890   25.9510 O.2   203  VAL203     -0.2867
    124  CB        -6.9580    4.2840   22.9680 C.3   203  VAL203      0.0252
    125  CG1       -8.2680    3.5950   22.6240 C.3   203  VAL203      0.0019
    126  CG2       -6.1760    4.6580   21.7030 C.3   203  VAL203      0.0019
    127  N        -10.4130    2.2880   25.6030 N.3   205  TRP205     -0.1241
    128  CA       -10.8450    1.0800   24.9240 C.3   205  TRP205      0.1605
    129  C        -12.1870    0.6610   25.4410 C.2   205  TRP205      0.2264
    130  O        -12.3990    0.5810   26.6360 O.2   205  TRP205     -0.2867
    131  CB        -9.8260   -0.0750   25.1030 C.3   205  TRP205      0.0550
    132  CG        -8.7280    0.0570   24.0990 C.ar  205  TRP205      0.0003
    133  CD1       -7.4950    0.6390   24.2820 C.ar  205  TRP205      0.0946
    134  CD2       -8.7880   -0.3410   22.7240 C.ar  205  TRP205      0.0152
    135  NE1       -6.8070    0.6380   23.0900 N.ar  205  TRP205     -0.2442
    136  CE2       -7.5720    0.0300   22.1280 C.ar  205  TRP205      0.0810
    137  CE3       -9.7650   -0.9690   21.9330 C.ar  205  TRP205      0.0012
    138  CZ2       -7.3070   -0.2010   20.7830 C.ar  205  TRP205      0.0191
    139  CZ3       -9.4970   -1.2230   20.6070 C.ar  205  TRP205      0.0001
    140  CH2       -8.2910   -0.8230   20.0330 C.ar  205  TRP205      0.0015
@<TRIPOS>BOND
     1     5     2    1
     2     5     6    1
     3    14    11    1
     4    14    15    1
     5    11    10    1
     6    11    12    1
     7     2     3    1
     8     2     1    1
     9     6     7    1
    10    12    13    2
    11     8     7    2
    12     3     4    2
    13     7     9   am
    14    15    16   ar
    15    15    17   ar
    16    16    18   ar
    17    20    21    1
    18    22    21    1
    19    22    23    2
    20    17    19   ar
    21    21    24    1
    22    18    19   ar
    23    33    32    2
    24    24    25    1
    25    26    25   ar
    26    26    28   ar
    27    54    56   ar
    28    54    52   ar
    29    51    52    1
    30    51    48    1
    31    25    27   ar
    32    28    29   ar
    33    56    57   ar
    34    52    53   ar
    35    96    95    1
    36    97    95    1
    37    27    29   ar
    38   101   100    2
    39    95    92    1
    40    30    31    1
    41    47    48    1
    42    58    59    1
    43    58    49   am
    44    43    42    2
    45    57    55   ar
    46    32    31    1
    47    46    44    1
    48    53    55   ar
    49    44    45    1
    50    44    41    1
    51    59    60    1
    52    48    49    1
    53    40    41    1
    54   102   103    1
    55   102    99    1
    56   104   103    1
    57   104    98    1
    58   100    99    1
    59   100   105   am
    60    31    34    1
    61    49    50    2
    62    34    35    1
    63   111   105    1
    64   111   110    1
    65    41    42    1
    66    98    99    1
    67    98    93   am
    68   105   106    1
    69    92    93    1
    70    92    91    1
    71    36    35   ar
    72    36    38   ar
    73    35    37   ar
    74    93    94    2
    75    60    61    2
    76   110   109    1
    77   109   106    1
    78    91    86   am
    79   106   107    1
    80    38    39   ar
    81    37    39   ar
    82    89    88    1
    83    67    66    1
    84    68    66    1
    85    87    86    2
    86    82    81    1
    87    86    85    1
    88    83    81    1
    89    66    63    1
    90    74    73    1
    91   107   108    2
    92    81    80    1
    93    80    77    1
    94    88    85    1
    95    88    90    1
    96    84    85    1
    97    84    78   am
    98   118   117    1
    99    75    73    1
   100    62    63    1
   101    73    70    1
   102    63    64    1
   103    77    78    1
   104    77    76    1
   105    78    79    2
   106   117   119    1
   107   117   116    1
   108   140   139   ar
   109   140   138   ar
   110    70    71    1
   111    70    69    1
   112    71    72    2
   113   139   137   ar
   114    64    65    2
   115   138   136   ar
   116   112   113    1
   117   116   113    1
   118   126   124    1
   119   113   114    1
   120   137   134   ar
   121   136   134   ar
   122   136   135   ar
   123   115   114    2
   124   125   124    1
   125   134   132   ar
   126   124   121    1
   127   135   133   ar
   128   121   120    1
   129   121   122    1
   130   132   133   ar
   131   132   131    1
   132   128   131    1
   133   128   129    1
   134   128   127    1
   135   122   123    2
   136   129   130    2
