@<TRIPOS>MOLECULE
tmp/3oz0A00.pdb
 229 215 0 0 0
SMALL
GASTEIGER

@<TRIPOS>ATOM
      1  N         -6.9990  -26.9290   44.6520 N.3    33  ILE33      -0.1245
      2  CA        -7.3480  -26.6520   46.0370 C.3    33  ILE33       0.1561
      3  C         -8.4750  -25.6270   46.0410 C.2    33  ILE33       0.2260
      4  O         -8.2430  -24.4360   45.8200 O.2    33  ILE33      -0.2867
      5  CB        -6.1280  -26.1160   46.8190 C.3    33  ILE33       0.0252
      6  CG1       -5.0500  -27.2030   46.9200 C.3    33  ILE33       0.0019
      7  CG2       -6.5310  -25.6580   48.2170 C.3    33  ILE33       0.0019
      8  CD1       -3.6530  -26.6630   47.1280 C.3    33  ILE33       0.0001
      9  N         -7.3740  -28.3490   50.5990 N.3    39  LEU39      -0.1245
     10  CA        -6.2690  -27.5560   51.1470 C.3    39  LEU39       0.1561
     11  C         -5.3990  -28.3900   52.0890 C.2    39  LEU39       0.2260
     12  O         -4.1770  -28.2440   52.1070 O.2    39  LEU39      -0.2867
     13  CB        -6.8070  -26.3300   51.8920 C.3    39  LEU39       0.0270
     14  CG        -5.7740  -25.3360   52.4290 C.3    39  LEU39       0.0019
     15  CD1       -5.0830  -24.6050   51.2890 C.3    39  LEU39       0.0001
     16  CD2       -6.4350  -24.3470   53.3730 C.3    39  LEU39       0.0001
     17  N         -3.1140  -20.2250   55.0190 N.3    65  VAL65      -0.1231
     18  CA        -2.9460  -19.6140   53.7010 C.3    65  VAL65       0.1692
     19  C         -2.0240  -18.3920   53.7990 C.2    65  VAL65       0.2592
     20  O         -1.2230  -18.1330   52.8980 O.2    65  VAL65      -0.2718
     21  CB        -4.3150  -19.2240   53.0860 C.3    65  VAL65       0.0266
     22  CG1       -4.1380  -18.4150   51.8030 C.3    65  VAL65       0.0020
     23  CG2       -5.1370  -20.4730   52.8040 C.3    65  VAL65       0.0020
     24  N         -2.1440  -17.6520   54.9000 N.am   66  PHE66      -0.1976
     25  CA        -1.2680  -16.5170   55.1820 C.3    66  PHE66       0.1639
     26  C          0.1750  -16.9720   55.4040 C.2    66  PHE66       0.2290
     27  O          1.1140  -16.2700   55.0330 O.2    66  PHE66      -0.2864
     28  CB        -1.7800  -15.7620   56.4070 C.3    66  PHE66       0.0560
     29  CG        -0.9820  -14.5340   56.7460 C.ar   66  PHE66      -0.0200
     30  CD1       -1.0660  -13.3930   55.9630 C.ar   66  PHE66      -0.0042
     31  CD2       -0.1600  -14.5170   57.8580 C.ar   66  PHE66      -0.0042
     32  CE1       -0.3330  -12.2580   56.2850 C.ar   66  PHE66      -0.0003
     33  CE2        0.5760  -13.3880   58.1830 C.ar   66  PHE66      -0.0003
     34  CZ         0.4910  -12.2580   57.3960 C.ar   66  PHE66      -0.0000
     35  N          1.4100  -19.7390   53.9540 N.3    68  ARG68      -0.1231
     36  CA         1.8650  -20.1690   52.6300 C.3    68  ARG68       0.1694
     37  C          2.1890  -18.9900   51.7100 C.2    68  ARG68       0.2592
     38  O          3.0430  -19.1050   50.8300 O.2    68  ARG68      -0.2718
     39  CB         0.8260  -21.0750   51.9660 C.3    68  ARG68       0.0321
     40  CG         0.6580  -22.4340   52.6310 C.3    68  ARG68       0.0489
     41  CD         1.8110  -23.3820   52.3110 C.3    68  ARG68       0.2205
     42  NE         1.9000  -24.4730   53.2830 N.pl3  68  ARG68      -0.0865
     43  CZ         2.8260  -25.4310   53.2750 C.cat  68  ARG68       0.5346
     44  NH1        3.7710  -25.4570   52.3390 N.pl3  68  ARG68       0.1354
     45  NH2        2.8070  -26.3730   54.2120 N.pl3  68  ARG68       0.1354
     46  N          1.5070  -17.8660   51.9060 N.am   69  CYS69      -0.1956
     47  CA         1.8340  -16.6430   51.1760 C.3    69  CYS69       0.1843
     48  C          3.1990  -16.1040   51.5910 C.2    69  CYS69       0.2625
     49  O          3.9420  -15.5830   50.7570 O.2    69  CYS69      -0.2714
     50  CB         0.7710  -15.5690   51.4020 C.3    69  CYS69       0.0997
     51  SG        -0.7980  -15.9190   50.5970 S.3    69  CYS69      -0.0797
     52  N          3.5210  -16.2230   52.8780 N.am   70  GLN70      -0.1977
     53  CA         4.8280  -15.8090   53.3790 C.3    70  GLN70       0.1601
     54  C          5.9370  -16.6630   52.7760 C.2    70  GLN70       0.2287
     55  O          6.9030  -16.1300   52.2360 O.2    70  GLN70      -0.2864
     56  CB         4.8840  -15.8870   54.9070 C.3    70  GLN70       0.0394
     57  CG         4.1020  -14.7900   55.6160 C.3    70  GLN70       0.0908
     58  CD         4.4230  -14.7070   57.0950 C.2    70  GLN70       0.2608
     59  OE1        5.5830  -14.7550   57.4920 O.2    70  GLN70      -0.2717
     60  NE2        3.3920  -14.5730   57.9170 N.am   70  GLN70      -0.0878
     61  N          6.0250  -18.5560   50.0710 N.3    72  THR72      -0.1203
     62  CA         6.1600  -18.2560   48.6490 C.3    72  THR72       0.1994
     63  C          7.0960  -17.0710   48.4170 C.2    72  THR72       0.2618
     64  O          8.0590  -17.1740   47.6590 O.2    72  THR72      -0.2717
     65  CB         4.7850  -17.9340   48.0230 C.3    72  THR72       0.1784
     66  OG1        3.8980  -19.0410   48.2220 O.3    72  THR72      -0.2211
     67  CG2        4.9040  -17.6480   46.5260 C.3    72  THR72       0.0376
     68  N          6.8130  -15.9550   49.0810 N.am   73  THR73      -0.1952
     69  CA         7.5680  -14.7180   48.8690 C.3    73  THR73       0.1897
     70  C          8.9840  -14.7980   49.4340 C.2    73  THR73       0.2313
     71  O          9.9210  -14.2890   48.8230 O.2    73  THR73      -0.2863
     72  CB         6.8570  -13.4950   49.4820 C.3    73  THR73       0.1794
     73  OG1        6.6870  -13.6910   50.8920 O.3    73  THR73      -0.2208
     74  CG2        5.4970  -13.2740   48.8190 C.3    73  THR73       0.0378
     75  N          9.1280   -6.9920   46.3540 N.3   107  HIS107     -0.1241
     76  CA         7.6920   -7.2440   46.2220 C.3   107  HIS107      0.1621
     77  C          7.1640   -6.7770   44.8730 C.2   107  HIS107      0.2264
     78  O          6.3390   -7.4520   44.2580 O.2   107  HIS107     -0.2867
     79  CB         6.9190   -6.5850   47.3610 C.3   107  HIS107      0.0745
     80  CG         7.0860   -7.2860   48.6680 C.ar  107  HIS107      0.0817
     81  ND1        7.9580   -6.8510   49.6420 N.ar  107  HIS107     -0.2268
     82  CD2        6.5140   -8.4140   49.1500 C.ar  107  HIS107      0.1154
     83  CE1        7.9040   -7.6730   50.6750 C.ar  107  HIS107      0.1986
     84  NE2        7.0340   -8.6290   50.4020 N.ar  107  HIS107     -0.2212
     85  N          5.3790   -9.5200   42.4550 N.3   111  PHE111     -0.1241
     86  CA         3.9980   -9.4400   41.9690 C.3   111  PHE111      0.1605
     87  C          3.9300   -9.4370   40.4440 C.2   111  PHE111      0.2264
     88  O          2.9740   -9.9580   39.8630 O.2   111  PHE111     -0.2867
     89  CB         3.2740   -8.2190   42.5490 C.3   111  PHE111      0.0534
     90  CG         3.1640   -8.2350   44.0550 C.ar  111  PHE111     -0.0203
     91  CD1        2.7950   -9.3940   44.7330 C.ar  111  PHE111     -0.0042
     92  CD2        3.4160   -7.0860   44.7980 C.ar  111  PHE111     -0.0042
     93  CE1        2.6960   -9.4080   46.1160 C.ar  111  PHE111     -0.0003
     94  CE2        3.3150   -7.1000   46.1880 C.ar  111  PHE111     -0.0003
     95  CZ         2.9540   -8.2630   46.8440 C.ar  111  PHE111     -0.0000
     96  N          4.7630  -13.1160   39.7090 N.3   114  LEU114     -0.1231
     97  CA         3.6290  -13.9700   40.0820 C.3   114  LEU114      0.1693
     98  C          2.4400  -13.8700   39.1210 C.2   114  LEU114      0.2591
     99  O          1.5650  -14.7320   39.1380 O.2   114  LEU114     -0.2718
    100  CB         3.1750  -13.6910   41.5260 C.3   114  LEU114      0.0284
    101  CG         3.7250  -14.6530   42.5900 C.3   114  LEU114      0.0019
    102  CD1        5.2490  -14.7880   42.5220 C.3   114  LEU114      0.0001
    103  CD2        3.2830  -14.2210   43.9840 C.3   114  LEU114      0.0001
    104  N          2.4090  -12.8290   38.2900 N.am  115  ALA115     -0.1980
    105  CA         1.3980  -12.7170   37.2380 C.3   115  ALA115      0.1597
    106  C          1.5320  -13.8590   36.2310 C.2   115  ALA115      0.2287
    107  O          0.5380  -14.3100   35.6620 O.2   115  ALA115     -0.2864
    108  CB         1.5080  -11.3730   36.5340 C.3   115  ALA115      0.0319
    109  N         -0.6070  -17.0040   37.1760 N.3   118  VAL118     -0.1245
    110  CA        -1.9660  -16.6250   37.5520 C.3   118  VAL118      0.1561
    111  C         -2.8640  -16.5450   36.3230 C.2   118  VAL118      0.2260
    112  O         -2.4150  -16.1600   35.2450 O.2   118  VAL118     -0.2867
    113  CB        -1.9580  -15.2530   38.2790 C.3   118  VAL118      0.0252
    114  CG1       -3.3560  -14.6380   38.3590 C.3   118  VAL118      0.0019
    115  CG2       -1.3730  -15.4010   39.6670 C.3   118  VAL118      0.0019
    116  N         -4.3640  -19.3560   40.8500 N.3   123  LEU123     -0.1245
    117  CA        -2.9210  -19.3320   40.5930 C.3   123  LEU123      0.1561
    118  C         -2.2490  -20.6670   40.8990 C.2   123  LEU123      0.2260
    119  O         -2.7820  -21.4760   41.6580 O.2   123  LEU123     -0.2867
    120  CB        -2.2530  -18.2330   41.4260 C.3   123  LEU123      0.0270
    121  CG        -2.0380  -18.4660   42.9300 C.3   123  LEU123      0.0019
    122  CD1       -0.8240  -17.6850   43.4230 C.3   123  LEU123      0.0001
    123  CD2       -3.2840  -18.1030   43.7370 C.3   123  LEU123      0.0001
    124  N          0.6650  -22.9670   42.6670 N.3   125  VAL125     -0.1231
    125  CA         1.3500  -22.9510   43.9620 C.3   125  VAL125      0.1692
    126  C          2.1240  -24.2440   44.1750 C.2   125  VAL125      0.2591
    127  O          1.8800  -25.2420   43.4930 O.2   125  VAL125     -0.2718
    128  CB         0.3600  -22.8000   45.1390 C.3   125  VAL125      0.0266
    129  CG1       -0.4390  -21.5120   45.0170 C.3   125  VAL125      0.0020
    130  CG2       -0.5730  -24.0090   45.2280 C.3   125  VAL125      0.0020
    131  N          3.0390  -24.2170   45.1420 N.am  126  ALA126     -0.1980
    132  CA         3.8070  -25.3960   45.5420 C.3   126  ALA126      0.1597
    133  C          4.4650  -26.0880   44.3480 C.2   126  ALA126      0.2287
    134  O          4.1570  -27.2420   44.0350 O.2   126  ALA126     -0.2864
    135  CB         2.9160  -26.3720   46.3130 C.3   126  ALA126      0.0319
    136  N         -4.5110  -23.1540   43.4910 N.3   132  VAL132     -0.1245
    137  CA        -5.4710  -22.6320   44.4690 C.3   132  VAL132      0.1561
    138  C         -6.4720  -21.7330   43.7590 C.2   132  VAL132      0.2260
    139  O         -6.0820  -20.8280   43.0180 O.2   132  VAL132     -0.2867
    140  CB        -4.7870  -21.8300   45.5980 C.3   132  VAL132      0.0252
    141  CG1       -5.8000  -21.4400   46.6680 C.3   132  VAL132      0.0019
    142  CG2       -3.6650  -22.6380   46.2240 C.3   132  VAL132      0.0019
    143  N         -9.9590  -18.0980   48.0580 N.3   137  LEU137     -0.1245
    144  CA        -9.2990  -16.9280   48.6330 C.3   137  LEU137      0.1561
    145  C        -10.3020  -15.8120   48.9630 C.2   137  LEU137      0.2260
    146  O        -10.0500  -14.9810   49.8420 O.2   137  LEU137     -0.2867
    147  CB        -8.1910  -16.4360   47.6910 C.3   137  LEU137      0.0270
    148  CG        -6.8800  -17.2480   47.6710 C.3   137  LEU137      0.0019
    149  CD1       -7.0110  -18.6740   48.2170 C.3   137  LEU137      0.0001
    150  CD2       -6.2810  -17.2810   46.2650 C.3   137  LEU137      0.0001
    151  N         -6.1840   -8.7030   50.7740 N.3   147  ILE147     -0.1231
    152  CA        -4.8030   -8.5440   50.2720 C.3   147  ILE147      0.1692
    153  C         -4.4860   -9.4490   49.0850 C.2   147  ILE147      0.2591
    154  O         -3.5370   -9.1860   48.3510 O.2   147  ILE147     -0.2718
    155  CB        -3.7160   -8.7730   51.3660 C.3   147  ILE147      0.0266
    156  CG1       -3.9570  -10.0750   52.1360 C.3   147  ILE147      0.0019
    157  CG2       -3.6640   -7.5900   52.3040 C.3   147  ILE147      0.0020
    158  CD1       -2.8660  -10.4090   53.1280 C.3   147  ILE147      0.0001
    159  N         -5.2710  -10.5060   48.8990 N.am  148  ILE148     -0.1980
    160  CA        -5.0660  -11.4310   47.7850 C.3   148  ILE148      0.1595
    161  C         -5.8130  -10.9720   46.5260 C.2   148  ILE148      0.2287
    162  O         -5.3240  -11.1490   45.4070 O.2   148  ILE148     -0.2864
    163  CB        -5.5050  -12.8650   48.1640 C.3   148  ILE148      0.0276
    164  CG1       -4.7020  -13.3660   49.3680 C.3   148  ILE148      0.0022
    165  CG2       -5.2990  -13.8180   46.9980 C.3   148  ILE148      0.0022
    166  CD1       -5.2730  -14.6070   50.0210 C.3   148  ILE148      0.0001
    167  N         -4.3810   -8.3580   43.9300 N.3   151  LYS151     -0.1231
    168  CA        -3.2660   -8.9010   43.1500 C.3   151  LYS151      0.1693
    169  C         -3.7620   -9.5770   41.8730 C.2   151  LYS151      0.2592
    170  O         -3.1750   -9.3940   40.8050 O.2   151  LYS151     -0.2718
    171  CB        -2.4350   -9.8880   43.9870 C.3   151  LYS151      0.0285
    172  CG        -1.4220   -9.2400   44.9330 C.3   151  LYS151      0.0035
    173  CD        -2.0500   -8.1440   45.7700 C.3   151  LYS151      0.0206
    174  CE        -1.1630   -7.7180   46.9190 C.3   151  LYS151      0.1093
    175  NZ        -1.8400   -6.6970   47.7690 N.3   151  LYS151     -0.1314
    176  N         -4.8380  -10.3540   41.9940 N.am  152  PHE152     -0.1976
    177  CA        -5.4540  -11.0260   40.8430 C.3   152  PHE152      0.1639
    178  C         -5.8420  -10.0390   39.7450 C.2   152  PHE152      0.2290
    179  O         -5.5830  -10.2760   38.5620 O.2   152  PHE152     -0.2864
    180  CB        -6.7050  -11.8030   41.2710 C.3   152  PHE152      0.0560
    181  CG        -6.4160  -13.1520   41.8710 C.ar  152  PHE152     -0.0200
    182  CD1       -5.8700  -14.1660   41.0990 C.ar  152  PHE152     -0.0042
    183  CD2       -6.7220  -13.4180   43.1990 C.ar  152  PHE152     -0.0042
    184  CE1       -5.6140  -15.4160   41.6450 C.ar  152  PHE152     -0.0003
    185  CE2       -6.4710  -14.6660   43.7480 C.ar  152  PHE152     -0.0003
    186  CZ        -5.9150  -15.6650   42.9700 C.ar  152  PHE152     -0.0000
    187  N         -2.7560   -8.7710   38.0660 N.3   155  ALA155     -0.1245
    188  CA        -2.0880   -9.8330   37.3070 C.3   155  ALA155      0.1562
    189  C         -2.6940  -10.0480   35.9190 C.2   155  ALA155      0.2260
    190  O         -1.9580  -10.2260   34.9460 O.2   155  ALA155     -0.2867
    191  CB        -2.1050  -11.1350   38.0950 C.3   155  ALA155      0.0290
    192  N         -0.3060   -2.9110   49.7570 N.3   233  HIS233     -0.1241
    193  CA        -0.0170   -4.2180   50.3480 C.3   233  HIS233      0.1621
    194  C          0.6750   -4.0650   51.6990 C.2   233  HIS233      0.2264
    195  O          0.1990   -4.5910   52.7080 O.2   233  HIS233     -0.2867
    196  CB         0.8570   -5.0550   49.4080 C.3   233  HIS233      0.0745
    197  CG         1.1290   -6.4370   49.9130 C.ar  233  HIS233      0.0817
    198  ND1        0.2190   -7.4660   49.7940 N.ar  233  HIS233     -0.2268
    199  CD2        2.2060   -6.9590   50.5470 C.ar  233  HIS233      0.1154
    200  CE1        0.7250   -8.5620   50.3290 C.ar  233  HIS233      0.1986
    201  NE2        1.9300   -8.2820   50.7930 N.ar  233  HIS233     -0.2212
    202  N         -0.5410   -5.2130   55.3340 N.3   237  MET237     -0.1245
    203  CA         0.2960   -6.1270   56.1170 C.3   237  MET237      0.1570
    204  C          0.5670   -5.5830   57.5150 C.2   237  MET237      0.2261
    205  O          0.5860   -6.3390   58.4860 O.2   237  MET237     -0.2867
    206  CB         1.6320   -6.3760   55.4090 C.3   237  MET237      0.0387
    207  CG         1.5340   -7.2420   54.1580 C.3   237  MET237      0.0595
    208  SD         1.1580   -8.9740   54.4870 S.3   237  MET237     -0.1393
    209  CE         2.5870   -9.4800   55.4370 C.3   237  MET237      0.0692
    210  N         10.7880  -11.3440   56.2140 N.3   253  LEU253     -0.1245
    211  CA         9.7120  -10.3810   55.9720 C.3   253  LEU253      0.1561
    212  C          9.6940   -9.2620   57.0140 C.2   253  LEU253      0.2260
    213  O          9.3970   -8.1170   56.6790 O.2   253  LEU253     -0.2867
    214  CB         8.3530  -11.0890   55.9180 C.3   253  LEU253      0.0270
    215  CG         7.9250  -11.6730   54.5630 C.3   253  LEU253      0.0019
    216  CD1        9.0840  -12.2350   53.7520 C.3   253  LEU253      0.0001
    217  CD2        6.8640  -12.7380   54.7720 C.3   253  LEU253      0.0001
    218  N          9.6130   -5.1280   56.0260 N.3   257  TYR257     -0.1241
    219  CA         8.5320   -4.2540   56.4910 C.3   257  TYR257      0.1605
    220  C          8.9140   -3.3490   57.6710 C.2   257  TYR257      0.2264
    221  O          8.1180   -2.4980   58.0800 O.2   257  TYR257     -0.2867
    222  CB         7.2850   -5.0840   56.8100 C.3   257  TYR257      0.0534
    223  CG         6.7000   -5.7230   55.5740 C.ar  257  TYR257     -0.0201
    224  CD1        6.2410   -4.9360   54.5250 C.ar  257  TYR257     -0.0009
    225  CD2        6.6250   -7.1070   55.4390 C.ar  257  TYR257     -0.0009
    226  CE1        5.7180   -5.5020   53.3810 C.ar  257  TYR257      0.0417
    227  CE2        6.0990   -7.6870   54.2910 C.ar  257  TYR257      0.0417
    228  CZ         5.6470   -6.8750   53.2680 C.ar  257  TYR257      0.1957
    229  OH         5.1210   -7.4190   52.1230 O.3   257  TYR257     -0.2866
@<TRIPOS>BOND
     1   190   189    2
     2   112   111    2
     3   107   106    2
     4   189   188    1
     5   106   105    1
     6   111   110    1
     7   108   105    1
     8   109   110    1
     9   105   104    1
    10   188   187    1
    11   188   191    1
    12   110   113    1
    13   113   114    1
    14   113   115    1
    15   104    98   am
    16   179   178    2
    17    98    99    2
    18    98    97    1
    19    96    97    1
    20   178   177    1
    21    88    87    2
    22    97   100    1
    23    87    86    1
    24   117   116    1
    25   117   118    1
    26   117   120    1
    27   170   169    2
    28   177   180    1
    29   177   176    1
    30   118   119    2
    31   182   184   ar
    32   182   181   ar
    33   180   181    1
    34   120   121    1
    35   100   101    1
    36   184   186   ar
    37   181   183   ar
    38   169   176   am
    39   169   168    1
    40    86    85    1
    41    86    89    1
    42   102   101    1
    43    89    90    1
    44   101   103    1
    45   124   125    1
    46   121   122    1
    47   121   123    1
    48   186   185   ar
    49   139   138    2
    50   168   167    1
    51   168   171    1
    52   183   185   ar
    53   136   137    1
    54   127   126    2
    55   138   137    1
    56   125   126    1
    57   125   128    1
    58   171   172    1
    59   134   133    2
    60    90    91   ar
    61    90    92   ar
    62   126   131   am
    63    78    77    2
    64   133   132    1
    65   137   140    1
    66     1     2    1
    67    91    93   ar
    68    92    94   ar
    69    77    76    1
    70   172   173    1
    71   129   128    1
    72   128   130    1
    73   131   132    1
    74   162   161    2
    75   132   135    1
    76   140   142    1
    77   140   141    1
    78   173   174    1
    79     4     3    2
    80     2     3    1
    81     2     5    1
    82    93    95   ar
    83    94    95   ar
    84    76    75    1
    85    76    79    1
    86   150   148    1
    87   161   160    1
    88    67    65    1
    89     5     6    1
    90     5     7    1
    91   174   175    1
    92     6     8    1
    93   165   163    1
    94    79    80    1
    95    64    63    2
    96   148   147    1
    97   148   149    1
    98   147   144    1
    99   160   163    1
   100   160   159    1
   101    65    66    1
   102    65    62    1
   103   143   144    1
   104   163   164    1
   105   154   153    2
   106    63    62    1
   107    63    68   am
   108   144   145    1
   109    62    61    1
   110    80    82   ar
   111    80    81   ar
   112    74    72    1
   113    71    70    2
   114    69    68    1
   115    69    70    1
   116    69    72    1
   117   159   153   am
   118   145   146    2
   119   153   152    1
   120    82    84   ar
   121   164   166    1
   122   196   197    1
   123   196   193    1
   124    72    73    1
   125    81    83   ar
   126   192   193    1
   127   198   197   ar
   128   198   200   ar
   129   197   199   ar
   130   152   151    1
   131   152   155    1
   132   200   201   ar
   133   193   194    1
   134    84    83   ar
   135   199   201   ar
   136    51    50    1
   137     9    10    1
   138    49    48    2
   139    38    37    2
   140    10    13    1
   141    10    11    1
   142    47    50    1
   143    47    48    1
   144    47    46    1
   145    15    14    1
   146   155   156    1
   147   155   157    1
   148    48    52   am
   149   194   195    2
   150    37    46   am
   151    37    36    1
   152    22    21    1
   153    13    14    1
   154    39    36    1
   155    39    40    1
   156    11    12    2
   157   229   228    1
   158   156   158    1
   159    55    54    2
   160    41    40    1
   161    41    42    1
   162    44    43    1
   163    14    16    1
   164    36    35    1
   165    54    53    1
   166    23    21    1
   167    52    53    1
   168    20    19    2
   169    21    18    1
   170   228   226   ar
   171   228   227   ar
   172    43    42    2
   173    43    45    1
   174    53    56    1
   175   226   224   ar
   176    18    19    1
   177    18    17    1
   178   216   215    1
   179    19    24   am
   180   207   208    1
   181   207   206    1
   182   227   225   ar
   183   208   209    1
   184   224   223   ar
   185   215   217    1
   186   215   214    1
   187    24    25    1
   188    56    57    1
   189    27    26    2
   190    25    26    1
   191    25    28    1
   192   202   203    1
   193   206   203    1
   194   225   223   ar
   195   223   222    1
   196    57    58    1
   197   214   211    1
   198    30    32   ar
   199    30    29   ar
   200   211   210    1
   201   211   212    1
   202   218   219    1
   203   203   204    1
   204    32    34   ar
   205    28    29    1
   206   219   222    1
   207   219   220    1
   208   213   212    2
   209    29    31   ar
   210    58    59    2
   211    58    60   am
   212    34    33   ar
   213   204   205    2
   214   220   221    2
   215    31    33   ar
