@<TRIPOS>MOLECULE
tmp/3oz1B00.pdb
 169 165 0 0 0
SMALL
GASTEIGER

@<TRIPOS>ATOM
      1  N        -12.4330  -42.6170   35.1660 N.3    40  VAL40      -0.1245
      2  CA       -12.7540  -43.7720   36.0210 C.3    40  VAL40       0.1561
      3  C        -12.9200  -43.3460   37.5190 C.2    40  VAL40       0.2260
      4  O        -13.7390  -43.9220   38.2360 O.2    40  VAL40      -0.2867
      5  CB       -11.7200  -44.9360   35.8160 C.3    40  VAL40       0.0252
      6  CG1      -11.8180  -46.0220   36.8880 C.3    40  VAL40       0.0019
      7  CG2      -11.8760  -45.5600   34.4520 C.3    40  VAL40       0.0019
      8  N         -9.9360  -42.9300   39.5040 N.3    42  ARG42      -0.1245
      9  CA        -8.6340  -43.1920   40.0910 C.3    42  ARG42       0.1563
     10  C         -7.5500  -42.7760   39.0930 C.2    42  ARG42       0.2260
     11  O         -7.7270  -42.9510   37.8910 O.2    42  ARG42      -0.2867
     12  CB        -8.4900  -44.6630   40.5540 C.3    42  ARG42       0.0307
     13  CG        -8.3770  -45.6720   39.4160 C.3    42  ARG42       0.0489
     14  CD        -8.9390  -47.0180   39.7630 C.3    42  ARG42       0.2205
     15  NE        -9.3330  -47.7280   38.5500 N.pl3  42  ARG42      -0.0865
     16  CZ        -9.6950  -49.0050   38.5030 C.cat  42  ARG42       0.5346
     17  NH1       -9.6950  -49.7470   39.6120 N.pl3  42  ARG42       0.1354
     18  NH2      -10.0430  -49.5610   37.3410 N.pl3  42  ARG42       0.1354
     19  N         -6.7940  -42.8860   34.8560 N.3    45  ASP45      -0.1225
     20  CA        -7.5140  -43.9470   34.1710 C.3    45  ASP45       0.1805
     21  C         -8.7790  -43.4110   33.5590 C.2    45  ASP45       0.2598
     22  O         -9.6410  -42.9010   34.2890 O.2    45  ASP45      -0.2718
     23  CB        -7.8320  -45.1430   35.0940 C.3    45  ASP45       0.1424
     24  CG        -6.6420  -45.8950   35.6700 C.2    45  ASP45       0.3668
     25  OD1       -5.4860  -45.3790   35.5670 O.co2  45  ASP45      -0.2456
     26  OD2       -6.8600  -46.9760   36.2540 O.co2  45  ASP45      -0.2456
     27  N         -8.8740  -43.5200   32.1940 N.am   46  VAL46      -0.1966
     28  CA       -10.0460  -43.1730   31.3840 C.3    46  VAL46       0.1727
     29  C        -10.5610  -44.3900   30.6400 C.2    46  VAL46       0.2616
     30  O         -9.7610  -45.1830   30.1480 O.2    46  VAL46      -0.2715
     31  CB        -9.8530  -41.9710   30.4180 C.3    46  VAL46       0.0290
     32  CG1       -9.6480  -40.6630   31.1640 C.3    46  VAL46       0.0023
     33  CG2       -8.7310  -42.2070   29.4290 C.3    46  VAL46       0.0023
     34  N        -11.8820  -44.5180   30.5010 N.am   47  LYS47      -0.1977
     35  CA       -12.4620  -45.5850   29.6870 C.3    47  LYS47       0.1596
     36  C        -13.3030  -45.0010   28.5100 C.2    47  LYS47       0.2287
     37  O        -13.8500  -43.8950   28.6760 O.2    47  LYS47      -0.2864
     38  CB       -13.2930  -46.5310   30.5660 C.3    47  LYS47       0.0298
     39  CG       -12.4720  -47.6760   31.1190 C.3    47  LYS47       0.0038
     40  CD       -13.2290  -48.4450   32.1780 C.3    47  LYS47       0.0206
     41  CE       -13.7530  -49.7860   31.7440 C.3    47  LYS47       0.1093
     42  NZ       -12.6660  -50.7490   31.4020 N.3    47  LYS47      -0.1314
     43  N         -9.7700  -49.0140   28.0710 N.3    54  GLY54      -0.1210
     44  CA        -9.1460  -48.2120   29.1050 C.3    54  GLY54       0.1956
     45  C         -7.7570  -47.7490   28.7500 C.2    54  GLY54       0.2612
     46  O         -6.9510  -48.5120   28.2070 O.2    54  GLY54      -0.2717
     47  N         -7.4700  -46.4790   29.0530 N.am   55  LEU55      -0.1965
     48  CA        -6.1500  -45.8820   28.8330 C.3    55  LEU55       0.1728
     49  C         -5.6860  -45.1380   30.0790 C.2    55  LEU55       0.2616
     50  O         -6.4890  -44.5560   30.8080 O.2    55  LEU55      -0.2715
     51  CB        -6.1800  -44.9200   27.6450 C.3    55  LEU55       0.0311
     52  CG        -6.4430  -45.4870   26.2700 C.3    55  LEU55       0.0022
     53  CD1       -6.5700  -44.3780   25.3160 C.3    55  LEU55       0.0001
     54  CD2       -5.3270  -46.4630   25.8380 C.3    55  LEU55       0.0001
     55  N         -4.3830  -45.1320   30.3040 N.am   56  ARG56      -0.1963
     56  CA        -3.7670  -44.4430   31.4410 C.3    56  ARG56       0.1729
     57  C         -2.3440  -43.9610   31.1030 C.2    56  ARG56       0.2616
     58  O         -1.8920  -44.1400   29.9680 O.2    56  ARG56      -0.2715
     59  CB        -3.7850  -45.3480   32.6880 C.3    56  ARG56       0.0348
     60  CG        -2.9770  -46.6410   32.5780 C.3    56  ARG56       0.0492
     61  CD        -2.5790  -47.1370   33.9440 C.3    56  ARG56       0.2205
     62  NE        -3.7250  -47.6470   34.7060 N.pl3  56  ARG56      -0.0865
     63  CZ        -4.0420  -48.9340   34.8030 C.cat  56  ARG56       0.5346
     64  NH1       -3.3190  -49.8560   34.1720 N.pl3  56  ARG56       0.1354
     65  NH2       -5.0800  -49.3130   35.5320 N.pl3  56  ARG56       0.1354
     66  N         -1.6540  -43.3480   32.0690 N.am   57  CYS57      -0.1954
     67  CA        -0.2780  -42.8640   31.9040 C.3    57  CYS57       0.1843
     68  C         -0.0980  -41.8120   30.8110 C.2    57  CYS57       0.2625
     69  O          0.8820  -41.8170   30.0780 O.2    57  CYS57      -0.2714
     70  CB         0.7140  -44.0220   31.7700 C.3    57  CYS57       0.0997
     71  SG         0.7720  -45.1080   33.2200 S.3    57  CYS57      -0.0797
     72  N         -1.0460  -40.8960   30.7340 N.am   58  TRP58      -0.1960
     73  CA        -1.0910  -39.7940   29.7830 C.3    58  TRP58       0.1771
     74  C          0.0940  -38.8460   29.9020 C.2    58  TRP58       0.2619
     75  O          0.3030  -38.2170   30.9520 O.2    58  TRP58      -0.2715
     76  CB        -2.4060  -39.0220   29.9400 C.3    58  TRP58       0.0590
     77  CG        -3.5990  -39.8360   29.5650 C.ar   58  TRP58       0.0006
     78  CD1       -4.4410  -40.4970   30.4090 C.ar   58  TRP58       0.0946
     79  CD2       -4.0640  -40.1010   28.2400 C.ar   58  TRP58       0.0152
     80  NE1       -5.4300  -41.1290   29.6890 N.ar   58  TRP58      -0.2442
     81  CE2       -5.2340  -40.8850   28.3570 C.ar   58  TRP58       0.0810
     82  CE3       -3.6510  -39.6900   26.9640 C.ar   58  TRP58       0.0012
     83  CZ2       -5.9580  -41.3170   27.2440 C.ar   58  TRP58       0.0191
     84  CZ3       -4.3710  -40.1190   25.8600 C.ar   58  TRP58       0.0001
     85  CH2       -5.5180  -40.9150   26.0050 C.ar   58  TRP58       0.0015
     86  N          0.8750  -38.7700   28.8150 N.am   59  GLU59      -0.1977
     87  CA         2.0540  -37.9200   28.6780 C.3    59  GLU59       0.1602
     88  C          1.7310  -36.6840   27.8480 C.2    59  GLU59       0.2287
     89  O          0.6820  -36.6270   27.2140 O.2    59  GLU59      -0.2864
     90  CB         3.2250  -38.7130   28.0550 C.3    59  GLU59       0.0415
     91  CG         4.0390  -39.4850   29.0830 C.3    59  GLU59       0.1163
     92  CD         4.6260  -40.8020   28.6060 C.2    59  GLU59       0.3649
     93  OE1        5.6950  -40.7750   27.9520 O.co2  59  GLU59      -0.2457
     94  OE2        4.0360  -41.8640   28.9170 O.co2  59  GLU59      -0.2457
     95  N          0.3320  -36.4950   23.8530 N.3    62  ASP62      -0.1239
     96  CA        -0.4820  -37.6790   23.5910 C.3    62  ASP62       0.1674
     97  C         -1.8300  -37.2420   22.9760 C.2    62  ASP62       0.2266
     98  O         -2.5340  -36.4130   23.5820 O.2    62  ASP62      -0.2867
     99  CB        -0.7460  -38.4540   24.9010 C.3    62  ASP62       0.1410
    100  CG         0.3610  -39.3790   25.3560 C.2    62  ASP62       0.3668
    101  OD1        1.2500  -39.6850   24.5440 O.co2  62  ASP62      -0.2456
    102  OD2        0.2970  -39.8560   26.5030 O.co2  62  ASP62      -0.2456
    103  N         -4.3220  -42.6250   20.2380 N.3    67  GLU67      -0.1245
    104  CA        -4.2070  -43.6650   21.2720 C.3    67  GLU67       0.1567
    105  C         -5.3760  -44.6400   21.2030 C.2    67  GLU67       0.2260
    106  O         -5.1800  -45.8520   21.3330 O.2    67  GLU67      -0.2867
    107  CB        -4.0840  -43.0310   22.6530 C.3    67  GLU67       0.0388
    108  CG        -2.9330  -42.0540   22.8180 C.3    67  GLU67       0.1160
    109  CD        -1.5310  -42.5830   22.5710 C.2    67  GLU67       0.3649
    110  OE1       -1.2730  -43.7800   22.8570 O.co2  67  GLU67      -0.2457
    111  OE2       -0.6810  -41.7740   22.1230 O.co2  67  GLU67      -0.2457
    112  N         -4.7020  -46.7640   18.1260 N.3    70  LYS70      -0.1231
    113  CA        -3.4760  -47.4980   18.4230 C.3    70  LYS70       0.1693
    114  C         -3.7880  -48.7840   19.2230 C.2    70  LYS70       0.2592
    115  O         -3.2670  -49.8410   18.8690 O.2    70  LYS70      -0.2718
    116  CB        -2.5550  -46.5590   19.2300 C.3    70  LYS70       0.0285
    117  CG        -1.1310  -46.9530   19.3940 C.3    70  LYS70       0.0035
    118  CD        -0.4430  -45.9230   20.2670 C.3    70  LYS70       0.0206
    119  CE         1.0370  -45.8170   20.0550 C.3    70  LYS70       0.1093
    120  NZ         1.7830  -46.9450   20.6690 N.3    70  LYS70      -0.1314
    121  N         -4.6460  -48.7050   20.2610 N.am   71  TRP71      -0.1962
    122  CA        -4.9310  -49.8250   21.1540 C.3    71  TRP71       0.1771
    123  C         -6.2910  -50.5570   20.9540 C.2    71  TRP71       0.2619
    124  O         -6.4000  -51.7810   21.1930 O.2    71  TRP71      -0.2715
    125  CB        -4.8110  -49.3440   22.6150 C.3    71  TRP71       0.0590
    126  CG        -3.4540  -48.8290   22.9860 C.ar   71  TRP71       0.0006
    127  CD1       -3.0900  -47.5250   23.1740 C.ar   71  TRP71       0.0946
    128  CD2       -2.2690  -49.6150   23.2060 C.ar   71  TRP71       0.0152
    129  NE1       -1.7380  -47.4480   23.4780 N.ar   71  TRP71      -0.2442
    130  CE2       -1.2130  -48.7150   23.5020 C.ar   71  TRP71       0.0810
    131  CE3       -1.9910  -50.9930   23.1570 C.ar   71  TRP71       0.0012
    132  CZ2        0.0880  -49.1470   23.7630 C.ar   71  TRP71       0.0191
    133  CZ3       -0.6930  -51.4170   23.3920 C.ar   71  TRP71       0.0001
    134  CH2        0.3220  -50.5020   23.7220 C.ar   71  TRP71       0.0015
    135  N         -7.3380  -49.7950   20.5710 N.am   72  PHE72      -0.1974
    136  CA        -8.6970  -50.2900   20.3970 C.3    72  PHE72       0.1639
    137  C         -9.1770  -49.9890   18.9570 C.2    72  PHE72       0.2290
    138  O        -10.1760  -49.2740   18.7570 O.2    72  PHE72      -0.2864
    139  CB        -9.6030  -49.6380   21.4630 C.3    72  PHE72       0.0560
    140  CG        -9.0420  -49.7610   22.8610 C.ar   72  PHE72      -0.0200
    141  CD1       -8.9510  -51.0010   23.4890 C.ar   72  PHE72      -0.0042
    142  CD2       -8.5230  -48.6580   23.5130 C.ar   72  PHE72      -0.0042
    143  CE1       -8.3680  -51.1320   24.7600 C.ar   72  PHE72      -0.0003
    144  CE2       -7.9360  -48.7910   24.7780 C.ar   72  PHE72      -0.0003
    145  CZ        -7.8600  -50.0300   25.3900 C.ar   72  PHE72      -0.0000
    146  N          6.1730  -54.3210   22.2750 N.3   100  GLN100     -0.1231
    147  CA         6.5200  -53.2380   23.1420 C.3   100  GLN100      0.1698
    148  C          6.1570  -53.5820   24.5570 C.2   100  GLN100      0.2592
    149  O          6.9810  -53.4940   25.4210 O.2   100  GLN100     -0.2718
    150  CB         5.7070  -52.0340   22.7030 C.3   100  GLN100      0.0381
    151  CG         6.0790  -50.7120   23.2770 C.3   100  GLN100      0.0905
    152  CD         4.8870  -49.7920   23.2920 C.2   100  GLN100      0.2608
    153  OE1        4.9580  -48.6390   22.8970 O.2   100  GLN100     -0.2717
    154  NE2        3.7700  -50.3130   23.7360 N.am  100  GLN100     -0.0878
    155  N          4.9440  -54.0340   24.8080 N.am  101  LEU101     -0.1980
    156  CA         4.5970  -54.3970   26.1680 C.3   101  LEU101      0.1596
    157  C          5.2630  -55.6500   26.6900 C.2   101  LEU101      0.2287
    158  O          5.6740  -55.7170   27.8210 O.2   101  LEU101     -0.2864
    159  CB         3.1060  -54.3600   26.4380 C.3   101  LEU101      0.0297
    160  CG         2.1180  -54.8440   25.4190 C.3   101  LEU101      0.0022
    161  CD1        2.2020  -56.3120   25.4010 C.3   101  LEU101      0.0001
    162  CD2        0.7660  -54.4310   25.8690 C.3   101  LEU101      0.0001
    163  N          8.1080  -54.7450   28.3620 N.3   104  THR104     -0.1218
    164  CA         7.8620  -54.0470   29.6230 C.3   104  THR104      0.1862
    165  C          6.6760  -54.6460   30.3770 C.2   104  THR104      0.2287
    166  O          6.8320  -55.3140   31.4000 O.2   104  THR104     -0.2866
    167  CB         7.5580  -52.5630   29.4040 C.3   104  THR104      0.1770
    168  OG1        6.1540  -52.3970   29.2100 O.3   104  THR104     -0.2211
    169  CG2        8.2800  -52.0300   28.1950 C.3   104  THR104      0.0375
@<TRIPOS>BOND
     1   112   113    1
     2   113   114    1
     3   113   116    1
     4   138   137    2
     5   115   114    2
     6   137   136    1
     7   114   121   am
     8   116   117    1
     9   117   118    1
    10   119   118    1
    11   119   120    1
    12   103   104    1
    13   121   122    1
    14   136   135    1
    15   136   139    1
    16   135   123   am
    17   123   122    1
    18   123   124    2
    19   122   125    1
    20   105   104    1
    21   105   106    2
    22   104   107    1
    23   139   140    1
    24   111   109   ar
    25   146   147    1
    26   109   108    1
    27   109   110   ar
    28   125   126    1
    29   107   108    1
    30   150   147    1
    31   150   151    1
    32   140   141   ar
    33   140   142   ar
    34   153   152    2
    35    97    98    2
    36    97    96    1
    37   126   127   ar
    38   126   128   ar
    39   147   148    1
    40   131   128   ar
    41   131   133   ar
    42   127   129   ar
    43   128   130   ar
    44   151   152    1
    45   152   154   am
    46   133   134   ar
    47   129   130   ar
    48   141   143   ar
    49   130   132   ar
    50   142   144   ar
    51    96    95    1
    52    96    99    1
    53   134   132   ar
    54   101   100   ar
    55   148   155   am
    56   148   149    2
    57   143   145   ar
    58   144   145   ar
    59   155   156    1
    60    99   100    1
    61    53    52    1
    62   100   102   ar
    63   161   160    1
    64   160   162    1
    65   160   159    1
    66    54    52    1
    67    84    85   ar
    68    84    82   ar
    69    85    83   ar
    70   156   159    1
    71   156   157    1
    72    52    51    1
    73   157   158    2
    74    82    79   ar
    75    89    88    2
    76    83    81   ar
    77    51    48    1
    78    88    87    1
    79    93    92   ar
    80    90    87    1
    81    90    91    1
    82    43    44    1
    83   169   167    1
    84    46    45    2
    85    79    81   ar
    86    79    77   ar
    87    81    80   ar
    88   163   164    1
    89    36    37    2
    90    36    35    1
    91    92    94   ar
    92    92    91    1
    93    87    86    1
    94    45    47   am
    95    45    44    1
    96    86    74   am
    97    48    47    1
    98    48    49    1
    99   168   167    1
   100   167   164    1
   101    33    31    1
   102    77    76    1
   103    77    78   ar
   104   164   165    1
   105    35    34    1
   106    35    38    1
   107    80    78   ar
   108    73    74    1
   109    73    76    1
   110    73    72    1
   111    74    75    2
   112    58    57    2
   113    69    68    2
   114    49    55   am
   115    49    50    2
   116    30    29    2
   117    55    56    1
   118   165   166    2
   119    31    32    1
   120    31    28    1
   121    34    29   am
   122    38    39    1
   123    29    28    1
   124    72    68   am
   125    68    67    1
   126    57    56    1
   127    57    66   am
   128    39    40    1
   129    28    27    1
   130    42    41    1
   131    56    59    1
   132    41    40    1
   133    70    67    1
   134    70    71    1
   135    67    66    1
   136    27    21   am
   137    60    59    1
   138    60    61    1
   139    21    20    1
   140    21    22    2
   141    61    62    1
   142    20    19    1
   143    20    23    1
   144    64    63    1
   145     7     5    1
   146    62    63    2
   147    63    65    1
   148    23    24    1
   149     1     2    1
   150    25    24   ar
   151    24    26   ar
   152     5     2    1
   153     5     6    1
   154     2     3    1
   155    18    16    1
   156     3     4    2
   157    11    10    2
   158    16    15    2
   159    16    17    1
   160    15    14    1
   161    10     9    1
   162    13    14    1
   163    13    12    1
   164     8     9    1
   165     9    12    1
