@<TRIPOS>MOLECULE
tmp/3ozbA00.pdb
 100 92 0 0 0
SMALL
GASTEIGER

@<TRIPOS>ATOM
      1  N         41.8990   -4.3100  157.3690 N.3    83  ALA83      -0.1231
      2  CA        41.5730   -4.9300  156.1060 C.3    83  ALA83       0.1694
      3  C         42.4150   -4.2930  155.0070 C.2    83  ALA83       0.2592
      4  O         42.4200   -3.0710  154.8420 O.2    83  ALA83      -0.2718
      5  CB        40.1130   -4.7480  155.8100 C.3    83  ALA83       0.0304
      6  N         43.1210   -5.1190  154.2430 N.am   84  VAL84      -0.1966
      7  CA        44.0550   -4.6160  153.2430 C.3    84  VAL84       0.1727
      8  C         43.8900   -5.2710  151.8810 C.2    84  VAL84       0.2616
      9  O         43.1600   -6.2460  151.7330 O.2    84  VAL84      -0.2715
     10  CB        45.5240   -4.7780  153.7200 C.3    84  VAL84       0.0290
     11  CG1       45.7820   -3.9040  154.9560 C.3    84  VAL84       0.0023
     12  CG2       45.8520   -6.2490  153.9870 C.3    84  VAL84       0.0023
     13  N         44.5630   -4.7170  150.8850 N.am   85  GLY85      -0.1955
     14  CA        44.7330   -5.4030  149.6130 C.3    85  GLY85       0.1869
     15  C         46.1420   -5.9770  149.5720 C.2    85  GLY85       0.2309
     16  O         47.0570   -5.3910  150.1380 O.2    85  GLY85      -0.2863
     17  N         47.1690    4.2900  152.0290 N.3   158  THR158     -0.1218
     18  CA        46.5940    5.2510  151.0760 C.3   158  THR158      0.1862
     19  C         45.3920    6.0000  151.6470 C.2   158  THR158      0.2287
     20  O         45.0290    5.7820  152.7850 O.2   158  THR158     -0.2866
     21  CB        46.2090    4.5750  149.7710 C.3   158  THR158      0.1770
     22  OG1       45.3050    3.4820  150.0320 O.3   158  THR158     -0.2211
     23  CG2       47.4650    4.0660  149.0830 C.3   158  THR158      0.0375
     24  N         39.4810    2.9590  145.6700 N.3   163  LEU163     -0.1231
     25  CA        40.5820    1.9860  145.5570 C.3   163  LEU163      0.1693
     26  C         41.7070    2.5020  144.6390 C.2   163  LEU163      0.2591
     27  O         41.6320    3.6050  144.0840 O.2   163  LEU163     -0.2718
     28  CB        40.1020    0.5840  145.1350 C.3   163  LEU163      0.0284
     29  CG        39.7100   -0.4980  146.1510 C.3   163  LEU163      0.0019
     30  CD1       40.1820   -0.1980  147.5680 C.3   163  LEU163      0.0001
     31  CD2       38.2340   -0.6640  146.1680 C.3   163  LEU163      0.0001
     32  N         42.7660    1.7190  144.4970 N.am  164  GLU164     -0.1979
     33  CA        43.9190    2.2240  143.7600 C.3   164  GLU164      0.1602
     34  C         43.8670    1.8570  142.2990 C.2   164  GLU164      0.2287
     35  O         43.0990    0.9830  141.8810 O.2   164  GLU164     -0.2864
     36  CB        45.2410    1.7560  144.3540 C.3   164  GLU164      0.0415
     37  CG        45.5670    2.3880  145.6620 C.3   164  GLU164      0.1163
     38  CD        44.7110    1.8570  146.7860 C.2   164  GLU164      0.3649
     39  OE1       44.4150    0.6410  146.7680 O.co2 164  GLU164     -0.2457
     40  OE2       44.3390    2.6590  147.6770 O.co2 164  GLU164     -0.2457
     41  N         48.2020   -2.9250  151.3520 N.3   180  VAL180     -0.1231
     42  CA        47.6830   -1.5730  151.2120 C.3   180  VAL180      0.1692
     43  C         46.2810   -1.4220  151.8030 C.2   180  VAL180      0.2593
     44  O         45.3690   -2.1880  151.4800 O.2   180  VAL180     -0.2718
     45  CB        47.7230   -1.1340  149.7340 C.3   180  VAL180      0.0266
     46  CG1       47.0510   -2.1730  148.8730 C.3   180  VAL180      0.0020
     47  CG2       47.1010    0.2700  149.5460 C.3   180  VAL180      0.0020
     48  N         46.1320   -0.4140  152.6580 N.am  181  GLY181     -0.1942
     49  CA        44.8660   -0.0910  153.2720 C.3   181  GLY181      0.2014
     50  C         44.7900    1.3920  153.5590 C.2   181  GLY181      0.2638
     51  O         45.7640    2.1180  153.3450 O.2   181  GLY181     -0.2714
     52  N         43.6370    1.8340  154.0680 N.am  182  MET182     -0.1976
     53  CA        43.3630    3.2540  154.2880 C.3   182  MET182      0.1605
     54  C         43.3080    3.7160  155.7540 C.2   182  MET182      0.2287
     55  O         43.0580    4.8930  156.0340 O.2   182  MET182     -0.2864
     56  CB        42.0530    3.6230  153.6090 C.3   182  MET182      0.0413
     57  CG        41.9380    3.1690  152.1760 C.3   182  MET182      0.0598
     58  SD        40.2440    3.3630  151.5850 S.3   182  MET182     -0.1393
     59  CE        40.2100    2.2170  150.2120 C.3   182  MET182      0.0692
     60  N         41.9580   -8.7670  152.0920 N.3   205  VAL205     -0.1231
     61  CA        40.5980   -9.0420  151.6770 C.3   205  VAL205      0.1692
     62  C         40.4370   -9.0970  150.1700 C.2   205  VAL205      0.2592
     63  O         39.3960   -9.5440  149.6790 O.2   205  VAL205     -0.2718
     64  CB        39.5990   -8.0540  152.2850 C.3   205  VAL205      0.0266
     65  CG1       39.5340   -8.2370  153.7970 C.3   205  VAL205      0.0020
     66  CG2       39.9690   -6.6230  151.9410 C.3   205  VAL205      0.0020
     67  N         41.4530   -8.6570  149.4270 N.am  206  ASN206     -0.1974
     68  CA        41.4210   -8.6970  147.9630 C.3   206  ASN206      0.1688
     69  C         42.8260   -8.6210  147.3910 C.2   206  ASN206      0.2292
     70  O         43.7390   -8.1560  148.0770 O.2   206  ASN206     -0.2864
     71  CB        40.6180   -7.5140  147.4290 C.3   206  ASN206      0.1181
     72  CG        41.2230   -6.1680  147.8180 C.2   206  ASN206      0.2629
     73  OD1       41.1270   -5.7250  148.9820 O.2   206  ASN206     -0.2716
     74  ND2       41.8490   -5.4990  146.8390 N.am  206  ASN206     -0.0877
     75  N         45.3230   -6.5150  145.2900 N.3   208  ALA208     -0.1231
     76  CA        45.3470   -5.0970  144.9640 C.3   208  ALA208      0.1694
     77  C         45.1490   -4.9580  143.4600 C.2   208  ALA208      0.2591
     78  O         45.3530   -5.9180  142.7200 O.2   208  ALA208     -0.2718
     79  CB        46.6260   -4.4860  145.4030 C.3   208  ALA208      0.0304
     80  N         44.7260   -3.7750  143.0200 N.am  209  ALA209     -0.1980
     81  CA        44.3760   -3.5360  141.6150 C.3   209  ALA209      0.1597
     82  C         45.4330   -4.0820  140.6660 C.2   209  ALA209      0.2287
     83  O         46.6400   -3.9020  140.8990 O.2   209  ALA209     -0.2864
     84  CB        44.1460   -2.0430  141.3640 C.3   209  ALA209      0.0319
     85  N         38.1080   -5.3970  141.2980 N.3   216  ILE216     -0.1245
     86  CA        37.7680   -5.5820  142.7000 C.3   216  ILE216      0.1561
     87  C         36.3130   -5.1770  142.9690 C.2   216  ILE216      0.2260
     88  O         35.8880   -4.0650  142.6470 O.2   216  ILE216     -0.2867
     89  CB        38.7170   -4.8260  143.6250 C.3   216  ILE216      0.0252
     90  CG1       40.1210   -4.7420  143.0210 C.3   216  ILE216      0.0019
     91  CG2       38.7710   -5.5300  144.9470 C.3   216  ILE216      0.0019
     92  CD1       40.9840   -3.6520  143.6090 C.3   216  ILE216      0.0001
     93  N         35.0760   -8.6520  148.7050 N.3   221  ILE221     -0.1245
     94  CA        35.7080   -8.1510  149.9130 C.3   221  ILE221      0.1561
     95  C         34.8730   -8.5040  151.1370 C.2   221  ILE221      0.2260
     96  O         35.4100   -9.0130  152.1130 O.2   221  ILE221     -0.2867
     97  CB        35.9870   -6.6130  149.7910 C.3   221  ILE221      0.0252
     98  CG1       37.1480   -6.3730  148.8240 C.3   221  ILE221      0.0019
     99  CG2       36.2460   -5.9350  151.1630 C.3   221  ILE221      0.0019
    100  CD1       37.7100   -4.9620  148.8530 C.3   221  ILE221      0.0001
@<TRIPOS>BOND
     1    82    83    2
     2    82    81    1
     3    85    86    1
     4    84    81    1
     5    81    80    1
     6    35    34    2
     7    34    33    1
     8    88    87    2
     9    86    87    1
    10    86    89    1
    11    78    77    2
    12    80    77   am
    13    90    92    1
    14    90    89    1
    15    77    76    1
    16    89    91    1
    17    33    36    1
    18    33    32    1
    19    27    26    2
    20    36    37    1
    21    32    26   am
    22    26    25    1
    23    76    75    1
    24    76    79    1
    25    28    25    1
    26    28    29    1
    27    25    24    1
    28    37    38    1
    29    29    31    1
    30    29    30    1
    31    39    38   ar
    32    38    40   ar
    33    74    72   am
    34    69    68    1
    35    69    70    2
    36    71    72    1
    37    71    68    1
    38    72    73    2
    39    68    67    1
    40    93    94    1
    41    98   100    1
    42    98    97    1
    43    46    45    1
    44    23    21    1
    45    67    62   am
    46    47    45    1
    47    15    14    1
    48    15    16    2
    49    14    13    1
    50    63    62    2
    51    45    42    1
    52    21    22    1
    53    21    18    1
    54    97    94    1
    55    97    99    1
    56    94    95    1
    57    62    61    1
    58    59    58    1
    59    13     8   am
    60    18    19    1
    61    18    17    1
    62    95    96    2
    63    42    41    1
    64    42    43    1
    65    44    43    2
    66    58    57    1
    67    19    20    2
    68    61    60    1
    69    61    64    1
    70     9     8    2
    71    43    48   am
    72     8     7    1
    73    66    64    1
    74    57    56    1
    75    64    65    1
    76    48    49    1
    77     7    10    1
    78     7     6    1
    79    49    50    1
    80    51    50    2
    81    50    52   am
    82    56    53    1
    83    10    12    1
    84    10    11    1
    85    52    53    1
    86     6     3   am
    87    53    54    1
    88     4     3    2
    89     3     2    1
    90    54    55    2
    91     5     2    1
    92     2     1    1
