@<TRIPOS>MOLECULE
tmp/3ozdA00.pdb
 165 156 0 0 0
SMALL
GASTEIGER

@<TRIPOS>ATOM
      1  N         14.9370   15.0410    9.0390 N.3    53  HIS53      -0.1241
      2  CA        15.3010   13.7620    9.6600 C.3    53  HIS53       0.1621
      3  C         16.0450   13.9450   10.9690 C.2    53  HIS53       0.2264
      4  O         16.6690   13.0090   11.4830 O.2    53  HIS53      -0.2867
      5  CB        16.1080   12.8910    8.6980 C.3    53  HIS53       0.0745
      6  CG        15.4330   12.6880    7.3830 C.ar   53  HIS53       0.0817
      7  ND1       14.4880   11.7060    7.1790 N.ar   53  HIS53      -0.2268
      8  CD2       15.5400   13.3580    6.2140 C.ar   53  HIS53       0.1154
      9  CE1       14.0590   11.7680    5.9300 C.ar   53  HIS53       0.1986
     10  NE2       14.6780   12.7660    5.3250 N.ar   53  HIS53      -0.2212
     11  N         20.3910   13.4550   11.2420 N.3    57  HIS57      -0.1241
     12  CA        19.7160   12.3190   10.5460 C.3    57  HIS57       0.1621
     13  C         19.6970   10.9270   11.2210 C.2    57  HIS57       0.2264
     14  O         20.5550   10.0740   10.9550 O.2    57  HIS57      -0.2867
     15  CB        20.2080   12.2180    9.0910 C.3    57  HIS57       0.0745
     16  CG        19.4710   13.1140    8.1440 C.ar   57  HIS57       0.0817
     17  ND1       19.2480   14.4530    8.4000 N.ar   57  HIS57      -0.2268
     18  CD2       18.9070   12.8610    6.9360 C.ar   57  HIS57       0.1154
     19  CE1       18.5830   14.9860    7.3900 C.ar   57  HIS57       0.1986
     20  NE2       18.3700   14.0440    6.4840 N.ar   57  HIS57      -0.2212
     21  N         12.3730    7.7790    7.0950 N.3    61  PRO61      -0.2116
     22  CA        11.2940    8.5480    6.4680 C.3    61  PRO61       0.1372
     23  C          9.8910    8.1480    6.9420 C.2    61  PRO61       0.2244
     24  O          9.0510    9.0200    7.1120 O.2    61  PRO61      -0.2868
     25  CB        11.4830    8.2580    4.9900 C.3    61  PRO61       0.0268
     26  CG        13.0150    8.1320    4.8490 C.3    61  PRO61       0.0207
     27  CD        13.3980    7.3600    6.1110 C.3    61  PRO61       0.0892
     28  N         14.2040   18.2580   -1.4130 N.3    85  THR85      -0.1203
     29  CA        14.2560   16.8490   -1.2860 C.3    85  THR85       0.1994
     30  C         15.2230   16.3200   -2.3190 C.2    85  THR85       0.2618
     31  O         15.2230   16.7860   -3.4610 O.2    85  THR85      -0.2717
     32  CB        12.8030   16.2060   -1.4220 C.3    85  THR85       0.1784
     33  OG1       12.9020   14.7890   -1.5770 O.3    85  THR85      -0.2211
     34  CG2       11.9870   16.7830   -2.6070 C.3    85  THR85       0.0376
     35  N         16.0490   15.3510   -1.9150 N.am   86  ALA86      -0.1965
     36  CA        16.7230   14.4470   -2.8400 C.3    86  ALA86       0.1728
     37  C         15.6960   13.5550   -3.5310 C.2    86  ALA86       0.2616
     38  O         14.6480   13.2750   -2.9460 O.2    86  ALA86      -0.2715
     39  CB        17.7390   13.5510   -2.0810 C.3    86  ALA86       0.0334
     40  N         16.0150   13.0890   -4.7510 N.am   87  CYS87      -0.1954
     41  CA        15.1810   12.1260   -5.4430 C.3    87  CYS87       0.1843
     42  C         15.9350   11.3020   -6.4590 C.2    87  CYS87       0.2626
     43  O         17.0040   11.7290   -6.9560 O.2    87  CYS87      -0.2714
     44  CB        13.9690   12.7930   -6.0900 C.3    87  CYS87       0.0997
     45  SG        14.2960   14.0280   -7.2800 S.3    87  CYS87      -0.0797
     46  N         15.3800   10.1330   -6.7870 N.am   88  GLY88      -0.1954
     47  CA        15.9020    9.3350   -7.9040 C.3    88  GLY88       0.1869
     48  C         15.2090    9.7970   -9.1910 C.2    88  GLY88       0.2309
     49  O         13.9860   10.0360   -9.1770 O.2    88  GLY88      -0.2863
     50  N          7.6990    6.2920   -2.1200 N.3   164  ILE164     -0.1245
     51  CA         7.7730    4.9610   -1.5440 C.3   164  ILE164      0.1561
     52  C          7.8960    4.9780   -0.0270 C.2   164  ILE164      0.2260
     53  O          8.4440    5.9150    0.5520 O.2   164  ILE164     -0.2867
     54  CB         8.9420    4.1690   -2.1840 C.3   164  ILE164      0.0252
     55  CG1       10.3090    4.6160   -1.5940 C.3   164  ILE164      0.0019
     56  CG2        8.8360    4.3470   -3.7020 C.3   164  ILE164      0.0019
     57  CD1       11.4970    3.9830   -2.2660 C.3   164  ILE164      0.0001
     58  N         15.6140    1.0930   -0.8020 N.3   169  PHE169     -0.1227
     59  CA        15.3740    1.5300   -2.1920 C.3   169  PHE169      0.1736
     60  C         14.4950    0.5220   -2.9640 C.2   169  PHE169      0.2596
     61  O         14.3010   -0.5890   -2.4830 O.2   169  PHE169     -0.2718
     62  CB        16.6790    1.7550   -2.9110 C.3   169  PHE169      0.0547
     63  CG        17.4850    2.9160   -2.3690 C.ar  169  PHE169     -0.0202
     64  CD1       17.0220    4.2180   -2.4740 C.ar  169  PHE169     -0.0042
     65  CD2       18.7420    2.6970   -1.7930 C.ar  169  PHE169     -0.0042
     66  CE1       17.7950    5.3120   -1.9970 C.ar  169  PHE169     -0.0003
     67  CE2       19.5190    3.7890   -1.3120 C.ar  169  PHE169     -0.0003
     68  CZ        19.0370    5.0790   -1.4370 C.ar  169  PHE169     -0.0000
     69  N         13.9750    0.9060   -4.1480 N.am  170  SER170     -0.1952
     70  CA        13.0860    0.0310   -4.9480 C.3   170  SER170      0.1924
     71  C         13.8100   -1.1450   -5.6050 C.2   170  SER170      0.2314
     72  O         15.0240   -1.0630   -5.9180 O.2   170  SER170     -0.2863
     73  CB        12.3370    0.8650   -5.9980 C.3   170  SER170      0.2116
     74  OG        11.8420    2.0770   -5.4040 O.3   170  SER170     -0.2180
     75  N         11.5120    9.8820   -7.7410 N.3   186  ILE186     -0.1231
     76  CA        11.0840    8.9860   -6.6950 C.3   186  ILE186      0.1692
     77  C         11.6740    9.4280   -5.3590 C.2   186  ILE186      0.2592
     78  O         12.8220    9.8570   -5.2980 O.2   186  ILE186     -0.2718
     79  CB        11.4360    7.5310   -7.0230 C.3   186  ILE186      0.0266
     80  CG1       10.9960    6.5890   -5.8870 C.3   186  ILE186      0.0019
     81  CG2       12.9510    7.3820   -7.3150 C.3   186  ILE186      0.0020
     82  CD1       11.1400    5.0990   -6.3030 C.3   186  ILE186      0.0001
     83  N         10.8890    9.3770   -4.2910 N.am  187  ASN187     -0.1960
     84  CA        11.4530    9.6820   -2.9450 C.3   187  ASN187      0.1819
     85  C         10.7490    8.9290   -1.8100 C.2   187  ASN187      0.2621
     86  O         10.0670    7.9160   -2.0650 O.2   187  ASN187     -0.2715
     87  CB        11.6200   11.2210   -2.6860 C.3   187  ASN187      0.1195
     88  CG        10.3290   11.9470   -2.2650 C.2   187  ASN187      0.2630
     89  OD1        9.2490   11.3500   -2.1020 O.2   187  ASN187     -0.2716
     90  ND2       10.4310   13.2810   -2.1370 N.am  187  ASN187     -0.0877
     91  N         10.9420    9.4000   -0.5830 N.am  188  MET188     -0.1963
     92  CA        10.3900    8.7580    0.6050 C.3   188  MET188      0.1736
     93  C          9.6390    9.7090    1.5170 C.2   188  MET188      0.2617
     94  O          9.0990    9.2750    2.5400 O.2   188  MET188     -0.2715
     95  CB        11.5050    8.0540    1.4220 C.3   188  MET188      0.0427
     96  CG        12.1580    6.8770    0.6580 C.3   188  MET188      0.0599
     97  SD        13.5230    6.1030    1.5340 S.3   188  MET188     -0.1393
     98  CE        14.2800    5.2240    0.1690 C.3   188  MET188      0.0692
     99  N          9.5880   10.9930    1.1780 N.am  189  THR189     -0.1951
    100  CA         9.0370   11.9800    2.1350 C.3   189  THR189      0.1897
    101  C          7.9410   12.9510    1.6520 C.2   189  THR189      0.2313
    102  O          7.2540   13.6070    2.4520 O.2   189  THR189     -0.2863
    103  CB        10.1830   12.7720    2.7780 C.3   189  THR189      0.1794
    104  OG1       10.9140   13.4650    1.7530 O.3   189  THR189     -0.2208
    105  CG2       11.1350   11.7870    3.5010 C.3   189  THR189      0.0378
    106  N         19.3700   12.8990   -7.6960 N.3   211  THR211     -0.1203
    107  CA        20.6780   12.5450   -7.1820 C.3   211  THR211      0.1994
    108  C         21.2460   11.2930   -7.7940 C.2   211  THR211      0.2617
    109  O         22.4040   11.0290   -7.5910 O.2   211  THR211     -0.2717
    110  CB        20.7150   12.4310   -5.6220 C.3   211  THR211      0.1784
    111  OG1       19.6940   11.5160   -5.1620 O.3   211  THR211     -0.2211
    112  CG2       20.4970   13.7730   -4.9720 C.3   211  THR211      0.0376
    113  N         20.4290   10.5530   -8.5510 N.am  212  ASP212     -0.1973
    114  CA        20.7180    9.1920   -9.0290 C.3   212  ASP212      0.1709
    115  C         19.5710    8.8580   -9.9800 C.2   212  ASP212      0.2293
    116  O         18.5700    9.5690  -10.0260 O.2   212  ASP212     -0.2864
    117  CB        20.7060    8.1740   -7.8690 C.3   212  ASP212      0.1436
    118  CG        19.3740    8.1650   -7.1060 C.2   212  ASP212      0.3671
    119  OD1       18.4160    7.4790   -7.5610 O.co2 212  ASP212     -0.2456
    120  OD2       19.2870    8.8500   -6.0470 O.co2 212  ASP212     -0.2456
    121  N         18.1040    5.8780   -9.7130 N.3   214  ASP214     -0.1239
    122  CA        17.5310    4.6940   -9.0740 C.3   214  ASP214      0.1674
    123  C         18.2660    3.4340   -9.5620 C.2   214  ASP214      0.2266
    124  O         19.4840    3.3300   -9.4560 O.2   214  ASP214     -0.2867
    125  CB        16.0040    4.6070   -9.3490 C.3   214  ASP214      0.1410
    126  CG        15.2230    3.7680   -8.2760 C.2   214  ASP214      0.3668
    127  OD1       15.5310    3.8340   -7.0600 O.co2 214  ASP214     -0.2456
    128  OD2       14.2590    3.0540   -8.6670 O.co2 214  ASP214     -0.2456
    129  N         21.3570    2.9690   -7.4170 N.3   223  VAL223     -0.1245
    130  CA        21.4100    3.9000   -6.2830 C.3   223  VAL223      0.1561
    131  C         22.0040    3.2560   -5.0000 C.2   223  VAL223      0.2260
    132  O         21.8530    2.0480   -4.7640 O.2   223  VAL223     -0.2867
    133  CB        19.9870    4.5170   -6.0330 C.3   223  VAL223      0.0252
    134  CG1       18.9540    3.4100   -5.7670 C.3   223  VAL223      0.0019
    135  CG2       19.9850    5.5730   -4.9310 C.3   223  VAL223      0.0019
    136  N         23.1770    4.7700   -0.6780 N.3   225  VAL225     -0.1245
    137  CA        23.3950    5.9010    0.2260 C.3   225  VAL225      0.1561
    138  C         24.6160    6.7710   -0.1880 C.2   225  VAL225      0.2260
    139  O         24.5230    7.9980   -0.3000 O.2   225  VAL225     -0.2867
    140  CB        23.4940    5.3920    1.7060 C.3   225  VAL225      0.0252
    141  CG1       24.0600    6.4650    2.6210 C.3   225  VAL225      0.0019
    142  CG2       22.0890    4.9650    2.1950 C.3   225  VAL225      0.0019
    143  N         24.0620    8.8270   -3.4410 N.3   228  VAL228     -0.1231
    144  CA        23.1350    9.9600   -3.1730 C.3   228  VAL228      0.1692
    145  C         23.8810   11.0390   -2.3720 C.2   228  VAL228      0.2591
    146  O         23.6710   12.2210   -2.5900 O.2   228  VAL228     -0.2718
    147  CB        21.8750    9.5250   -2.3770 C.3   228  VAL228      0.0266
    148  CG1       20.9260   10.6980   -2.0970 C.3   228  VAL228      0.0020
    149  CG2       21.1160    8.4270   -3.0900 C.3   228  VAL228      0.0020
    150  N         24.7710   10.6280   -1.4690 N.am  229  LEU229     -0.1980
    151  CA        25.3610   11.5820   -0.5220 C.3   229  LEU229      0.1596
    152  C         26.3560   12.4920   -1.2420 C.2   229  LEU229      0.2287
    153  O         26.3690   13.6900   -1.0250 O.2   229  LEU229     -0.2864
    154  CB        26.0130   10.8880    0.6920 C.3   229  LEU229      0.0297
    155  CG        25.1710   10.4990    1.9190 C.3   229  LEU229      0.0022
    156  CD1       25.9780    9.6170    2.8810 C.3   229  LEU229      0.0001
    157  CD2       24.6140   11.7290    2.6950 C.3   229  LEU229      0.0001
    158  N         24.5740   14.7670   -3.7940 N.3   232  LEU232     -0.1245
    159  CA        23.9110   15.7640   -3.0220 C.3   232  LEU232      0.1561
    160  C         24.8970   16.8240   -2.5270 C.2   232  LEU232      0.2260
    161  O         24.5950   18.0050   -2.5680 O.2   232  LEU232     -0.2867
    162  CB        23.2150   15.0490   -1.8800 C.3   232  LEU232      0.0270
    163  CG        22.0010   15.6720   -1.2510 C.3   232  LEU232      0.0019
    164  CD1       21.1170   16.4370   -2.2640 C.3   232  LEU232      0.0001
    165  CD2       21.2670   14.5830   -0.5080 C.3   232  LEU232      0.0001
@<TRIPOS>BOND
     1   116   115    2
     2   115   114    1
     3   121   122    1
     4   123   124    2
     5   123   122    1
     6   125   122    1
     7   125   126    1
     8    48    49    2
     9    48    47    1
    10   114   113    1
    11   114   117    1
    12   128   126   ar
    13   113   108   am
    14   126   127   ar
    15    47    46    1
    16   117   118    1
    17   108   109    2
    18   108   107    1
    19    75    76    1
    20   106   107    1
    21   119   118   ar
    22   129   130    1
    23    81    79    1
    24    45    44    1
    25   107   110    1
    26   118   120   ar
    27    79    76    1
    28    79    80    1
    29    43    42    2
    30    46    42   am
    31    76    77    1
    32    42    41    1
    33    82    80    1
    34   130   133    1
    35   130   131    1
    36    44    41    1
    37   133   134    1
    38   133   135    1
    39    73    74    1
    40    73    70    1
    41    72    71    2
    42   110   111    1
    43   110   112    1
    44    71    70    1
    45    41    40    1
    46    77    78    2
    47    77    83   am
    48   131   132    2
    49    70    69    1
    50    40    37   am
    51    83    84    1
    52    69    60   am
    53   158   159    1
    54    56    54    1
    55    37    38    2
    56    37    36    1
    57    31    30    2
    58   143   144    1
    59   144   147    1
    60   144   145    1
    61   149   147    1
    62   159   160    1
    63   159   162    1
    64    60    61    2
    65    60    59    1
    66    84    87    1
    67    84    85    1
    68    62    63    1
    69    62    59    1
    70    36    39    1
    71    36    35    1
    72    87    88    1
    73    34    32    1
    74   146   145    2
    75   161   160    2
    76    64    63   ar
    77    64    66   ar
    78   147   148    1
    79   145   150   am
    80    63    65   ar
    81    30    35   am
    82    30    29    1
    83    57    55    1
    84    88    90   am
    85    88    89    2
    86   164   163    1
    87    59    58    1
    88    54    55    1
    89    54    51    1
    90    50    51    1
    91    86    85    2
    92    66    68   ar
    93   162   163    1
    94    85    91   am
    95    65    67   ar
    96    33    32    1
    97    51    52    1
    98   150   151    1
    99    68    67   ar
   100    32    29    1
   101    28    29    1
   102   163   165    1
   103   152   153    2
   104   152   151    1
   105   136   137    1
   106    91    92    1
   107   151   154    1
   108   139   138    2
   109   138   137    1
   110    52    53    2
   111    98    97    1
   112   137   140    1
   113    92    95    1
   114    92    93    1
   115    96    95    1
   116    96    97    1
   117   154   155    1
   118    99    93   am
   119    99   100    1
   120    93    94    2
   121   101   100    1
   122   101   102    2
   123   140   142    1
   124   140   141    1
   125   104   103    1
   126   155   157    1
   127   155   156    1
   128   100   103    1
   129   103   105    1
   130    26    25    1
   131    26    27    1
   132    25    22    1
   133    10     9   ar
   134    10     8   ar
   135     9     7   ar
   136    27    21    1
   137     8     6   ar
   138    22    23    1
   139    22    21    1
   140    20    18   ar
   141    20    19   ar
   142    18    16   ar
   143    23    24    2
   144     7     6   ar
   145     6     5    1
   146    19    17   ar
   147    16    17   ar
   148    16    15    1
   149     5     2    1
   150     1     2    1
   151    15    12    1
   152     2     3    1
   153    12    13    1
   154    12    11    1
   155    14    13    2
   156     3     4    2
