@<TRIPOS>MOLECULE
tmp/3ozfB01.pdb
 126 120 0 0 0
SMALL
GASTEIGER

@<TRIPOS>ATOM
      1  N         -1.7740  -18.1280   19.5040 N.3    81  LEU81      -0.1231
      2  CA        -2.8420  -17.8570   18.5390 C.3    81  LEU81       0.1693
      3  C         -3.7010  -16.6790   18.9540 C.2    81  LEU81       0.2592
      4  O         -4.6410  -16.8410   19.7460 O.2    81  LEU81      -0.2718
      5  CB        -3.7320  -19.1030   18.3480 C.3    81  LEU81       0.0284
      6  CG        -3.4030  -20.0720   17.2060 C.3    81  LEU81       0.0019
      7  CD1       -1.9310  -20.2190   17.0250 C.3    81  LEU81       0.0001
      8  CD2       -4.0960  -21.4550   17.3480 C.3    81  LEU81       0.0001
      9  N         -3.3950  -15.5150   18.3870 N.am   82  LEU82      -0.1966
     10  CA        -4.1020  -14.2530   18.6720 C.3    82  LEU82       0.1728
     11  C         -5.5160  -14.2160   18.0530 C.2    82  LEU82       0.2616
     12  O         -5.7410  -14.8650   17.0340 O.2    82  LEU82      -0.2715
     13  CB        -3.2610  -13.0920   18.1480 C.3    82  LEU82       0.0311
     14  CG        -2.1880  -12.3380   18.9720 C.3    82  LEU82       0.0022
     15  CD1       -1.9310  -12.8670   20.3600 C.3    82  LEU82       0.0001
     16  CD2       -0.8870  -12.1350   18.1880 C.3    82  LEU82       0.0001
     17  N         -6.4550  -13.4720   18.6440 N.am   83  LYS83      -0.1963
     18  CA        -6.2510  -12.6450   19.8370 C.3    83  LYS83       0.1728
     19  C         -6.5770  -13.4000   21.1310 C.2    83  LYS83       0.2616
     20  O         -6.1100  -13.0130   22.1990 O.2    83  LYS83      -0.2715
     21  CB        -7.1500  -11.3790   19.8070 C.3    83  LYS83       0.0311
     22  CG        -6.9710  -10.4550   18.5890 C.3    83  LYS83       0.0038
     23  CD        -7.8880   -9.2400   18.7480 C.3    83  LYS83       0.0206
     24  CE        -8.1280   -8.5210   17.4460 C.3    83  LYS83       0.1093
     25  NZ        -9.2210   -7.5430   17.7000 N.3    83  LYS83      -0.1314
     26  N         -7.4090  -14.4380   21.0280 N.am   84  GLY84      -0.1955
     27  CA        -8.0490  -15.0700   22.1910 C.3    84  GLY84       0.1869
     28  C         -7.1220  -15.7780   23.1600 C.2    84  GLY84       0.2309
     29  O         -7.4540  -15.9790   24.3270 O.2    84  GLY84      -0.2863
     30  N         -2.0300  -14.4440   14.1080 N.3   118  ARG118     -0.1231
     31  CA        -3.4220  -14.0210   14.2460 C.3   118  ARG118      0.1694
     32  C         -4.2210  -14.9460   13.3520 C.2   118  ARG118      0.2592
     33  O         -3.9900  -15.0230   12.1570 O.2   118  ARG118     -0.2718
     34  CB        -3.6160  -12.5440   13.8330 C.3   118  ARG118      0.0321
     35  CG        -4.9310  -11.8920   14.2990 C.3   118  ARG118      0.0489
     36  CD        -6.1170  -12.3970   13.5190 C.3   118  ARG118      0.2205
     37  NE        -7.3100  -11.5740   13.7230 N.pl3 118  ARG118     -0.0865
     38  CZ        -8.2270  -11.7850   14.6710 C.cat 118  ARG118      0.5346
     39  NH1       -8.1110  -12.8040   15.5230 N.pl3 118  ARG118      0.1354
     40  NH2       -9.2660  -10.9750   14.7670 N.pl3 118  ARG118      0.1354
     41  N         -5.1770  -15.6260   13.9640 N.am  119  VAL119     -0.1966
     42  CA        -6.0630  -16.5470   13.2940 C.3   119  VAL119      0.1727
     43  C         -7.4980  -16.0680   13.6200 C.2   119  VAL119      0.2616
     44  O         -7.7250  -15.5070   14.6990 O.2   119  VAL119     -0.2715
     45  CB        -5.7960  -17.9690   13.8560 C.3   119  VAL119      0.0290
     46  CG1       -6.9500  -18.8600   13.6450 C.3   119  VAL119      0.0023
     47  CG2       -4.5280  -18.5710   13.2320 C.3   119  VAL119      0.0023
     48  N         -8.4450  -16.2430   12.6970 N.am  120  LYS120     -0.1963
     49  CA        -9.8250  -15.7610   12.9140 C.3   120  LYS120      0.1728
     50  C        -10.8670  -16.6120   12.1650 C.2   120  LYS120      0.2617
     51  O        -10.6530  -16.9470   10.9970 O.2   120  LYS120     -0.2715
     52  CB        -9.9320  -14.2940   12.4770 C.3   120  LYS120      0.0311
     53  CG       -11.2940  -13.6250   12.7060 C.3   120  LYS120      0.0038
     54  CD       -11.2870  -12.2170   12.0900 C.3   120  LYS120      0.0206
     55  CE       -12.6560  -11.5370   12.1590 C.3   120  LYS120      0.1093
     56  NZ       -13.1660  -11.4320   13.5610 N.3   120  LYS120     -0.1314
     57  N        -11.9840  -16.9410   12.8310 N.am  121  SER121     -0.1936
     58  CA       -13.0190  -17.8090   12.2340 C.3   121  SER121      0.2055
     59  C        -14.4330  -17.6260   12.8010 C.2   121  SER121      0.2643
     60  O        -15.4100  -18.0770   12.1860 O.2   121  SER121     -0.2714
     61  CB       -12.6300  -19.2980   12.3760 C.3   121  SER121      0.2130
     62  OG       -12.7180  -19.7230   13.7280 O.3   121  SER121     -0.2179
     63  N        -14.5400  -17.0280   13.9840 N.am  122  TYR122     -0.1973
     64  CA       -15.8370  -16.8820   14.6520 C.3   122  TYR122      0.1639
     65  C        -16.5960  -15.6360   14.2350 C.2   122  TYR122      0.2290
     66  O        -16.0090  -14.5760   14.0140 O.2   122  TYR122     -0.2864
     67  CB       -15.6810  -16.9500   16.1860 C.3   122  TYR122      0.0560
     68  CG       -15.8380  -18.3650   16.6530 C.ar  122  TYR122     -0.0198
     69  CD1      -14.8970  -19.3440   16.2750 C.ar  122  TYR122     -0.0009
     70  CD2      -16.9420  -18.7550   17.4110 C.ar  122  TYR122     -0.0009
     71  CE1      -15.0400  -20.6730   16.6580 C.ar  122  TYR122      0.0417
     72  CE2      -17.0960  -20.1020   17.8180 C.ar  122  TYR122      0.0417
     73  CZ       -16.1430  -21.0530   17.4200 C.ar  122  TYR122      0.1957
     74  OH       -16.2690  -22.3740   17.8020 O.3   122  TYR122     -0.2866
     75  N         -3.3670  -22.2790   22.5380 N.3   150  GLU150     -0.1231
     76  CA        -4.6930  -21.9330   22.0300 C.3   150  GLU150      0.1699
     77  C         -5.6610  -21.7680   23.1810 C.2   150  GLU150      0.2592
     78  O         -5.6040  -22.4970   24.1570 O.2   150  GLU150     -0.2718
     79  CB        -5.1890  -23.0090   21.0300 C.3   150  GLU150      0.0402
     80  CG        -6.6510  -22.8510   20.5170 C.3   150  GLU150      0.1161
     81  CD        -6.9090  -21.5440   19.7030 C.2   150  GLU150      0.3649
     82  OE1       -6.5920  -20.4260   20.1890 O.co2 150  GLU150     -0.2457
     83  OE2       -7.4370  -21.6330   18.5700 O.co2 150  GLU150     -0.2457
     84  N         -6.5390  -20.7890   23.0880 N.am  151  ASP151     -0.1974
     85  CA        -7.4460  -20.5330   24.2000 C.3   151  ASP151      0.1709
     86  C         -8.4740  -21.6690   24.3560 C.2   151  ASP151      0.2293
     87  O         -8.7130  -22.1570   25.4620 O.2   151  ASP151     -0.2864
     88  CB        -8.1590  -19.1730   24.0570 C.3   151  ASP151      0.1436
     89  CG        -8.7900  -18.9410   22.6450 C.2   151  ASP151      0.3671
     90  OD1       -8.7770  -19.8080   21.7350 O.co2 151  ASP151     -0.2456
     91  OD2       -9.3350  -17.8500   22.4450 O.co2 151  ASP151     -0.2456
     92  N        -10.2640  -24.8120   13.7690 N.3   158  THR158     -0.1218
     93  CA        -9.1350  -23.8900   13.7630 C.3   158  THR158      0.1862
     94  C         -7.8310  -24.6810   13.8200 C.2   158  THR158      0.2287
     95  O         -6.9100  -24.4150   13.0510 O.2   158  THR158     -0.2866
     96  CB        -9.1540  -22.9390   14.9740 C.3   158  THR158      0.1770
     97  OG1      -10.3480  -22.1470   14.9590 O.3   158  THR158     -0.2211
     98  CG2       -7.9060  -21.9980   14.9670 C.3   158  THR158      0.0375
     99  N        -13.7350  -13.6190   23.7620 N.3   210  ASP210     -0.1239
    100  CA       -14.6500  -12.5340   23.3880 C.3   210  ASP210      0.1674
    101  C        -15.9150  -13.0240   22.7210 C.2   210  ASP210      0.2266
    102  O        -15.9720  -14.1520   22.2280 O.2   210  ASP210     -0.2867
    103  CB       -13.9790  -11.6090   22.3760 C.3   210  ASP210      0.1410
    104  CG       -13.9220  -12.2210   20.9770 C.2   210  ASP210      0.3668
    105  OD1      -13.3680  -13.3320   20.8600 O.co2 210  ASP210     -0.2456
    106  OD2      -14.4300  -11.6170   19.9870 O.co2 210  ASP210     -0.2456
    107  N        -15.5100   -9.2370   19.9270 N.3   213  GLU213     -0.1245
    108  CA       -14.5140   -8.2490   20.4480 C.3   213  GLU213      0.1567
    109  C        -14.8340   -7.7160   21.8490 C.2   213  GLU213      0.2260
    110  O        -14.0530   -6.9770   22.4550 O.2   213  GLU213     -0.2867
    111  CB       -14.2830   -7.0700   19.4770 C.3   213  GLU213      0.0388
    112  CG       -13.7130   -7.4440   18.1250 C.3   213  GLU213      0.1160
    113  CD       -12.6270   -8.4890   18.2110 C.2   213  GLU213      0.3649
    114  OE1      -11.6020   -8.2820   18.9270 O.co2 213  GLU213     -0.2457
    115  OE2      -12.8330   -9.5460   17.5810 O.co2 213  GLU213     -0.2457
    116  N        -13.3320   -9.2680   26.5760 N.3   216  ARG216     -0.1245
    117  CA       -11.9760   -9.8540   26.7710 C.3   216  ARG216      0.1563
    118  C        -11.3680   -9.4760   28.1070 C.2   216  ARG216      0.2260
    119  O        -10.6010  -10.2510   28.6920 O.2   216  ARG216     -0.2867
    120  CB       -11.0050   -9.4480   25.6700 C.3   216  ARG216      0.0307
    121  CG       -11.3610   -9.9650   24.3240 C.3   216  ARG216      0.0489
    122  CD       -10.1580   -9.8230   23.3680 C.3   216  ARG216      0.2205
    123  NE       -10.5680   -9.9460   21.9690 N.pl3 216  ARG216     -0.0865
    124  CZ       -10.6370  -11.0880   21.2890 C.cat 216  ARG216      0.5346
    125  NH1      -10.3130  -12.2410   21.8650 N.pl3 216  ARG216      0.1354
    126  NH2      -11.0230  -11.0780   20.0080 N.pl3 216  ARG216      0.1354
@<TRIPOS>BOND
     1    51    50    2
     2    54    55    1
     3    54    53    1
     4    33    32    2
     5    55    56    1
     6    50    57   am
     7    50    49    1
     8    60    59    2
     9    58    61    1
    10    58    59    1
    11    58    57    1
    12    61    62    1
    13    52    53    1
    14    52    49    1
    15    48    49    1
    16    48    43   am
    17    59    63   am
    18    95    94    2
    19    47    45    1
    20    42    43    1
    21    42    45    1
    22    42    41    1
    23    32    41   am
    24    32    31    1
    25    36    37    1
    26    36    35    1
    27    43    44    2
    28    46    45    1
    29    37    38    2
    30    93    92    1
    31    93    94    1
    32    93    96    1
    33    34    31    1
    34    34    35    1
    35    63    64    1
    36    66    65    2
    37    30    31    1
    38    65    64    1
    39    64    67    1
    40    38    40    1
    41    38    39    1
    42    97    96    1
    43    98    96    1
    44    67    68    1
    45    69    68   ar
    46    69    71   ar
    47    68    70   ar
    48    71    73   ar
    49     7     6    1
    50    12    11    2
    51     6     8    1
    52     6     5    1
    53    70    72   ar
    54    73    74    1
    55    73    72   ar
    56    24    25    1
    57    24    23    1
    58   115   113   ar
    59    11    17   am
    60    11    10    1
    61   112   113    1
    62   112   111    1
    63    13    10    1
    64    13    14    1
    65    16    14    1
    66   113   114   ar
    67     5     2    1
    68     9    10    1
    69     9     3   am
    70     2     3    1
    71     2     1    1
    72    83    81   ar
    73    22    23    1
    74    22    21    1
    75    17    18    1
    76     3     4    2
    77    14    15    1
    78   111   108    1
    79    81    82   ar
    80    81    80    1
    81    21    18    1
    82    18    19    1
    83   107   108    1
    84   106   104   ar
    85   126   124    1
    86   108   109    1
    87    80    79    1
    88   105   104   ar
    89   104   103    1
    90    26    19   am
    91    26    27    1
    92    79    76    1
    93    19    20    2
    94   124   125    1
    95   124   123    2
    96    90    89   ar
    97   109   110    2
    98   123   122    1
    99    76    75    1
   100    76    77    1
   101    27    28    1
   102   102   101    2
   103   103   100    1
   104    91    89   ar
   105    89    88    1
   106   101   100    1
   107    84    77   am
   108    84    85    1
   109    28    29    2
   110    77    78    2
   111   122   121    1
   112   100    99    1
   113    88    85    1
   114    85    86    1
   115   121   120    1
   116    86    87    2
   117   120   117    1
   118   116   117    1
   119   117   118    1
   120   118   119    2
