@<TRIPOS>MOLECULE
tmp/3ozgD00.pdb
 162 155 0 0 0
SMALL
GASTEIGER

@<TRIPOS>ATOM
      1  N        103.5710   28.3240   35.8830 N.3    75  LEU75      -0.1245
      2  CA       104.5640   27.3060   35.5490 C.3    75  LEU75       0.1561
      3  C        105.9160   27.6820   36.1100 C.2    75  LEU75       0.2260
      4  O        106.6250   28.5100   35.5410 O.2    75  LEU75      -0.2867
      5  CB       104.6640   27.0680   34.0420 C.3    75  LEU75       0.0270
      6  CG       103.8850   25.8880   33.4880 C.3    75  LEU75       0.0019
      7  CD1      102.3920   25.9160   33.8760 C.3    75  LEU75       0.0001
      8  CD2      104.0690   25.8480   31.9540 C.3    75  LEU75       0.0001
      9  N        110.1640   29.7240   36.3580 N.3    78  GLY78      -0.1225
     10  CA       110.5130   30.8700   35.5190 C.3    78  GLY78       0.1811
     11  C        109.4420   31.9110   35.3560 C.2    78  GLY78       0.2280
     12  O        109.7380   33.0810   35.1180 O.2    78  GLY78      -0.2866
     13  N        107.6860   22.7060   36.3550 N.3   113  VAL113     -0.1245
     14  CA       108.0090   22.0550   35.1020 C.3   113  VAL113      0.1561
     15  C        109.4580   22.4040   34.7250 C.2   113  VAL113      0.2260
     16  O        109.9270   23.5300   34.9730 O.2   113  VAL113     -0.2867
     17  CB       106.9960   22.5040   34.0550 C.3   113  VAL113      0.0252
     18  CG1      107.6650   23.1420   32.8420 C.3   113  VAL113      0.0019
     19  CG2      106.0610   21.3730   33.7080 C.3   113  VAL113      0.0019
     20  N        112.9380   21.4610   31.9060 N.3   115  SER115     -0.1202
     21  CA       113.4900   20.8050   30.7130 C.3   115  SER115      0.2020
     22  C        114.8720   21.2960   30.2230 C.2   115  SER115      0.2618
     23  O        115.5370   20.6000   29.4630 O.2   115  SER115     -0.2717
     24  CB       112.4780   20.8660   29.5660 C.3   115  SER115      0.2103
     25  OG       112.1140   22.2010   29.2900 O.3   115  SER115     -0.2182
     26  N        115.3040   22.4790   30.6400 N.am  116  TYR116     -0.1975
     27  CA       116.5690   23.0220   30.1160 C.3   116  TYR116      0.1639
     28  C        117.8020   22.6370   30.8900 C.2   116  TYR116      0.2290
     29  O        117.7490   22.3450   32.0850 O.2   116  TYR116     -0.2864
     30  CB       116.5140   24.5490   29.9500 C.3   116  TYR116      0.0560
     31  CG       115.8730   24.9810   28.6520 C.ar  116  TYR116     -0.0198
     32  CD1      114.5870   24.5490   28.3150 C.ar  116  TYR116     -0.0009
     33  CD2      116.5470   25.8260   27.7580 C.ar  116  TYR116     -0.0009
     34  CE1      113.9950   24.9280   27.1220 C.ar  116  TYR116      0.0417
     35  CE2      115.9500   26.2150   26.5470 C.ar  116  TYR116      0.0417
     36  CZ       114.6660   25.7640   26.2510 C.ar  116  TYR116      0.1957
     37  OH       114.0520   26.1230   25.0740 O.3   116  TYR116     -0.2866
     38  N        117.2260   23.0430   25.4350 N.3   121  SER121     -0.1217
     39  CA       116.2310   22.1010   25.9120 C.3   121  SER121      0.1889
     40  C        116.7840   20.6930   25.8580 C.2   121  SER121      0.2288
     41  O        117.4150   20.3270   24.8800 O.2   121  SER121     -0.2866
     42  CB       114.9910   22.1620   25.0310 C.3   121  SER121      0.2089
     43  OG       114.0510   21.1960   25.4560 O.3   121  SER121     -0.2183
     44  N        102.9330   31.1670   31.2680 N.3   144  GLU144     -0.1231
     45  CA       104.2820   30.7500   30.9500 C.3   144  GLU144      0.1699
     46  C        105.1300   31.9890   30.7280 C.2   144  GLU144      0.2592
     47  O        104.6470   32.9760   30.1930 O.2   144  GLU144     -0.2718
     48  CB       104.2540   29.8420   29.7040 C.3   144  GLU144      0.0402
     49  CG       105.5960   29.5890   29.0570 C.3   144  GLU144      0.1161
     50  CD       106.1370   28.1880   29.2660 C.2   144  GLU144      0.3649
     51  OE1      106.3360   27.8140   30.4440 O.co2 144  GLU144     -0.2457
     52  OE2      106.4120   27.4950   28.2420 O.co2 144  GLU144     -0.2457
     53  N        106.4020   31.9350   31.1180 N.am  145  ASP145     -0.1960
     54  CA       107.3230   33.0550   30.8830 C.3   145  ASP145      0.1840
     55  C        107.8200   33.1740   29.4220 C.2   145  ASP145      0.2622
     56  O        107.8990   34.2710   28.8680 O.2   145  ASP145     -0.2715
     57  CB       108.5140   32.9900   31.8360 C.3   145  ASP145      0.1450
     58  CG       109.1980   31.6040   31.8640 C.2   145  ASP145      0.3671
     59  OD1      108.6940   30.6110   31.2560 O.co2 145  ASP145     -0.2456
     60  OD2      110.2800   31.5120   32.4880 O.co2 145  ASP145     -0.2456
     61  N        108.1390   32.0500   28.7930 N.am  146  ILE146     -0.1963
     62  CA       108.6640   32.0900   27.4430 C.3   146  ILE146      0.1727
     63  C        108.3530   30.7980   26.7090 C.2   146  ILE146      0.2616
     64  O        108.5330   29.7080   27.2710 O.2   146  ILE146     -0.2715
     65  CB       110.2330   32.3710   27.4520 C.3   146  ILE146      0.0290
     66  CG1      110.7710   32.6060   26.0300 C.3   146  ILE146      0.0022
     67  CG2      110.9780   31.2970   28.2290 C.3   146  ILE146      0.0023
     68  CD1      112.1580   33.2400   26.0040 C.3   146  ILE146      0.0001
     69  N        107.8560   30.9510   25.4730 N.am  147  ILE147     -0.1963
     70  CA       107.7220   29.8800   24.4800 C.3   147  ILE147      0.1727
     71  C        108.8800   30.0430   23.5270 C.2   147  ILE147      0.2616
     72  O        109.0820   31.1210   22.9730 O.2   147  ILE147     -0.2715
     73  CB       106.4300   30.0020   23.6450 C.3   147  ILE147      0.0290
     74  CG1      105.2240   29.6460   24.4950 C.3   147  ILE147      0.0022
     75  CG2      106.4840   29.0840   22.4150 C.3   147  ILE147      0.0023
     76  CD1      103.9280   30.3120   23.9930 C.3   147  ILE147      0.0001
     77  N        109.6120   28.9470   23.3420 N.am  148  ASP148     -0.1957
     78  CA       110.9060   28.9230   22.6630 C.3   148  ASP148      0.1840
     79  C        110.9010   27.7400   21.6760 C.2   148  ASP148      0.2623
     80  O        110.6590   27.9330   20.4740 O.2   148  ASP148     -0.2715
     81  CB       111.9990   28.8000   23.7220 C.3   148  ASP148      0.1450
     82  CG       113.4040   28.9740   23.1670 C.2   148  ASP148      0.3671
     83  OD1      113.6890   28.5810   22.0060 O.co2 148  ASP148     -0.2456
     84  OD2      114.2430   29.4970   23.9260 O.co2 148  ASP148     -0.2456
     85  N        111.0970   26.5130   22.1700 N.am  149  THR149     -0.1937
     86  CA       110.9230   25.3450   21.3010 C.3   149  THR149      0.2028
     87  C        109.4590   25.0350   21.1190 C.2   149  THR149      0.2643
     88  O        109.0580   24.4970   20.0900 O.2   149  THR149     -0.2714
     89  CB       111.6480   24.0710   21.7880 C.3   149  THR149      0.1808
     90  OG1      111.1100   23.6340   23.0540 O.3   149  THR149     -0.2208
     91  CG2      113.1960   24.2960   21.8570 C.3   149  THR149      0.0379
     92  N        108.6650   25.3690   22.1260 N.am  150  GLY150     -0.1939
     93  CA       107.2610   24.9750   22.1550 C.3   150  GLY150      0.2014
     94  C        107.0520   23.6260   22.8350 C.2   150  GLY150      0.2639
     95  O        105.9010   23.1820   23.0120 O.2   150  GLY150     -0.2714
     96  N        108.1560   22.9810   23.2180 N.am  151  LYS151     -0.1963
     97  CA       108.0970   21.6360   23.8170 C.3   151  LYS151      0.1728
     98  C        107.3610   21.5800   25.1510 C.2   151  LYS151      0.2617
     99  O        106.5480   20.6550   25.3770 O.2   151  LYS151     -0.2715
    100  CB       109.4970   20.9980   23.9650 C.3   151  LYS151      0.0311
    101  CG       110.0930   20.5310   22.6240 C.3   151  LYS151      0.0038
    102  CD       111.5490   20.0350   22.7510 C.3   151  LYS151      0.0206
    103  CE       112.1140   19.7290   21.3650 C.3   151  LYS151      0.1093
    104  NZ       112.8070   18.4150   21.3160 N.3   151  LYS151     -0.1314
    105  N        107.6250   22.5780   26.0110 N.am  152  THR152     -0.1937
    106  CA       107.0370   22.6220   27.3540 C.3   152  THR152      0.2028
    107  C        105.5080   22.6370   27.2370 C.2   152  THR152      0.2642
    108  O        104.8280   21.8210   27.8460 O.2   152  THR152     -0.2714
    109  CB       107.5410   23.8520   28.1840 C.3   152  THR152      0.1808
    110  OG1      108.9710   23.8130   28.3260 O.3   152  THR152     -0.2208
    111  CG2      106.9120   23.8640   29.5590 C.3   152  THR152      0.0379
    112  N        104.9810   23.5390   26.4180 N.am  153  LEU153     -0.1977
    113  CA       103.5410   23.7040   26.3250 C.3   153  LEU153      0.1596
    114  C        102.8090   22.5640   25.6290 C.2   153  LEU153      0.2287
    115  O        101.7130   22.2160   26.0340 O.2   153  LEU153     -0.2864
    116  CB       103.1790   25.0710   25.7200 C.3   153  LEU153      0.0297
    117  CG       103.3050   26.1560   26.7940 C.3   153  LEU153      0.0022
    118  CD1      102.9940   27.5130   26.2520 C.3   153  LEU153      0.0001
    119  CD2      102.3740   25.8650   27.9780 C.3   153  LEU153      0.0001
    120  N        109.9530   33.5470   21.4350 N.3   176  LYS176     -0.1245
    121  CA       111.2250   33.6570   20.7530 C.3   176  LYS176      0.1561
    122  C        111.1170   33.3310   19.2500 C.2   176  LYS176      0.2260
    123  O        110.6310   32.2640   18.8770 O.2   176  LYS176     -0.2867
    124  CB       112.2380   32.7300   21.4250 C.3   176  LYS176      0.0271
    125  CG       113.6760   32.9590   20.9540 C.3   176  LYS176      0.0035
    126  CD       114.6820   31.9850   21.6100 C.3   176  LYS176      0.0206
    127  CE       115.0330   32.3660   23.0480 C.3   176  LYS176      0.1093
    128  NZ       116.1060   31.4850   23.6390 N.3   176  LYS176     -0.1314
    129  N        119.4810   33.8150   23.9890 N.3   197  PHE197     -0.1227
    130  CA       119.1260   33.3000   25.2950 C.3   197  PHE197      0.1736
    131  C        118.9880   34.4770   26.2740 C.2   197  PHE197      0.2595
    132  O        119.9530   35.1940   26.5250 O.2   197  PHE197     -0.2718
    133  CB       120.1470   32.2690   25.7970 C.3   197  PHE197      0.0547
    134  CG       119.6110   31.4270   26.9240 C.ar  197  PHE197     -0.0202
    135  CD1      118.7730   30.3460   26.6600 C.ar  197  PHE197     -0.0042
    136  CD2      119.8560   31.7750   28.2470 C.ar  197  PHE197     -0.0042
    137  CE1      118.2350   29.5780   27.7040 C.ar  197  PHE197     -0.0003
    138  CE2      119.3170   31.0170   29.3080 C.ar  197  PHE197     -0.0003
    139  CZ       118.5110   29.9070   29.0260 C.ar  197  PHE197     -0.0000
    140  N        117.7810   34.6920   26.7880 N.am  198  VAL198     -0.1980
    141  CA       117.5360   35.8070   27.7120 C.3   198  VAL198      0.1595
    142  C        117.5720   35.3610   29.1850 C.2   198  VAL198      0.2287
    143  O        117.3100   34.1920   29.5090 O.2   198  VAL198     -0.2864
    144  CB       116.1830   36.5480   27.4120 C.3   198  VAL198      0.0276
    145  CG1      116.1620   37.1460   25.9750 C.3   198  VAL198      0.0022
    146  CG2      114.9890   35.6330   27.6240 C.3   198  VAL198      0.0022
    147  N        113.7060   34.5230   34.7240 N.3   203  LEU203     -0.1231
    148  CA       114.3900   33.6270   33.7930 C.3   203  LEU203      0.1693
    149  C        115.8640   33.4420   34.1500 C.2   203  LEU203      0.2592
    150  O        116.6010   34.4180   34.3670 O.2   203  LEU203     -0.2718
    151  CB       114.2710   34.1270   32.3400 C.3   203  LEU203      0.0284
    152  CG       112.8930   33.9490   31.6940 C.3   203  LEU203      0.0019
    153  CD1      111.9720   35.1070   32.0390 C.3   203  LEU203      0.0001
    154  CD2      113.0010   33.8450   30.1870 C.3   203  LEU203      0.0001
    155  N        116.2970   32.1840   34.1570 N.am  204  ASP204     -0.1974
    156  CA       117.6390   31.8490   34.6010 C.3   204  ASP204      0.1709
    157  C        118.5110   31.2720   33.5030 C.2   204  ASP204      0.2293
    158  O        118.0160   30.7930   32.4870 O.2   204  ASP204     -0.2864
    159  CB       117.5610   30.8040   35.7250 C.3   204  ASP204      0.1436
    160  CG       117.3320   29.4010   35.1910 C.2   204  ASP204      0.3671
    161  OD1      116.2840   29.1610   34.5650 O.co2 204  ASP204     -0.2456
    162  OD2      118.2030   28.5220   35.3670 O.co2 204  ASP204     -0.2456
@<TRIPOS>BOND
     1   123   122    2
     2   122   121    1
     3    88    87    2
     4    80    79    2
     5   121   124    1
     6   121   120    1
     7   125   124    1
     8   125   126    1
     9    87    86    1
    10    87    92   am
    11    86    89    1
    12    86    85    1
    13   104   103    1
    14   103   102    1
    15   126   127    1
    16    79    85   am
    17    79    78    1
    18    89    91    1
    19    89    90    1
    20    83    82   ar
    21    92    93    1
    22    93    94    1
    23    75    73    1
    24   101   102    1
    25   101   100    1
    26    78    77    1
    27    78    81    1
    28    94    95    2
    29    94    96   am
    30    72    71    2
    31   127   128    1
    32    82    81    1
    33    82    84   ar
    34    96    97    1
    35    77    71   am
    36    71    70    1
    37    73    70    1
    38    73    74    1
    39    97   100    1
    40    97    98    1
    41   129   130    1
    42    76    74    1
    43    70    69    1
    44    41    40    2
    45    42    43    1
    46    42    39    1
    47    37    36    1
    48    98    99    2
    49    98   105   am
    50   130   133    1
    51   130   131    1
    52    38    39    1
    53    69    63   am
    54   114   115    2
    55   114   113    1
    56   116   113    1
    57   116   117    1
    58   133   134    1
    59    40    39    1
    60   145   144    1
    61    68    66    1
    62   105   106    1
    63    66    65    1
    64    36    35   ar
    65    36    34   ar
    66   118   117    1
    67   131   132    2
    68   131   140   am
    69   113   112    1
    70   112   107   am
    71    35    33   ar
    72   135   134   ar
    73   135   137   ar
    74    63    64    2
    75    63    62    1
    76   140   141    1
    77   117   119    1
    78   134   136   ar
    79    34    32   ar
    80   107   106    1
    81   107   108    2
    82   106   109    1
    83   144   146    1
    84   144   141    1
    85    62    65    1
    86    62    61    1
    87    65    67    1
    88   137   139   ar
    89   141   142    1
    90    33    31   ar
    91   109   110    1
    92   109   111    1
    93    52    50   ar
    94   136   138   ar
    95    32    31   ar
    96    31    30    1
    97    61    55   am
    98    56    55    2
    99   139   138   ar
   100    49    50    1
   101    49    48    1
   102   142   143    2
   103    50    51   ar
   104    25    24    1
   105    55    54    1
   106    23    22    2
   107    24    21    1
   108    48    45    1
   109    30    27    1
   110    27    26    1
   111    27    28    1
   112   154   152    1
   113    47    46    2
   114    22    26   am
   115    22    21    1
   116    21    20    1
   117    46    45    1
   118    46    53   am
   119    54    53    1
   120    54    57    1
   121    28    29    2
   122    45    44    1
   123    59    58   ar
   124   152   153    1
   125   152   151    1
   126    57    58    1
   127    58    60   ar
   128     8     6    1
   129   151   148    1
   130   158   157    2
   131    18    17    1
   132     6     7    1
   133     6     5    1
   134   157   156    1
   135    19    17    1
   136   148   149    1
   137   148   147    1
   138     5     2    1
   139    17    14    1
   140   149   155   am
   141   149   150    2
   142   155   156    1
   143   161   160   ar
   144   156   159    1
   145    15    16    2
   146    15    14    1
   147    14    13    1
   148    12    11    2
   149   160   162   ar
   150   160   159    1
   151    11    10    1
   152    10     9    1
   153     4     3    2
   154     2     1    1
   155     2     3    1
