@<TRIPOS>MOLECULE
tmp/3ozjC01.pdb
 159 151 0 0 0
SMALL
GASTEIGER

@<TRIPOS>ATOM
      1  N         42.8170   34.0540    6.0590 N.3    22  VAL22      -0.1245
      2  CA        42.2180   33.5290    7.2360 C.3    22  VAL22       0.1561
      3  C         42.8830   34.1010    8.4520 C.2    22  VAL22       0.2260
      4  O         42.2360   34.4460    9.3720 O.2    22  VAL22      -0.2867
      5  CB        42.1850   31.9720    7.1960 C.3    22  VAL22       0.0252
      6  CG1       42.2830   31.3780    8.5390 C.3    22  VAL22       0.0019
      7  CG2       40.9490   31.5160    6.5180 C.3    22  VAL22       0.0019
      8  N         41.4990   37.6850    9.2200 N.3    25  ILE25      -0.1231
      9  CA        40.1260   37.6910    9.6900 C.3    25  ILE25       0.1692
     10  C         40.0200   37.3560   11.1680 C.2    25  ILE25       0.2592
     11  O         38.9850   37.5020   11.7720 O.2    25  ILE25      -0.2718
     12  CB        39.3050   36.6570    8.8460 C.3    25  ILE25       0.0266
     13  CG1       39.3250   37.0350    7.3850 C.3    25  ILE25       0.0019
     14  CG2       37.9530   36.4900    9.3240 C.3    25  ILE25       0.0020
     15  CD1       38.7500   36.0490    6.5350 C.3    25  ILE25       0.0001
     16  N         41.1220   36.8490   11.6950 N.am   26  CYS26      -0.1970
     17  CA        41.3170   36.4980   13.0820 C.3    26  CYS26       0.1712
     18  C         41.9870   37.5500   13.8900 C.2    26  CYS26       0.2296
     19  O         41.6160   37.7800   14.9940 O.2    26  CYS26      -0.2864
     20  CB        42.1550   35.2420   13.2350 C.3    26  CYS26       0.0983
     21  SG        41.4820   33.8310   12.6260 S.3    26  CYS26      -0.0798
     22  N         39.3860   39.7680   14.6390 N.3    29  ALA29      -0.1245
     23  CA        38.3970   39.3570   15.5950 C.3    29  ALA29       0.1562
     24  C         38.7560   39.5870   17.0310 C.2    29  ALA29       0.2260
     25  O         37.9970   40.1370   17.7450 O.2    29  ALA29      -0.2867
     26  CB        38.0010   37.9610   15.3680 C.3    29  ALA29       0.0290
     27  N         28.9490   36.5210   20.9620 N.3    62  TRP62      -0.1227
     28  CA        30.0690   37.1030   20.3230 C.3    62  TRP62       0.1737
     29  C         30.1530   36.8660   18.8240 C.2    62  TRP62       0.2595
     30  O         30.5760   37.7110   18.1250 O.2    62  TRP62      -0.2718
     31  CB        31.3260   36.6410   21.0330 C.3    62  TRP62       0.0564
     32  CG        31.6790   35.2900   20.7850 C.ar   62  TRP62       0.0003
     33  CD1       30.9730   34.2180   21.0820 C.ar   62  TRP62       0.0946
     34  CD2       32.8180   34.8310   20.0990 C.ar   62  TRP62       0.0152
     35  NE1       31.5800   33.1190   20.6680 N.ar   62  TRP62      -0.2442
     36  CE2       32.7360   33.4660   20.0510 C.ar   62  TRP62       0.0810
     37  CE3       33.9010   35.4450   19.5250 C.ar   62  TRP62       0.0012
     38  CZ2       33.7020   32.7030   19.4670 C.ar   62  TRP62       0.0191
     39  CZ3       34.8180   34.7010   18.9460 C.ar   62  TRP62       0.0001
     40  CH2       34.7360   33.3520   18.9220 C.ar   62  TRP62       0.0015
     41  N         29.8270   35.6810   18.3550 N.am   63  ASN63      -0.1974
     42  CA        29.7290   35.3930   16.9350 C.3    63  ASN63       0.1688
     43  C         28.5940   36.0840   16.1530 C.2    63  ASN63       0.2292
     44  O         28.8350   36.6770   15.1760 O.2    63  ASN63      -0.2864
     45  CB        29.6180   33.8950   16.7090 C.3    63  ASN63       0.1181
     46  CG        30.9330   33.1620   16.7950 C.2    63  ASN63       0.2629
     47  OD1       31.7860   33.2550   15.9660 O.2    63  ASN63      -0.2716
     48  ND2       31.0480   32.3810   17.7890 N.am   63  ASN63      -0.0877
     49  N         29.2710   40.3300   16.2350 N.3    66  LEU66      -0.1231
     50  CA        30.3500   40.8190   15.3930 C.3    66  LEU66       0.1693
     51  C         30.0960   40.4610   13.9650 C.2    66  LEU66       0.2591
     52  O         30.6840   41.0220   13.1080 O.2    66  LEU66      -0.2718
     53  CB        31.6970   40.2870   15.7960 C.3    66  LEU66       0.0284
     54  CG        32.2440   40.4130   17.2020 C.3    66  LEU66       0.0019
     55  CD1       33.6170   39.8800   17.2850 C.3    66  LEU66       0.0001
     56  CD2       32.1660   41.7740   17.6870 C.3    66  LEU66       0.0001
     57  N         29.3200   39.4200   13.7400 N.am   67  ILE67      -0.1980
     58  CA        28.9920   38.9810   12.4020 C.3    67  ILE67       0.1595
     59  C         28.1320   39.9330   11.6670 C.2    67  ILE67       0.2287
     60  O         28.3880   40.2250   10.5620 O.2    67  ILE67      -0.2864
     61  CB        28.3990   37.5580   12.3470 C.3    67  ILE67       0.0276
     62  CG1       29.5060   36.5130   12.3820 C.3    67  ILE67       0.0022
     63  CG2       27.4680   37.3940   11.1520 C.3    67  ILE67       0.0022
     64  CD1       29.0970   35.1530   12.4440 C.3    67  ILE67       0.0001
     65  N         29.8950   43.3170   10.7550 N.3    70  PHE70      -0.1241
     66  CA        30.6690   43.2900    9.5590 C.3    70  PHE70       0.1605
     67  C         29.9020   43.0270    8.2880 C.2    70  PHE70       0.2264
     68  O         30.4040   43.2380    7.2460 O.2    70  PHE70      -0.2867
     69  CB        31.9590   42.4660    9.7080 C.3    70  PHE70       0.0534
     70  CG        31.8280   40.9670    9.5470 C.ar   70  PHE70      -0.0203
     71  CD1       31.5300   40.3730    8.3360 C.ar   70  PHE70      -0.0042
     72  CD2       32.1220   40.1410   10.5670 C.ar   70  PHE70      -0.0042
     73  CE1       31.4890   39.0200    8.2060 C.ar   70  PHE70      -0.0003
     74  CE2       32.0520   38.8030   10.4230 C.ar   70  PHE70      -0.0003
     75  CZ        31.7440   38.2470    9.2330 C.ar   70  PHE70      -0.0000
     76  N         34.0800   41.5040    1.8090 N.3    81  ILE81      -0.1245
     77  CA        33.9100   42.1570    3.0760 C.3    81  ILE81       0.1561
     78  C         35.0950   43.0000    3.4700 C.2    81  ILE81       0.2260
     79  O         36.1730   42.8600    3.0000 O.2    81  ILE81      -0.2867
     80  CB        33.5450   41.2110    4.2390 C.3    81  ILE81       0.0252
     81  CG1       34.3880   39.9650    4.1840 C.3    81  ILE81       0.0019
     82  CG2       32.0770   40.9610    4.3030 C.3    81  ILE81       0.0019
     83  CD1       34.7480   39.4600    5.4650 C.3    81  ILE81       0.0001
     84  N         37.4570   28.4950    2.6280 N.3    99  VAL99      -0.1245
     85  CA        36.3810   29.0360    3.4560 C.3    99  VAL99       0.1561
     86  C         35.2520   29.7350    2.7040 C.2    99  VAL99       0.2260
     87  O         34.5220   30.4860    3.2470 O.2    99  VAL99      -0.2867
     88  CB        36.9680   29.9510    4.5420 C.3    99  VAL99       0.0252
     89  CG1       37.7070   29.1630    5.5450 C.3    99  VAL99       0.0019
     90  CG2       37.8900   30.9420    3.9290 C.3    99  VAL99       0.0019
     91  N         31.1120   29.2080    3.6080 N.3   102  ILE102     -0.1231
     92  CA        30.6340   30.1150    4.6360 C.3   102  ILE102      0.1692
     93  C         30.5870   31.5540    4.1290 C.2   102  ILE102      0.2592
     94  O         29.6280   32.2440    4.3280 O.2   102  ILE102     -0.2718
     95  CB        31.3430   29.8420    6.0160 C.3   102  ILE102      0.0266
     96  CG1       30.4730   30.1680    7.2000 C.3   102  ILE102      0.0019
     97  CG2       32.5960   30.5670    6.1840 C.3   102  ILE102      0.0020
     98  CD1       29.1420   29.7310    7.1130 C.3   102  ILE102      0.0001
     99  N         31.6080   31.9210    3.3650 N.am  103  PHE103     -0.1976
    100  CA        31.7840   33.2570    2.8420 C.3   103  PHE103      0.1639
    101  C         30.6300   33.7130    1.9690 C.2   103  PHE103      0.2290
    102  O         30.1210   34.7760    2.1110 O.2   103  PHE103     -0.2864
    103  CB        33.0950   33.3310    2.0730 C.3   103  PHE103      0.0560
    104  CG        33.6620   34.7000    1.9590 C.ar  103  PHE103     -0.0200
    105  CD1       34.4190   35.2430    2.9690 C.ar  103  PHE103     -0.0042
    106  CD2       33.4400   35.4520    0.8630 C.ar  103  PHE103     -0.0042
    107  CE1       34.9010   36.4470    2.8660 C.ar  103  PHE103     -0.0003
    108  CE2       33.9390   36.6570    0.7860 C.ar  103  PHE103     -0.0003
    109  CZ        34.6690   37.1560    1.8000 C.ar  103  PHE103     -0.0000
    110  N         27.4410   34.2650    4.1500 N.3   106  VAL106     -0.1245
    111  CA        27.3840   35.5950    4.7420 C.3   106  VAL106      0.1561
    112  C         26.9340   36.6200    3.7220 C.2   106  VAL106      0.2260
    113  O         26.0270   37.3470    3.9820 O.2   106  VAL106     -0.2867
    114  CB        28.7400   36.1020    5.2590 C.3   106  VAL106      0.0252
    115  CG1       28.5690   37.3410    6.0550 C.3   106  VAL106      0.0019
    116  CG2       29.4780   35.0750    6.0270 C.3   106  VAL106      0.0019
    117  N         24.5350   30.9440   10.7460 N.3   185  ILE185     -0.1245
    118  CA        25.8650   31.2920   10.3430 C.3   185  ILE185      0.1561
    119  C         26.9080   31.3560   11.4560 C.2   185  ILE185      0.2260
    120  O         27.9840   31.0520   11.2310 O.2   185  ILE185     -0.2867
    121  CB        25.9050   32.5300    9.4680 C.3   185  ILE185      0.0252
    122  CG1       25.2690   32.2550    8.1220 C.3   185  ILE185      0.0019
    123  CG2       27.3320   32.9090    9.1940 C.3   185  ILE185      0.0019
    124  CD1       25.0350   33.3740    7.3190 C.3   185  ILE185      0.0001
    125  N         30.2770   29.4240   11.8740 N.3   189  CYS189     -0.1235
    126  CA        31.4390   30.2280   12.0890 C.3   189  CYS189      0.1677
    127  C         32.2590   29.7680   13.2790 C.2   189  CYS189      0.2270
    128  O         33.4470   29.8210   13.2510 O.2   189  CYS189     -0.2867
    129  CB        31.0960   31.7010   12.2060 C.3   189  CYS189      0.0956
    130  SG        32.4050   32.7900   12.5090 S.3   189  CYS189     -0.0801
    131  N         34.4610   26.3930   12.5460 N.3   192  HIS192     -0.1226
    132  CA        35.6310   26.6120   11.7610 C.3   192  HIS192      0.1752
    133  C         36.7690   26.9930   12.6730 C.2   192  HIS192      0.2595
    134  O         37.7960   26.4290   12.5810 O.2   192  HIS192     -0.2718
    135  CB        35.3840   27.8020   10.8550 C.3   192  HIS192      0.0759
    136  CG        34.8550   27.4630    9.5030 C.ar  192  HIS192      0.0818
    137  ND1       33.5270   27.4390    9.2080 N.ar  192  HIS192     -0.2268
    138  CD2       35.4840   27.1140    8.3730 C.ar  192  HIS192      0.1154
    139  CE1       33.3560   27.0870    7.9580 C.ar  192  HIS192      0.1986
    140  NE2       34.5320   26.8930    7.4260 N.ar  192  HIS192     -0.2212
    141  N         36.5290   27.8920   13.6040 N.am  193  LEU193     -0.1980
    142  CA        37.4980   28.3960   14.5550 C.3   193  LEU193      0.1596
    143  C         38.0940   27.3530   15.5110 C.2   193  LEU193      0.2287
    144  O         39.2480   27.4390   15.8680 O.2   193  LEU193     -0.2864
    145  CB        36.8970   29.5470   15.3510 C.3   193  LEU193      0.0297
    146  CG        36.5100   30.8850   14.7330 C.3   193  LEU193      0.0022
    147  CD1       35.5020   31.5610   15.5770 C.3   193  LEU193      0.0001
    148  CD2       37.6610   31.7640   14.5900 C.3   193  LEU193      0.0001
    149  N         40.5450   25.6340   13.4900 N.3   196  PHE196     -0.1241
    150  CA        41.7900   26.3000   13.2840 C.3   196  PHE196      0.1605
    151  C         42.6850   26.0600   14.5150 C.2   196  PHE196      0.2264
    152  O         43.7760   25.6440   14.3950 O.2   196  PHE196     -0.2867
    153  CB        41.6130   27.7950   12.9690 C.3   196  PHE196      0.0534
    154  CG        40.7560   28.1110   11.7620 C.ar  196  PHE196     -0.0203
    155  CD1       40.8270   27.3920   10.6160 C.ar  196  PHE196     -0.0042
    156  CD2       39.9090   29.1780   11.7760 C.ar  196  PHE196     -0.0042
    157  CE1       40.0410   27.7050    9.5710 C.ar  196  PHE196     -0.0003
    158  CE2       39.1270   29.4730   10.6990 C.ar  196  PHE196     -0.0003
    159  CZ        39.1980   28.7380    9.6200 C.ar  196  PHE196     -0.0000
@<TRIPOS>BOND
     1   108   106   ar
     2   108   109   ar
     3   106   104   ar
     4   109   107   ar
     5    76    77    1
     6   104   103    1
     7   104   105   ar
     8   101   102    2
     9   101   100    1
    10   103   100    1
    11    84    85    1
    12    86    87    2
    13    86    85    1
    14   100    99    1
    15   107   105   ar
    16    79    78    2
    17    77    78    1
    18    77    80    1
    19    99    93   am
    20    85    88    1
    21    91    92    1
    22   112   113    2
    23   112   111    1
    24    90    88    1
    25    93    94    2
    26    93    92    1
    27   110   111    1
    28    81    80    1
    29    81    83    1
    30    80    82    1
    31    88    89    1
    32    92    95    1
    33   111   114    1
    34   114   116    1
    35   114   115    1
    36    95    97    1
    37    95    96    1
    38     1     2    1
    39     7     5    1
    40    15    13    1
    41    98    96    1
    42     5     2    1
    43     5     6    1
    44     2     3    1
    45    68    67    2
    46   124   122    1
    47    13    12    1
    48   140   139   ar
    49   140   138   ar
    50   139   137   ar
    51   122   121    1
    52    73    71   ar
    53    73    75   ar
    54    67    66    1
    55    71    70   ar
    56   138   136   ar
    57     3     4    2
    58    12    14    1
    59    12     9    1
    60   123   121    1
    61   137   136   ar
    62     8     9    1
    63    75    74   ar
    64   121   118    1
    65   136   135    1
    66    70    69    1
    67    70    72   ar
    68    66    69    1
    69    66    65    1
    70   157   159   ar
    71   157   155   ar
    72   159   158   ar
    73     9    10    1
    74   118   117    1
    75   118   119    1
    76    74    72   ar
    77    60    59    2
    78   155   154   ar
    79   158   156   ar
    80   135   132    1
    81    63    61    1
    82    10    16   am
    83    10    11    2
    84   120   119    2
    85    59    58    1
    86    16    17    1
    87   132   131    1
    88   132   133    1
    89   154   156   ar
    90   154   153    1
    91   125   126    1
    92   126   129    1
    93   126   127    1
    94   129   130    1
    95    61    62    1
    96    61    58    1
    97    62    64    1
    98    58    57    1
    99   134   133    2
   100    21    20    1
   101   133   141   am
   102   153   150    1
   103    17    20    1
   104    17    18    1
   105    52    51    2
   106   128   127    2
   107   150   149    1
   108   150   151    1
   109   141   142    1
   110    57    51   am
   111    18    19    2
   112    51    50    1
   113   152   151    2
   114   142   145    1
   115   142   143    1
   116   148   146    1
   117    22    23    1
   118   146   145    1
   119   146   147    1
   120    44    43    2
   121    26    23    1
   122    50    53    1
   123    50    49    1
   124   143   144    2
   125    23    24    1
   126    53    54    1
   127    47    46    2
   128    43    42    1
   129    45    46    1
   130    45    42    1
   131    46    48   am
   132    42    41    1
   133    24    25    2
   134    54    55    1
   135    54    56    1
   136    30    29    2
   137    41    29   am
   138    29    28    1
   139    40    39   ar
   140    40    38   ar
   141    39    37   ar
   142    38    36   ar
   143    37    34   ar
   144    36    34   ar
   145    36    35   ar
   146    34    32   ar
   147    28    27    1
   148    28    31    1
   149    35    33   ar
   150    32    31    1
   151    32    33   ar
