@<TRIPOS>MOLECULE
tmp/3ozoA00.pdb
 139 138 0 0 0
SMALL
GASTEIGER

@<TRIPOS>ATOM
      1  N         22.5100  -44.9220  -11.5410 N.3   198  ARG198     -0.1245
      2  CA        21.2800  -44.7680  -12.3190 C.3   198  ARG198      0.1563
      3  C         21.1540  -45.8980  -13.3340 C.2   198  ARG198      0.2260
      4  O         20.0530  -46.2890  -13.6980 O.2   198  ARG198     -0.2867
      5  CB        21.2190  -43.4000  -12.9970 C.3   198  ARG198      0.0307
      6  CG        20.5520  -42.3170  -12.1620 C.3   198  ARG198      0.0489
      7  CD        21.2210  -42.0870  -10.7940 C.3   198  ARG198      0.2205
      8  NE        20.6030  -40.9370  -10.1430 N.pl3 198  ARG198     -0.0865
      9  CZ        20.9960  -39.6760  -10.3100 C.cat 198  ARG198      0.5346
     10  NH1       22.0390  -39.3910  -11.0880 N.pl3 198  ARG198      0.1354
     11  NH2       20.3500  -38.6970   -9.6900 N.pl3 198  ARG198      0.1354
     12  N         19.8500  -38.1300   -2.6440 N.3   281  HIS281     -0.1241
     13  CA        20.3410  -39.1500   -3.5810 C.3   281  HIS281      0.1621
     14  C         20.7320  -40.4530   -2.8880 C.2   281  HIS281      0.2264
     15  O         21.7750  -41.0450   -3.1690 O.2   281  HIS281     -0.2867
     16  CB        21.4820  -38.5910   -4.4350 C.3   281  HIS281      0.0745
     17  CG        21.0250  -37.5760   -5.4300 C.ar  281  HIS281      0.0817
     18  ND1       20.9760  -36.2290   -5.1480 N.ar  281  HIS281     -0.2268
     19  CD2       20.5440  -37.7150   -6.6860 C.ar  281  HIS281      0.1154
     20  CE1       20.5070  -35.5790   -6.1960 C.ar  281  HIS281      0.1986
     21  NE2       20.2370  -36.4570   -7.1440 N.ar  281  HIS281     -0.2212
     22  N         13.8050  -33.9940   -7.0600 N.3   305  VAL305     -0.1231
     23  CA        14.0720  -33.5720   -8.4360 C.3   305  VAL305      0.1692
     24  C         13.7400  -34.6860   -9.4370 C.2   305  VAL305      0.2591
     25  O         13.2900  -34.4110  -10.5500 O.2   305  VAL305     -0.2718
     26  CB        15.5440  -33.0910   -8.6030 C.3   305  VAL305      0.0266
     27  CG1       15.8510  -32.6960  -10.0550 C.3   305  VAL305      0.0020
     28  CG2       15.8280  -31.9110   -7.6650 C.3   305  VAL305      0.0020
     29  N         13.9570  -35.9380   -9.0360 N.am  306  GLU306     -0.1979
     30  CA        13.6460  -37.0830   -9.8900 C.3   306  GLU306      0.1602
     31  C         13.3630  -38.3400   -9.0630 C.2   306  GLU306      0.2287
     32  O         13.9180  -38.5040   -7.9790 O.2   306  GLU306     -0.2864
     33  CB        14.7790  -37.3360  -10.9000 C.3   306  GLU306      0.0415
     34  CG        15.9790  -38.0830  -10.3270 C.3   306  GLU306      0.1163
     35  CD        17.1520  -38.1280  -11.2800 C.2   306  GLU306      0.3649
     36  OE1       17.5880  -39.2460  -11.6360 O.co2 306  GLU306     -0.2457
     37  OE2       17.6340  -37.0460  -11.6730 O.co2 306  GLU306     -0.2457
     38  N         24.2580  -32.5470   -3.4690 N.3   345  ASP345     -0.1225
     39  CA        23.3800  -31.9440   -4.4700 C.3   345  ASP345      0.1805
     40  C         21.9010  -32.0980   -4.1260 C.2   345  ASP345      0.2597
     41  O         21.4830  -33.1430   -3.6190 O.2   345  ASP345     -0.2718
     42  CB        23.6590  -32.5000   -5.8750 C.3   345  ASP345      0.1424
     43  CG        23.6630  -34.0200   -5.9180 C.2   345  ASP345      0.3668
     44  OD1       23.9770  -34.6430   -4.8920 O.co2 345  ASP345     -0.2456
     45  OD2       23.3680  -34.5930   -6.9770 O.co2 345  ASP345     -0.2456
     46  N         21.1360  -31.0360   -4.3860 N.am  346  GLU346     -0.1979
     47  CA        19.6670  -31.0780   -4.4590 C.3   346  GLU346      0.1602
     48  C         18.9550  -31.6240   -3.2120 C.2   346  GLU346      0.2287
     49  O         18.1300  -32.5370   -3.3130 O.2   346  GLU346     -0.2864
     50  CB        19.2170  -31.8610   -5.7090 C.3   346  GLU346      0.0415
     51  CG        19.7120  -31.2880   -7.0410 C.3   346  GLU346      0.1163
     52  CD        19.5410  -32.2480   -8.2070 C.2   346  GLU346      0.3649
     53  OE1       19.6020  -33.4830   -8.0010 O.co2 346  GLU346     -0.2457
     54  OE2       19.3550  -31.7690   -9.3440 O.co2 346  GLU346     -0.2457
     55  N         28.8910  -30.4010   -4.5670 N.3   402  TRP402     -0.1241
     56  CA        28.2870  -29.7140   -5.7070 C.3   402  TRP402      0.1605
     57  C         27.8020  -28.3290   -5.2950 C.2   402  TRP402      0.2264
     58  O         27.5710  -28.0790   -4.1050 O.2   402  TRP402     -0.2867
     59  CB        27.0870  -30.5050   -6.2370 C.3   402  TRP402      0.0550
     60  CG        27.4250  -31.8330   -6.8260 C.ar  402  TRP402      0.0003
     61  CD1       27.3170  -33.0490   -6.2220 C.ar  402  TRP402      0.0946
     62  CD2       27.9130  -32.0830   -8.1480 C.ar  402  TRP402      0.0152
     63  NE1       27.7070  -34.0430   -7.0860 N.ar  402  TRP402     -0.2442
     64  CE2       28.0810  -33.4750   -8.2730 C.ar  402  TRP402      0.0810
     65  CE3       28.2230  -31.2630   -9.2400 C.ar  402  TRP402      0.0012
     66  CZ2       28.5510  -34.0680   -9.4430 C.ar  402  TRP402      0.0191
     67  CZ3       28.6760  -31.8540  -10.4070 C.ar  402  TRP402      0.0001
     68  CH2       28.8380  -33.2400  -10.4980 C.ar  402  TRP402      0.0015
     69  N         28.0240  -26.8630  -11.3960 N.3   426  TRP426     -0.1241
     70  CA        27.1950  -27.3080  -12.5080 C.3   426  TRP426      0.1605
     71  C         26.0840  -26.3130  -12.8320 C.2   426  TRP426      0.2264
     72  O         25.0180  -26.6980  -13.3170 O.2   426  TRP426     -0.2867
     73  CB        26.6520  -28.7210  -12.2720 C.3   426  TRP426      0.0550
     74  CG        25.6830  -28.8420  -11.1420 C.ar  426  TRP426      0.0003
     75  CD1       25.9680  -28.8070   -9.8090 C.ar  426  TRP426      0.0946
     76  CD2       24.2680  -29.0420  -11.2450 C.ar  426  TRP426      0.0152
     77  NE1       24.8180  -28.9640   -9.0760 N.ar  426  TRP426     -0.2442
     78  CE2       23.7590  -29.1070   -9.9340 C.ar  426  TRP426      0.0810
     79  CE3       23.3810  -29.1630  -12.3190 C.ar  426  TRP426      0.0012
     80  CZ2       22.4060  -29.2940   -9.6680 C.ar  426  TRP426      0.0191
     81  CZ3       22.0390  -29.3500  -12.0530 C.ar  426  TRP426      0.0001
     82  CH2       21.5640  -29.4140  -10.7380 C.ar  426  TRP426      0.0015
     83  N         27.5700  -31.2350  -19.6670 N.3   453  TYR453     -0.1241
     84  CA        26.6500  -32.3150  -19.3270 C.3   453  TYR453      0.1605
     85  C         26.3910  -33.2030  -20.5390 C.2   453  TYR453      0.2264
     86  O         25.6490  -32.8440  -21.4510 O.2   453  TYR453     -0.2867
     87  CB        25.3600  -31.7620  -18.7160 C.3   453  TYR453      0.0534
     88  CG        25.4210  -31.6610  -17.2110 C.ar  453  TYR453     -0.0201
     89  CD1       24.3110  -31.9630  -16.4280 C.ar  453  TYR453     -0.0009
     90  CD2       26.6070  -31.2890  -16.5660 C.ar  453  TYR453     -0.0009
     91  CE1       24.3740  -31.8750  -15.0440 C.ar  453  TYR453      0.0417
     92  CE2       26.6800  -31.2030  -15.1930 C.ar  453  TYR453      0.0417
     93  CZ        25.5660  -31.5000  -14.4370 C.ar  453  TYR453      0.1957
     94  OH        25.6560  -31.4210  -13.0710 O.3   453  TYR453     -0.2866
     95  N         24.9560  -36.0320  -20.8790 N.3   455  ASP455     -0.1239
     96  CA        23.6910  -36.7510  -20.9050 C.3   455  ASP455      0.1674
     97  C         22.5860  -36.0070  -21.6630 C.2   455  ASP455      0.2266
     98  O         21.6170  -36.6310  -22.1090 O.2   455  ASP455     -0.2867
     99  CB        23.2420  -37.0920  -19.4770 C.3   455  ASP455      0.1410
    100  CG        23.1610  -35.8680  -18.5630 C.2   455  ASP455      0.3668
    101  OD1       24.0290  -34.9700  -18.6460 O.co2 455  ASP455     -0.2456
    102  OD2       22.2270  -35.8180  -17.7370 O.co2 455  ASP455     -0.2456
    103  N         15.9310  -32.9270  -19.6300 N.3   468  TRP468     -0.1241
    104  CA        15.8770  -31.5740  -19.0440 C.3   468  TRP468      0.1605
    105  C         16.8740  -30.5550  -19.5970 C.2   468  TRP468      0.2264
    106  O         16.5400  -29.3750  -19.7240 O.2   468  TRP468     -0.2867
    107  CB        15.9890  -31.6350  -17.5080 C.3   468  TRP468      0.0550
    108  CG        17.4060  -31.7330  -16.9920 C.ar  468  TRP468      0.0003
    109  CD1       18.1320  -32.8750  -16.7960 C.ar  468  TRP468      0.0946
    110  CD2       18.2650  -30.6430  -16.6140 C.ar  468  TRP468      0.0152
    111  NE1       19.3830  -32.5650  -16.3230 N.ar  468  TRP468     -0.2442
    112  CE2       19.4940  -31.2040  -16.2060 C.ar  468  TRP468      0.0810
    113  CE3       18.1180  -29.2450  -16.5940 C.ar  468  TRP468      0.0012
    114  CZ2       20.5670  -30.4220  -15.7660 C.ar  468  TRP468      0.0191
    115  CZ3       19.1880  -28.4660  -16.1590 C.ar  468  TRP468      0.0001
    116  CH2       20.3950  -29.0570  -15.7500 C.ar  468  TRP468      0.0015
    117  N         25.8340  -38.4370  -16.4280 N.3   502  TRP502     -0.1241
    118  CA        24.7390  -38.9570  -15.6260 C.3   502  TRP502      0.1605
    119  C         24.0820  -40.0690  -16.4300 C.2   502  TRP502      0.2264
    120  O         24.1020  -40.0430  -17.6650 O.2   502  TRP502     -0.2867
    121  CB        23.7560  -37.8420  -15.2890 C.3   502  TRP502      0.0550
    122  CG        24.4280  -36.7370  -14.5370 C.ar  502  TRP502      0.0003
    123  CD1       24.7520  -35.5030  -15.0120 C.ar  502  TRP502      0.0946
    124  CD2       24.8920  -36.7820  -13.1800 C.ar  502  TRP502      0.0152
    125  NE1       25.3760  -34.7670  -14.0330 N.ar  502  TRP502     -0.2442
    126  CE2       25.4790  -35.5280  -12.9000 C.ar  502  TRP502      0.0810
    127  CE3       24.8720  -37.7610  -12.1760 C.ar  502  TRP502      0.0012
    128  CZ2       26.0340  -35.2200  -11.6540 C.ar  502  TRP502      0.0191
    129  CZ3       25.4220  -37.4570  -10.9360 C.ar  502  TRP502      0.0001
    130  CH2       25.9910  -36.1910  -10.6840 C.ar  502  TRP502      0.0015
    131  N         20.8520  -41.7760  -16.1860 N.3   504  GLU504     -0.1245
    132  CA        19.4230  -42.0690  -16.3120 C.3   504  GLU504      0.1567
    133  C         19.1490  -42.7040  -17.6690 C.2   504  GLU504      0.2260
    134  O         18.2560  -43.5480  -17.8040 O.2   504  GLU504     -0.2867
    135  CB        18.5760  -40.8110  -16.1340 C.3   504  GLU504      0.0388
    136  CG        18.5110  -40.2960  -14.6950 C.3   504  GLU504      0.1160
    137  CD        19.6390  -39.3280  -14.3440 C.2   504  GLU504      0.3649
    138  OE1       20.5880  -39.1680  -15.1450 O.co2 504  GLU504     -0.2457
    139  OE2       19.5680  -38.7270  -13.2550 O.co2 504  GLU504     -0.2457
@<TRIPOS>BOND
     1    98    97    2
     2    97    96    1
     3    86    85    2
     4    96    95    1
     5    96    99    1
     6    85    84    1
     7   106   105    2
     8    83    84    1
     9   103   104    1
    10   105   104    1
    11    99   100    1
    12    84    87    1
    13   104   107    1
    14    87    88    1
    15   101   100   ar
    16   100   102   ar
    17   134   133    2
    18   133   132    1
    19   120   119    2
    20   107   108    1
    21    88    90   ar
    22    88    89   ar
    23   108   109   ar
    24   108   110   ar
    25   109   111   ar
    26   110   113   ar
    27   110   112   ar
    28   113   115   ar
    29    90    92   ar
    30   119   118    1
    31   117   118    1
    32    89    91   ar
    33   111   112   ar
    34   132   131    1
    35   132   135    1
    36   112   114   ar
    37   115   116   ar
    38   135   136    1
    39   114   116   ar
    40   118   121    1
    41   121   122    1
    42    92    93   ar
    43   138   137   ar
    44    91    93   ar
    45   123   122   ar
    46   123   125   ar
    47   136   137    1
    48   122   124   ar
    49    93    94    1
    50   137   139   ar
    51   125   126   ar
    52     4     3    2
    53     3     2    1
    54    72    71    2
    55   124   126   ar
    56   124   127   ar
    57     5     2    1
    58     5     6    1
    59   126   128   ar
    60    71    70    1
    61    70    73    1
    62    70    69    1
    63     2     1    1
    64    79    81   ar
    65    79    76   ar
    66    73    74    1
    67   127   129   ar
    68     6     7    1
    69    81    82   ar
    70    37    35   ar
    71   128   130   ar
    72    36    35   ar
    73    35    34    1
    74    76    74   ar
    75    76    78   ar
    76    74    75   ar
    77    10     9    1
    78   129   130   ar
    79    33    34    1
    80    33    30    1
    81     7     8    1
    82    82    80   ar
    83    25    24    2
    84    68    67   ar
    85    68    66   ar
    86    67    65   ar
    87     9     8    2
    88     9    11    1
    89    27    26    1
    90    78    80   ar
    91    78    77   ar
    92    30    31    1
    93    30    29    1
    94    75    77   ar
    95    66    64   ar
    96    24    29   am
    97    24    23    1
    98    54    52   ar
    99    65    62   ar
   100    31    32    2
   101    26    23    1
   102    26    28    1
   103    23    22    1
   104    64    62   ar
   105    64    63   ar
   106    52    53   ar
   107    52    51    1
   108    62    60   ar
   109    21    19   ar
   110    21    20   ar
   111    63    61   ar
   112    51    50    1
   113    45    43   ar
   114    60    59    1
   115    60    61   ar
   116    19    17   ar
   117    59    56    1
   118    20    18   ar
   119    43    42    1
   120    43    44   ar
   121    42    39    1
   122    50    47    1
   123    56    57    1
   124    56    55    1
   125    17    18   ar
   126    17    16    1
   127    57    58    2
   128    39    40    1
   129    39    38    1
   130    47    46    1
   131    47    48    1
   132    16    13    1
   133    46    40   am
   134    40    41    2
   135    13    14    1
   136    13    12    1
   137    49    48    2
   138    15    14    2
