@<TRIPOS>MOLECULE
tmp/3ozrA00.pdb
 157 154 0 0 0
SMALL
GASTEIGER

@<TRIPOS>ATOM
      1  N        -35.3000   28.7990   10.8590 N.3    36  TRP36      -0.1241
      2  CA       -34.1450   28.2690   10.1220 C.3    36  TRP36       0.1605
      3  C        -32.8390   28.6210   10.8160 C.2    36  TRP36       0.2264
      4  O        -32.6630   29.7330   11.3060 O.2    36  TRP36      -0.2867
      5  CB       -34.0790   28.8080    8.6840 C.3    36  TRP36       0.0550
      6  CG       -32.9570   28.1570    7.8690 C.ar   36  TRP36       0.0003
      7  CD1      -33.0490   27.0130    7.0970 C.ar   36  TRP36       0.0946
      8  CD2      -31.5860   28.6010    7.7580 C.ar   36  TRP36       0.0152
      9  NE1      -31.8220   26.7250    6.5230 N.ar   36  TRP36      -0.2442
     10  CE2      -30.9040   27.6660    6.9170 C.ar   36  TRP36       0.0810
     11  CE3      -30.8650   29.6800    8.2920 C.ar   36  TRP36       0.0012
     12  CZ2      -29.5520   27.8150    6.5740 C.ar   36  TRP36       0.0191
     13  CZ3      -29.5030   29.8090    7.9660 C.ar   36  TRP36       0.0001
     14  CH2      -28.8700   28.8800    7.1170 C.ar   36  TRP36       0.0015
     15  N        -28.2470   27.5830   10.6470 N.3    38  MET38      -0.1245
     16  CA       -27.2140   26.9990    9.7800 C.3    38  MET38       0.1570
     17  C        -26.5430   25.7700   10.3980 C.2    38  MET38       0.2261
     18  O        -25.3060   25.6340   10.3580 O.2    38  MET38      -0.2867
     19  CB       -26.1790   28.0380    9.3910 C.3    38  MET38       0.0387
     20  CG       -25.3040   28.5500   10.5390 C.3    38  MET38       0.0595
     21  SD       -24.4800   30.0700   10.0230 S.3    38  MET38      -0.1393
     22  CE       -25.8530   31.1780    9.7350 C.3    38  MET38       0.0692
     23  N        -15.6440   25.5610   13.2970 N.3    64  GLY64      -0.1225
     24  CA       -16.9410   26.2470   13.3110 C.3    64  GLY64       0.1811
     25  C        -18.0500   25.4920   14.0180 C.2    64  GLY64       0.2280
     26  O        -18.8580   24.8650   13.3780 O.2    64  GLY64      -0.2866
     27  N        -20.6710   26.6000   15.9100 N.3    66  TYR66      -0.1241
     28  CA       -22.0110   27.2050   15.9390 C.3    66  TYR66       0.1605
     29  C        -22.7440   26.8590   17.2410 C.2    66  TYR66       0.2264
     30  O        -22.3220   27.3130   18.3000 O.2    66  TYR66      -0.2867
     31  CB       -22.8150   26.8860   14.6870 C.3    66  TYR66       0.0534
     32  CG       -24.0880   27.7090   14.5480 C.ar   66  TYR66      -0.0201
     33  CD1      -24.1060   29.0810   14.8780 C.ar   66  TYR66      -0.0009
     34  CD2      -25.2750   27.1360   14.0790 C.ar   66  TYR66      -0.0009
     35  CE1      -25.2930   29.8430   14.7810 C.ar   66  TYR66       0.0417
     36  CE2      -26.4530   27.8780   13.9630 C.ar   66  TYR66       0.0417
     37  CZ       -26.4580   29.2360   14.3190 C.ar   66  TYR66       0.1957
     38  OH       -27.6220   29.9580   14.1770 O.3    66  TYR66      -0.2866
     39  N        -14.5880   27.7730   17.6940 N.3    88  GLU88      -0.1231
     40  CA       -15.7000   28.6620   17.4910 C.3    88  GLU88       0.1699
     41  C        -15.2630   30.0920   17.7540 C.2    88  GLU88       0.2592
     42  O        -14.8180   30.4160   18.8650 O.2    88  GLU88      -0.2718
     43  CB       -16.8350   28.3200   18.4340 C.3    88  GLU88       0.0402
     44  CG       -18.0690   29.2210   18.3200 C.3    88  GLU88       0.1161
     45  CD       -18.5130   29.5590   16.8960 C.2    88  GLU88       0.3649
     46  OE1      -18.7080   28.6520   16.0440 O.co2  88  GLU88      -0.2457
     47  OE2      -18.7100   30.7500   16.6360 O.co2  88  GLU88      -0.2457
     48  N        -15.3970   30.9240   16.7410 N.am   89  ILE89      -0.1966
     49  CA       -14.9460   32.3220   16.8660 C.3    89  ILE89       0.1727
     50  C        -15.8450   33.2080   17.7730 C.2    89  ILE89       0.2616
     51  O        -15.3560   34.1530   18.4130 O.2    89  ILE89      -0.2715
     52  CB       -14.7490   32.9620   15.4770 C.3    89  ILE89       0.0290
     53  CG1      -13.9210   34.2630   15.6350 C.3    89  ILE89       0.0022
     54  CG2      -16.1080   33.1900   14.7870 C.3    89  ILE89       0.0023
     55  CD1      -13.2400   34.7080   14.3530 C.3    89  ILE89       0.0001
     56  N        -17.1320   32.8910   17.8490 N.am   90  ASN90      -0.1972
     57  CA       -18.0710   33.6550   18.6610 C.3    90  ASN90       0.1688
     58  C        -18.1820   33.0910   20.1040 C.2    90  ASN90       0.2292
     59  O        -18.6070   31.9530   20.3150 O.2    90  ASN90      -0.2864
     60  CB       -19.4200   33.6990   17.9380 C.3    90  ASN90       0.1181
     61  CG       -20.4500   34.5620   18.6550 C.2    90  ASN90       0.2629
     62  OD1      -20.5100   34.5860   19.8740 O.2    90  ASN90      -0.2716
     63  ND2      -21.2540   35.2800   17.8900 N.am   90  ASN90      -0.0877
     64  N        -21.7960   31.6750   20.9570 N.3    93  CYS93      -0.1235
     65  CA       -21.9510   30.3530   20.3250 C.3    93  CYS93       0.1677
     66  C        -21.1050   29.2830   21.0160 C.2    93  CYS93       0.2270
     67  O        -21.5520   28.1490   21.1550 O.2    93  CYS93      -0.2867
     68  CB       -21.5870   30.4190   18.8300 C.3    93  CYS93       0.0956
     69  SG       -22.7440   31.4390   17.8160 S.3    93  CYS93      -0.0801
     70  N        -16.7140   23.8510    8.4710 N.3   139  ASP139     -0.1225
     71  CA       -18.0370   24.4270    8.4260 C.3   139  ASP139      0.1805
     72  C        -18.0630   25.8670    8.9780 C.2   139  ASP139      0.2598
     73  O        -19.0860   26.2960    9.4790 O.2   139  ASP139     -0.2718
     74  CB       -18.9860   23.5650    9.2340 C.3   139  ASP139      0.1424
     75  CG       -20.4720   23.8350    8.9530 C.2   139  ASP139      0.3668
     76  OD1      -20.8790   24.2960    7.8720 O.co2 139  ASP139     -0.2456
     77  OD2      -21.2900   23.5700    9.8780 O.co2 139  ASP139     -0.2456
     78  N        -16.9440   26.5540    8.8980 N.am  140  HIS140     -0.1961
     79  CA       -16.8270   27.9360    9.3790 C.3   140  HIS140      0.1787
     80  C        -16.9940   28.9220    8.2220 C.2   140  HIS140      0.2620
     81  O        -17.6580   28.6190    7.2410 O.2   140  HIS140     -0.2715
     82  CB       -15.5710   28.1480   10.2070 C.3   140  HIS140      0.0785
     83  CG       -14.2680   27.8800    9.4910 C.ar  140  HIS140      0.0821
     84  ND1      -14.1590   26.9790    8.4630 N.ar  140  HIS140     -0.2267
     85  CD2      -13.0190   28.3640    9.6940 C.ar  140  HIS140      0.1154
     86  CE1      -12.9000   26.8900    8.0790 C.ar  140  HIS140      0.1986
     87  NE2      -12.1870   27.7510    8.7830 N.ar  140  HIS140     -0.2212
     88  N        -16.4530   30.1330    8.3600 N.am  141  TRP141     -0.1960
     89  CA       -16.5170   31.0710    7.2590 C.3   141  TRP141      0.1771
     90  C        -16.0090   30.4540    5.9700 C.2   141  TRP141      0.2619
     91  O        -14.9160   29.8610    5.9550 O.2   141  TRP141     -0.2715
     92  CB       -15.7100   32.3340    7.6240 C.3   141  TRP141      0.0590
     93  CG       -16.4230   33.1480    8.6860 C.ar  141  TRP141      0.0006
     94  CD1      -17.7790   33.3050    8.8410 C.ar  141  TRP141      0.0946
     95  CD2      -15.8150   33.9030    9.7210 C.ar  141  TRP141      0.0152
     96  NE1      -18.0450   34.0990    9.9220 N.ar  141  TRP141     -0.2442
     97  CE2      -16.8580   34.4880   10.4790 C.ar  141  TRP141      0.0810
     98  CE3      -14.4870   34.1560   10.0790 C.ar  141  TRP141      0.0012
     99  CZ2      -16.6130   35.3110   11.5800 C.ar  141  TRP141      0.0191
    100  CZ3      -14.2390   34.9760   11.1700 C.ar  141  TRP141      0.0001
    101  CH2      -15.3020   35.5470   11.9100 C.ar  141  TRP141      0.0015
    102  N        -16.7830   30.6100    4.8950 N.am  142  LYS142     -0.1977
    103  CA       -16.5100   29.8650    3.6750 C.3   142  LYS142      0.1596
    104  C        -15.2270   30.3540    3.0310 C.2   142  LYS142      0.2287
    105  O        -14.5140   29.5910    2.3820 O.2   142  LYS142     -0.2864
    106  CB       -17.6840   29.9270    2.6820 C.3   142  LYS142      0.0298
    107  CG       -19.0370   29.3930    3.2230 C.3   142  LYS142      0.0038
    108  CD       -18.9020   28.0920    4.1160 C.3   142  LYS142      0.0206
    109  CE       -20.1220   27.8740    5.0030 C.3   142  LYS142      0.1093
    110  NZ       -19.7720   27.0250    6.2350 N.3   142  LYS142     -0.1314
    111  N        -18.4770   21.1350    4.5090 N.3   167  ASP167     -0.1225
    112  CA       -19.8580   21.4770    4.2710 C.3   167  ASP167      0.1805
    113  C        -19.9550   22.6620    3.3100 C.2   167  ASP167      0.2597
    114  O        -19.0060   23.4740    3.2220 O.2   167  ASP167     -0.2718
    115  CB       -20.5240   21.8290    5.6410 C.3   167  ASP167      0.1424
    116  CG       -22.0540   21.8950    5.5760 C.2   167  ASP167      0.3668
    117  OD1      -22.6430   21.1990    4.7220 O.co2 167  ASP167     -0.2456
    118  OD2      -22.7010   22.6450    6.4000 O.co2 167  ASP167     -0.2456
    119  N        -21.0880   22.7510    2.6130 N.am  168  ASN168     -0.1974
    120  CA       -21.5500   23.9550    1.9200 C.3   168  ASN168      0.1688
    121  C        -20.6820   24.2500    0.7290 C.2   168  ASN168      0.2292
    122  O        -20.4990   25.4000    0.3850 O.2   168  ASN168     -0.2864
    123  CB       -21.4980   25.1710    2.8370 C.3   168  ASN168      0.1181
    124  CG       -22.3690   25.0100    4.0580 C.2   168  ASN168      0.2629
    125  OD1      -21.8820   25.0960    5.1660 O.2   168  ASN168     -0.2716
    126  ND2      -23.6480   24.7690    3.8470 N.am  168  ASN168     -0.0877
    127  N        -23.5610   25.5350   -1.7060 N.3   171  VAL171     -0.1231
    128  CA       -24.3480   26.6430   -1.1710 C.3   171  VAL171      0.1678
    129  C        -24.0470   26.8060    0.2910 C.2   171  VAL171      0.2434
    130  O        -24.2230   25.8450    1.1010 O.2   171  VAL171     -0.2733
    131  CB       -25.8780   26.4630   -1.4140 C.3   171  VAL171      0.0265
    132  CG1      -26.6390   27.6170   -0.7850 C.3   171  VAL171      0.0020
    133  CG2      -26.1830   26.3300   -2.9150 C.3   171  VAL171      0.0020
    134  N        -23.5300   27.9790    0.6780 N.am  172  PRO172     -0.2729
    135  CA       -23.2480   29.2020   -0.1270 C.3   172  PRO172      0.1401
    136  C        -22.0790   29.0590   -1.0920 C.2   172  PRO172      0.2269
    137  O        -21.8850   29.8920   -1.9660 O.2   172  PRO172     -0.2865
    138  CB       -22.8920   30.2360    0.9230 C.3   172  PRO172      0.0296
    139  CG       -23.3780   29.7890    2.1720 C.3   172  PRO172      0.0237
    140  CD       -23.4530   28.2660    2.1250 C.3   172  PRO172      0.0939
    141  N        -29.2420   21.5600    1.2350 N.3   196  LEU196     -0.1231
    142  CA       -28.9780   22.5430    2.2610 C.3   196  LEU196      0.1693
    143  C        -29.9420   22.2170    3.4070 C.2   196  LEU196      0.2591
    144  O        -31.1230   21.9250    3.1620 O.2   196  LEU196     -0.2718
    145  CB       -29.2410   23.9820    1.7370 C.3   196  LEU196      0.0284
    146  CG       -28.8290   25.1340    2.6510 C.3   196  LEU196      0.0019
    147  CD1      -27.3250   25.1310    2.8220 C.3   196  LEU196      0.0001
    148  CD2      -29.3310   26.5140    2.0560 C.3   196  LEU196      0.0001
    149  N        -29.4170   22.2800    4.6250 N.am  197  GLU197     -0.1979
    150  CA       -30.1780   22.0220    5.8460 C.3   197  GLU197      0.1602
    151  C        -31.5720   22.6780    5.8620 C.2   197  GLU197      0.2287
    152  O        -31.7380   23.8740    5.5310 O.2   197  GLU197     -0.2864
    153  CB       -29.3890   22.4730    7.0680 C.3   197  GLU197      0.0415
    154  CG       -28.9160   23.9590    7.0120 C.3   197  GLU197      0.1163
    155  CD       -27.4580   24.1370    6.6230 C.2   197  GLU197      0.3649
    156  OE1      -26.9420   23.3680    5.7810 O.co2 197  GLU197     -0.2457
    157  OE2      -26.8230   25.0290    7.2260 O.co2 197  GLU197     -0.2457
@<TRIPOS>BOND
     1   133   131    1
     2   137   136    2
     3   127   128    1
     4   131   128    1
     5   131   132    1
     6   128   129    1
     7   136   135    1
     8   135   134    1
     9   135   138    1
    10   129   134   am
    11   129   130    2
    12   122   121    2
    13   134   140    1
    14   121   120    1
    15   138   139    1
    16   141   142    1
    17   145   142    1
    18   145   146    1
    19   120   119    1
    20   120   123    1
    21   148   146    1
    22   140   139    1
    23   142   143    1
    24   105   104    2
    25   119   113   am
    26   146   147    1
    27   106   107    1
    28   106   103    1
    29   123   124    1
    30   104   103    1
    31   144   143    2
    32   114   113    2
    33   107   108    1
    34   113   112    1
    35   143   149   am
    36   103   102    1
    37   126   124   am
    38   124   125    2
    39   108   109    1
    40   112   111    1
    41   112   115    1
    42   149   150    1
    43   117   116   ar
    44   102    90   am
    45   109   110    1
    46   152   151    2
    47   116   115    1
    48   116   118   ar
    49   156   155   ar
    50   150   151    1
    51   150   153    1
    52    91    90    2
    53    90    89    1
    54     9    10   ar
    55     9     7   ar
    56    12    10   ar
    57    12    14   ar
    58   155   154    1
    59   155   157   ar
    60    10     8   ar
    61   154   153    1
    62     7     6   ar
    63    14    13   ar
    64    81    80    2
    65    89    92    1
    66    89    88    1
    67    92    93    1
    68     8     6   ar
    69     8    11   ar
    70     6     5    1
    71    76    75   ar
    72    13    11   ar
    73    86    84   ar
    74    86    87   ar
    75    80    88   am
    76    80    79    1
    77    71    70    1
    78    71    72    1
    79    71    74    1
    80    84    83   ar
    81     5     2    1
    82    93    94   ar
    83    93    95   ar
    84    87    85   ar
    85    94    96   ar
    86    78    72   am
    87    78    79    1
    88    75    74    1
    89    75    77   ar
    90    72    73    2
    91    79    82    1
    92    19    16    1
    93    19    20    1
    94    83    85   ar
    95    83    82    1
    96    95    98   ar
    97    95    97   ar
    98    22    21    1
    99    16    17    1
   100    16    15    1
   101    96    97   ar
   102    21    20    1
   103    98   100   ar
   104     2     3    1
   105     2     1    1
   106    18    17    2
   107    97    99   ar
   108     3     4    2
   109   100   101   ar
   110    99   101   ar
   111    23    24    1
   112    24    25    1
   113    26    25    2
   114    36    34   ar
   115    36    37   ar
   116    34    32   ar
   117    38    37    1
   118    37    35   ar
   119    55    53    1
   120    32    31    1
   121    32    33   ar
   122    31    28    1
   123    35    33   ar
   124    54    52    1
   125    52    53    1
   126    52    49    1
   127    27    28    1
   128    28    29    1
   129    46    45   ar
   130    47    45   ar
   131    48    49    1
   132    48    41   am
   133    49    50    1
   134    45    44    1
   135    29    30    2
   136    40    39    1
   137    40    41    1
   138    40    43    1
   139    41    42    2
   140    50    56   am
   141    50    51    2
   142    69    68    1
   143    56    57    1
   144    63    61   am
   145    60    61    1
   146    60    57    1
   147    44    43    1
   148    61    62    2
   149    57    58    1
   150    68    65    1
   151    58    59    2
   152    65    64    1
   153    65    66    1
   154    66    67    2
