@<TRIPOS>MOLECULE
tmp/3ozsA00.pdb
 215 209 0 0 0
SMALL
GASTEIGER

@<TRIPOS>ATOM
      1  N        -35.3010   29.0810   10.6210 N.3    36  TRP36      -0.1241
      2  CA       -34.1580   28.5570    9.8910 C.3    36  TRP36       0.1605
      3  C        -32.8910   28.8850   10.6820 C.2    36  TRP36       0.2264
      4  O        -32.7110   30.0070   11.1680 O.2    36  TRP36      -0.2867
      5  CB       -34.0770   29.2230    8.5020 C.3    36  TRP36       0.0550
      6  CG       -33.0720   28.5000    7.6340 C.ar   36  TRP36       0.0003
      7  CD1      -33.3100   27.4150    6.8450 C.ar   36  TRP36       0.0946
      8  CD2      -31.6960   28.8040    7.4900 C.ar   36  TRP36       0.0152
      9  NE1      -32.1480   27.0190    6.1880 N.ar   36  TRP36      -0.2442
     10  CE2      -31.1270   27.8190    6.6120 C.ar   36  TRP36       0.0810
     11  CE3      -30.8680   29.7690    8.0350 C.ar   36  TRP36       0.0012
     12  CZ2      -29.7870   27.8450    6.2520 C.ar   36  TRP36       0.0191
     13  CZ3      -29.5240   29.7910    7.6730 C.ar   36  TRP36       0.0001
     14  CH2      -28.9940   28.8150    6.8200 C.ar   36  TRP36       0.0015
     15  N        -28.3730   27.7860   10.3440 N.3    38  MET38      -0.1230
     16  CA       -27.2790   27.1280    9.5600 C.3    38  MET38       0.1702
     17  C        -26.6360   25.9020   10.1930 C.2    38  MET38       0.2592
     18  O        -25.3960   25.7280   10.1740 O.2    38  MET38      -0.2718
     19  CB       -26.2070   28.1730    9.2510 C.3    38  MET38       0.0401
     20  CG       -25.3620   28.6090   10.4550 C.3    38  MET38       0.0596
     21  SD       -24.2070   29.9130   10.0330 S.3    38  MET38      -0.1393
     22  CE       -25.3640   31.2170    9.5230 C.3    38  MET38       0.0692
     23  N        -27.4400   25.0430   10.7620 N.am   39  ASN39      -0.1974
     24  CA       -26.9500   23.7220   11.2070 C.3    39  ASN39       0.1688
     25  C        -26.8430   22.8720    9.9480 C.2    39  ASN39       0.2292
     26  O        -27.6540   23.0290    9.0270 O.2    39  ASN39      -0.2864
     27  CB       -27.9610   23.0790   12.1760 C.3    39  ASN39       0.1181
     28  CG       -28.3740   23.9670   13.3000 C.2    39  ASN39       0.2629
     29  OD1      -29.5950   24.2250   13.5010 O.2    39  ASN39      -0.2716
     30  ND2      -27.4010   24.4480   14.0650 N.am   39  ASN39      -0.0877
     31  N        -13.9720   23.1220   12.4070 N.3    63  LEU63      -0.1231
     32  CA       -13.9090   24.5740   12.2920 C.3    63  LEU63       0.1693
     33  C        -15.3180   25.0800   12.0880 C.2    63  LEU63       0.2592
     34  O        -15.9500   24.8150   11.0450 O.2    63  LEU63      -0.2718
     35  CB       -12.9860   24.9900   11.1590 C.3    63  LEU63       0.0284
     36  CG       -11.5580   24.5010   11.1850 C.3    63  LEU63       0.0019
     37  CD1      -10.7940   25.1160    9.9820 C.3    63  LEU63       0.0001
     38  CD2      -10.9170   24.9250   12.4630 C.3    63  LEU63       0.0001
     39  N        -15.8690   25.7550   13.1360 N.am   64  GLY64      -0.1957
     40  CA       -17.1660   26.2810   13.0830 C.3    64  GLY64       0.1869
     41  C        -18.1930   25.5550   13.9120 C.2    64  GLY64       0.2309
     42  O        -18.9690   24.7940   13.3660 O.2    64  GLY64      -0.2863
     43  N        -20.7930   26.8490   15.9010 N.3    66  TYR66      -0.1241
     44  CA       -22.1380   27.4610   15.8330 C.3    66  TYR66       0.1605
     45  C        -22.9100   27.1080   17.1250 C.2    66  TYR66       0.2264
     46  O        -22.5530   27.6230   18.1880 O.2    66  TYR66      -0.2867
     47  CB       -22.8770   27.2320   14.5200 C.3    66  TYR66       0.0534
     48  CG       -24.1610   28.0140   14.3820 C.ar   66  TYR66      -0.0201
     49  CD1      -24.2160   29.3920   14.7050 C.ar   66  TYR66      -0.0009
     50  CD2      -25.3130   27.4160   13.9450 C.ar   66  TYR66      -0.0009
     51  CE1      -25.4400   30.0880   14.5990 C.ar   66  TYR66       0.0417
     52  CE2      -26.4950   28.0920   13.7940 C.ar   66  TYR66       0.0417
     53  CZ       -26.5510   29.4600   14.1310 C.ar   66  TYR66       0.1957
     54  OH       -27.7370   30.1750   14.0150 O.3    66  TYR66      -0.2866
     55  N        -13.5020   24.5420   17.0550 N.3    87  MET87      -0.1230
     56  CA       -13.0630   25.9740   17.0390 C.3    87  MET87       0.1702
     57  C        -14.2290   26.8920   16.7770 C.2    87  MET87       0.2592
     58  O        -14.9230   26.7680   15.7480 O.2    87  MET87      -0.2718
     59  CB       -12.0790   26.2440   15.8950 C.3    87  MET87       0.0401
     60  CG       -10.6430   26.0110   16.1890 C.3    87  MET87       0.0596
     61  SD        -9.4420   27.2200   15.5190 S.3    87  MET87      -0.1393
     62  CE        -8.0180   26.1470   15.7390 C.3    87  MET87       0.0692
     63  N        -14.4130   27.9150   17.6420 N.am   88  GLU88      -0.1966
     64  CA       -15.5370   28.8300   17.5000 C.3    88  GLU88       0.1733
     65  C        -15.0240   30.2140   17.8970 C.2    88  GLU88       0.2616
     66  O        -14.6670   30.4070   19.0340 O.2    88  GLU88      -0.2715
     67  CB       -16.6240   28.3900   18.4250 C.3    88  GLU88       0.0429
     68  CG       -17.9100   29.2340   18.3530 C.3    88  GLU88       0.1163
     69  CD       -18.2740   29.6720   16.9710 C.2    88  GLU88       0.3649
     70  OE1      -18.8110   28.8230   16.2230 O.co2  88  GLU88      -0.2457
     71  OE2      -18.0240   30.8440   16.6120 O.co2  88  GLU88      -0.2457
     72  N        -15.0040   31.1550   16.9750 N.am   89  ILE89      -0.1963
     73  CA       -14.4000   32.4900   17.2800 C.3    89  ILE89       0.1727
     74  C        -15.3970   33.3570   18.0900 C.2    89  ILE89       0.2616
     75  O        -14.9750   34.2170   18.9180 O.2    89  ILE89      -0.2715
     76  CB       -13.9420   33.1680   15.9260 C.3    89  ILE89       0.0290
     77  CG1      -13.0160   34.3790   16.1640 C.3    89  ILE89       0.0022
     78  CG2      -15.1450   33.5110   15.0250 C.3    89  ILE89       0.0023
     79  CD1      -12.5220   35.0280   14.8600 C.3    89  ILE89       0.0001
     80  N        -16.6980   33.1090   17.9240 N.am   90  ASN90      -0.1972
     81  CA       -17.7270   33.8470   18.6360 C.3    90  ASN90       0.1688
     82  C        -17.9580   33.2650   20.0490 C.2    90  ASN90       0.2292
     83  O        -18.3710   32.1150   20.1920 O.2    90  ASN90      -0.2864
     84  CB       -18.9840   33.8200   17.8100 C.3    90  ASN90       0.1181
     85  CG       -20.0970   34.6560   18.4090 C.2    90  ASN90       0.2629
     86  OD1      -20.2760   34.7290   19.6210 O.2    90  ASN90      -0.2716
     87  ND2      -20.8740   35.2570   17.5540 N.am   90  ASN90      -0.0877
     88  N        -21.5750   31.8430   20.7860 N.3    93  CYS93      -0.1235
     89  CA       -21.6910   30.5310   20.1220 C.3    93  CYS93       0.1677
     90  C        -20.9340   29.4410   20.8630 C.2    93  CYS93       0.2270
     91  O        -21.4210   28.3220   21.0010 O.2    93  CYS93      -0.2867
     92  CB       -21.1260   30.6110   18.6970 C.3    93  CYS93       0.0956
     93  SG       -22.1180   31.6510   17.5630 S.3    93  CYS93      -0.0801
     94  N        -11.5290   31.1050   19.7860 N.3   115  GLY115     -0.1210
     95  CA       -10.4980   31.9680   19.2540 C.3   115  GLY115      0.1956
     96  C        -10.5040   31.9060   17.7670 C.2   115  GLY115      0.2612
     97  O        -11.3100   31.2000   17.1560 O.2   115  GLY115     -0.2717
     98  N         -9.6300   32.7290   17.1980 N.am  116  ALA116     -0.1965
     99  CA        -9.4380   32.8000   15.7720 C.3   116  ALA116      0.1728
    100  C         -8.5060   31.6710   15.3410 C.2   116  ALA116      0.2616
    101  O         -7.5680   31.3690   16.0100 O.2   116  ALA116     -0.2715
    102  CB        -8.8120   34.1220   15.4020 C.3   116  ALA116      0.0334
    103  N         -8.7760   31.0880   14.1870 N.am  117  SER117     -0.1950
    104  CA        -7.9260   30.0180   13.6690 C.3   117  SER117      0.1924
    105  C         -6.4830   30.4110   13.4680 C.2   117  SER117      0.2314
    106  O         -5.5880   29.6020   13.6490 O.2   117  SER117     -0.2863
    107  CB        -8.4930   29.5240   12.3700 C.3   117  SER117      0.2116
    108  OG        -8.4360   30.5920   11.4270 O.3   117  SER117     -0.2180
    109  N        -16.8610   24.0220    8.3820 N.3   139  ASP139     -0.1225
    110  CA       -18.2040   24.5350    8.2830 C.3   139  ASP139      0.1805
    111  C        -18.3090   25.9490    8.8710 C.2   139  ASP139      0.2598
    112  O        -19.3510   26.3480    9.4220 O.2   139  ASP139     -0.2718
    113  CB       -19.2300   23.6310    9.0070 C.3   139  ASP139      0.1424
    114  CG       -20.6790   23.9620    8.7150 C.2   139  ASP139      0.3668
    115  OD1      -21.0500   24.4840    7.6650 O.co2 139  ASP139     -0.2456
    116  OD2      -21.5420   23.5860    9.6210 O.co2 139  ASP139     -0.2456
    117  N        -17.2050   26.6760    8.7350 N.am  140  HIS140     -0.1961
    118  CA       -17.1520   28.0700    9.2400 C.3   140  HIS140      0.1787
    119  C        -17.3480   29.0190    8.0520 C.2   140  HIS140      0.2620
    120  O        -18.0790   28.7290    7.1360 O.2   140  HIS140     -0.2715
    121  CB       -15.9120   28.2750   10.0680 C.3   140  HIS140      0.0785
    122  CG       -14.6230   28.0180    9.3440 C.ar  140  HIS140      0.0821
    123  ND1      -14.4680   27.0560    8.3670 N.ar  140  HIS140     -0.2267
    124  CD2      -13.4080   28.5870    9.5170 C.ar  140  HIS140      0.1154
    125  CE1      -13.2040   27.0490    7.9770 C.ar  140  HIS140      0.1986
    126  NE2      -12.5490   27.9950    8.6410 N.ar  140  HIS140     -0.2212
    127  N        -16.7780   30.2230    8.1360 N.am  141  TRP141     -0.1960
    128  CA       -16.9580   31.1470    7.0670 C.3   141  TRP141      0.1771
    129  C        -16.3330   30.5520    5.7850 C.2   141  TRP141      0.2619
    130  O        -15.2060   30.0480    5.7980 O.2   141  TRP141     -0.2715
    131  CB       -16.3820   32.5320    7.4770 C.3   141  TRP141      0.0590
    132  CG       -17.1800   33.1950    8.6600 C.ar  141  TRP141      0.0006
    133  CD1      -18.5530   33.2660    8.7800 C.ar  141  TRP141      0.0946
    134  CD2      -16.6560   33.8130    9.8430 C.ar  141  TRP141      0.0152
    135  NE1      -18.8980   33.8790    9.9440 N.ar  141  TRP141     -0.2442
    136  CE2      -17.7580   34.2300   10.6180 C.ar  141  TRP141      0.0810
    137  CE3      -15.3690   34.0550   10.3170 C.ar  141  TRP141      0.0012
    138  CZ2      -17.6110   34.8810   11.8530 C.ar  141  TRP141      0.0191
    139  CZ3      -15.2110   34.7160   11.5410 C.ar  141  TRP141      0.0001
    140  CH2      -16.3280   35.1310   12.2910 C.ar  141  TRP141      0.0015
    141  N        -17.0850   30.6590    4.6880 N.am  142  LYS142     -0.1977
    142  CA       -16.7250   29.9460    3.4930 C.3   142  LYS142      0.1596
    143  C        -15.4060   30.4110    2.8750 C.2   142  LYS142      0.2287
    144  O        -14.6740   29.5970    2.2840 O.2   142  LYS142     -0.2864
    145  CB       -17.8360   29.8970    2.5060 C.3   142  LYS142      0.0298
    146  CG       -19.1970   29.3830    3.0530 C.3   142  LYS142      0.0038
    147  CD       -19.0830   28.1620    3.9680 C.3   142  LYS142      0.0206
    148  CE       -20.3150   28.0350    4.8320 C.3   142  LYS142      0.1093
    149  NZ       -20.0980   27.0740    5.9440 N.3   142  LYS142     -0.1314
    150  N        -12.8260   31.0820    4.4870 N.3   144  ARG144     -0.1245
    151  CA       -11.7880   30.6830    5.3380 C.3   144  ARG144      0.1563
    152  C        -11.4040   29.2140    5.1730 C.2   144  ARG144      0.2260
    153  O        -10.3980   28.7370    5.6410 O.2   144  ARG144     -0.2867
    154  CB       -12.1740   30.9170    6.8180 C.3   144  ARG144      0.0307
    155  CG       -12.3080   32.4250    7.1690 C.3   144  ARG144      0.0489
    156  CD       -11.0150   33.2140    6.9960 C.3   144  ARG144      0.2205
    157  NE        -9.8610   32.5600    7.5770 N.pl3 144  ARG144     -0.0865
    158  CZ        -8.5680   32.8860    7.4090 C.cat 144  ARG144      0.5346
    159  NH1       -8.2520   33.9140    6.6690 N.pl3 144  ARG144      0.1354
    160  NH2       -7.6030   32.1520    7.9030 N.pl3 144  ARG144      0.1354
    161  N         -7.4280   28.3060    5.8610 N.3   148  ASP148     -0.1239
    162  CA        -7.2510   27.4410    7.0180 C.3   148  ASP148      0.1674
    163  C         -6.6780   26.0710    6.6620 C.2   148  ASP148      0.2266
    164  O         -5.9150   25.4990    7.4040 O.2   148  ASP148     -0.2867
    165  CB        -8.5490   27.3280    7.8230 C.3   148  ASP148      0.1410
    166  CG        -8.8560   28.5650    8.6770 C.2   148  ASP148      0.3668
    167  OD1       -7.9690   29.4590    8.8280 O.co2 148  ASP148     -0.2456
    168  OD2      -10.0160   28.7620    9.1040 O.co2 148  ASP148     -0.2456
    169  N        -18.6160   21.2470    4.4080 N.3   167  ASP167     -0.1225
    170  CA       -19.9840   21.5550    4.1520 C.3   167  ASP167      0.1805
    171  C        -20.1370   22.7000    3.1040 C.2   167  ASP167      0.2597
    172  O        -19.2120   23.5190    2.9900 O.2   167  ASP167     -0.2718
    173  CB       -20.6900   21.9280    5.4780 C.3   167  ASP167      0.1424
    174  CG       -22.2160   21.9640    5.3510 C.2   167  ASP167      0.3668
    175  OD1      -22.7950   21.2480    4.4850 O.co2 167  ASP167     -0.2456
    176  OD2      -22.9290   22.7570    6.1200 O.co2 167  ASP167     -0.2456
    177  N        -21.2940   22.7950    2.4490 N.am  168  ASN168     -0.1974
    178  CA       -21.7040   23.9470    1.7130 C.3   168  ASN168      0.1688
    179  C        -20.8440   24.1920    0.5180 C.2   168  ASN168      0.2292
    180  O        -20.6800   25.3510    0.1090 O.2   168  ASN168     -0.2864
    181  CB       -21.6560   25.1550    2.6080 C.3   168  ASN168      0.1181
    182  CG       -22.5610   25.0350    3.8190 C.2   168  ASN168      0.2629
    183  OD1      -22.1020   25.1620    4.9690 O.2   168  ASN168     -0.2716
    184  ND2      -23.8380   24.8250    3.5500 N.am  168  ASN168     -0.0877
    185  N        -23.8450   25.4180   -1.9950 N.3   171  VAL171     -0.1231
    186  CA       -24.5790   26.5450   -1.4960 C.3   171  VAL171      0.1678
    187  C        -24.2750   26.7340   -0.0110 C.2   171  VAL171      0.2434
    188  O        -24.4380   25.7960    0.8230 O.2   171  VAL171     -0.2733
    189  CB       -26.0890   26.3630   -1.6790 C.3   171  VAL171      0.0265
    190  CG1      -26.7960   27.6030   -1.0330 C.3   171  VAL171      0.0020
    191  CG2      -26.4750   26.1780   -3.1270 C.3   171  VAL171      0.0020
    192  N        -23.7500   27.8920    0.4040 N.am  172  PRO172     -0.2729
    193  CA       -23.3940   29.0780   -0.3910 C.3   172  PRO172      0.1401
    194  C        -22.2190   28.9240   -1.3580 C.2   172  PRO172      0.2269
    195  O        -22.0540   29.7930   -2.2040 O.2   172  PRO172     -0.2865
    196  CB       -23.0670   30.1380    0.6680 C.3   172  PRO172      0.0296
    197  CG       -23.7440   29.7340    1.8660 C.3   172  PRO172      0.0237
    198  CD       -23.7380   28.2120    1.8370 C.3   172  PRO172      0.0939
    199  N        -29.4940   21.3970    0.9540 N.3   196  LEU196     -0.1231
    200  CA       -29.3310   22.4480    1.9700 C.3   196  LEU196      0.1693
    201  C        -30.3660   22.2270    3.1090 C.2   196  LEU196      0.2591
    202  O        -31.5410   21.8980    2.8350 O.2   196  LEU196     -0.2718
    203  CB       -29.4980   23.8440    1.3380 C.3   196  LEU196      0.0284
    204  CG       -29.0990   25.0290    2.2000 C.3   196  LEU196      0.0019
    205  CD1      -27.5730   25.0640    2.3650 C.3   196  LEU196      0.0001
    206  CD2      -29.5670   26.3110    1.4350 C.3   196  LEU196      0.0001
    207  N        -29.9270   22.4620    4.3170 N.am  197  GLU197     -0.1979
    208  CA       -30.7380   22.3040    5.5440 C.3   197  GLU197      0.1602
    209  C        -32.0230   23.2140    5.5520 C.2   197  GLU197      0.2287
    210  O        -31.9760   24.3600    5.1290 O.2   197  GLU197     -0.2864
    211  CB       -29.8480   22.5630    6.7600 C.3   197  GLU197      0.0415
    212  CG       -29.2280   23.9990    6.7970 C.3   197  GLU197      0.1163
    213  CD       -27.7900   24.1010    6.3790 C.2   197  GLU197      0.3649
    214  OE1      -27.3380   23.3440    5.4900 O.co2 197  GLU197     -0.2457
    215  OE2      -27.0720   24.9990    6.9090 O.co2 197  GLU197     -0.2457
@<TRIPOS>BOND
     1   191   189    1
     2   195   194    2
     3   185   186    1
     4   189   186    1
     5   189   190    1
     6   186   187    1
     7   194   193    1
     8   193   192    1
     9   193   196    1
    10   187   192   am
    11   187   188    2
    12   180   179    2
    13   192   198    1
    14   179   178    1
    15   196   197    1
    16   199   200    1
    17   203   200    1
    18   203   204    1
    19   206   204    1
    20   178   177    1
    21   178   181    1
    22   198   197    1
    23   200   201    1
    24   204   205    1
    25   144   143    2
    26   177   171   am
    27   145   146    1
    28   145   142    1
    29   181   182    1
    30   202   201    2
    31   143   142    1
    32   172   171    2
    33   146   147    1
    34   171   170    1
    35   201   207   am
    36   142   141    1
    37   184   182   am
    38   182   183    2
    39   147   148    1
    40   170   169    1
    41   170   173    1
    42   207   208    1
    43   175   174   ar
    44   150   151    1
    45   141   129   am
    46   148   149    1
    47   210   209    2
    48   152   151    1
    49   152   153    2
    50   151   154    1
    51   174   173    1
    52   174   176   ar
    53   214   213   ar
    54   208   209    1
    55   208   211    1
    56   129   130    2
    57   129   128    1
    58   161   162    1
    59     9    10   ar
    60     9     7   ar
    61    12    10   ar
    62    12    14   ar
    63   213   212    1
    64   213   215   ar
    65    10     8   ar
    66   163   162    1
    67   163   164    2
    68   159   158    1
    69   211   212    1
    70   154   155    1
    71    14    13   ar
    72     7     6   ar
    73   156   155    1
    74   156   157    1
    75   162   165    1
    76   128   131    1
    77   128   127    1
    78   120   119    2
    79   158   157    2
    80   158   160    1
    81   131   132    1
    82     8     6   ar
    83     8    11   ar
    84     6     5    1
    85   115   114   ar
    86    13    11   ar
    87   165   166    1
    88   125   123   ar
    89   125   126   ar
    90   119   127   am
    91   119   118    1
    92   110   109    1
    93   110   111    1
    94   110   113    1
    95   123   122   ar
    96     5     2    1
    97   126   124   ar
    98   132   133   ar
    99   132   134   ar
   100   166   167   ar
   101   166   168   ar
   102   114   113    1
   103   114   116   ar
   104   117   111   am
   105   117   118    1
   106   133   135   ar
   107   111   112    2
   108    26    25    2
   109   118   121    1
   110    19    16    1
   111    19    20    1
   112   122   124   ar
   113   122   121    1
   114    22    21    1
   115    16    17    1
   116    16    15    1
   117   134   137   ar
   118   134   136   ar
   119     2     1    1
   120     2     3    1
   121   135   136   ar
   122    25    24    1
   123    37    36    1
   124    21    20    1
   125    18    17    2
   126    17    23   am
   127   137   139   ar
   128   136   138   ar
   129     3     4    2
   130    23    24    1
   131    34    33    2
   132    35    36    1
   133    35    32    1
   134    36    38    1
   135    24    27    1
   136   108   107    1
   137   139   140   ar
   138   138   140   ar
   139    33    32    1
   140    33    39   am
   141    27    28    1
   142    32    31    1
   143   107   104    1
   144    40    39    1
   145    40    41    1
   146    28    29    2
   147    28    30   am
   148    42    41    2
   149   105   106    2
   150   105   104    1
   151   104   103    1
   152    52    50   ar
   153    52    53   ar
   154    50    48   ar
   155    54    53    1
   156    53    51   ar
   157   103   100   am
   158    48    47    1
   159    48    49   ar
   160    47    44    1
   161    51    49   ar
   162    79    77    1
   163    78    76    1
   164   100    99    1
   165   100   101    2
   166   102    99    1
   167    61    62    1
   168    61    60    1
   169    58    57    2
   170    99    98    1
   171    44    43    1
   172    44    45    1
   173    59    60    1
   174    59    56    1
   175    76    77    1
   176    76    73    1
   177    70    69   ar
   178    71    69   ar
   179    57    56    1
   180    57    63   am
   181    69    68    1
   182    72    73    1
   183    72    65   am
   184    56    55    1
   185    45    46    2
   186    97    96    2
   187    98    96   am
   188    73    74    1
   189    64    63    1
   190    64    65    1
   191    64    67    1
   192    87    85   am
   193    93    92    1
   194    96    95    1
   195    84    85    1
   196    84    81    1
   197    65    66    2
   198    80    74   am
   199    80    81    1
   200    74    75    2
   201    68    67    1
   202    85    86    2
   203    81    82    1
   204    92    89    1
   205    95    94    1
   206    82    83    2
   207    89    88    1
   208    89    90    1
   209    90    91    2
