@<TRIPOS>MOLECULE
tmp/3oztA00.pdb
 200 195 0 0 0
SMALL
GASTEIGER

@<TRIPOS>ATOM
      1  N         42.9160  -16.1960  -10.6330 N.3    36  TRP36      -0.1241
      2  CA        41.9460  -15.3610   -9.8880 C.3    36  TRP36       0.1605
      3  C         41.5570  -14.1140  -10.6600 C.2    36  TRP36       0.2264
      4  O         42.3770  -13.4060  -11.2170 O.2    36  TRP36      -0.2867
      5  CB        42.4830  -14.9480   -8.5140 C.3    36  TRP36       0.0550
      6  CG        41.3420  -14.3970   -7.6220 C.ar   36  TRP36       0.0003
      7  CD1       40.5050  -15.1300   -6.8250 C.ar   36  TRP36       0.0946
      8  CD2       40.9220  -13.0420   -7.4980 C.ar   36  TRP36       0.0152
      9  NE1       39.5880  -14.3030   -6.1810 N.ar   36  TRP36      -0.2442
     10  CE2       39.8000  -13.0200   -6.6090 C.ar   36  TRP36       0.0810
     11  CE3       41.3620  -11.8510   -8.0460 C.ar   36  TRP36       0.0012
     12  CZ2       39.1660  -11.8390   -6.2490 C.ar   36  TRP36       0.0191
     13  CZ3       40.6940  -10.6350   -7.6820 C.ar   36  TRP36       0.0001
     14  CH2       39.6170  -10.6630   -6.8070 C.ar   36  TRP36       0.0015
     15  N         38.3270  -10.7280  -10.3770 N.3    38  MET38      -0.1245
     16  CA        37.2320  -10.0880   -9.5810 C.3    38  MET38       0.1570
     17  C         35.8520  -10.1730  -10.2110 C.2    38  MET38       0.2261
     18  O         35.1030   -9.1940  -10.2200 O.2    38  MET38      -0.2867
     19  CB        37.5730   -8.6130   -9.3400 C.3    38  MET38       0.0387
     20  CG        37.5950   -7.7000  -10.5920 C.3    38  MET38       0.0595
     21  SD        38.0650   -6.0490  -10.0860 S.3    38  MET38      -0.1393
     22  CE        39.5210   -6.4130   -9.0650 C.3    38  MET38       0.0692
     23  N         30.2980   -0.9150  -13.2300 N.3    64  GLY64      -0.1225
     24  CA        31.4260   -1.7170  -13.2730 C.3    64  GLY64       0.1811
     25  C         31.2450   -3.0010  -14.0770 C.2    64  GLY64       0.2280
     26  O         30.7220   -3.9510  -13.5640 O.2    64  GLY64      -0.2866
     27  N         33.7850   -4.7630  -16.0170 N.3    66  TYR66      -0.1241
     28  CA        34.9690   -5.5940  -15.8880 C.3    66  TYR66       0.1605
     29  C         35.0500   -6.4790  -17.1660 C.2    66  TYR66       0.2264
     30  O         35.2760   -5.9280  -18.2550 O.2    66  TYR66      -0.2867
     31  CB        35.1040   -6.3380  -14.5630 C.3    66  TYR66       0.0534
     32  CG        36.4050   -7.0830  -14.3970 C.ar   66  TYR66      -0.0201
     33  CD1       37.6400   -6.4900  -14.7620 C.ar   66  TYR66      -0.0009
     34  CD2       36.4460   -8.3870  -13.9650 C.ar   66  TYR66      -0.0009
     35  CE1       38.8320   -7.1930  -14.6180 C.ar   66  TYR66       0.0417
     36  CE2       37.6360   -9.0850  -13.7920 C.ar   66  TYR66       0.0417
     37  CZ        38.8500   -8.4700  -14.1400 C.ar   66  TYR66       0.1957
     38  OH        40.0370   -9.1590  -14.0350 O.3    66  TYR66      -0.2866
     39  N         28.2410    0.5120  -17.1390 N.3    87  MET87      -0.1182
     40  CA        29.2100    1.6260  -17.1510 C.3    87  MET87       0.1917
     41  C         30.6010    1.1120  -16.8510 C.2    87  MET87       0.2635
     42  O         30.8450    0.4460  -15.8330 O.2    87  MET87      -0.2714
     43  CB        28.7960    2.7320  -16.1780 C.2    87  MET87       0.0083
     44  CG        27.5250    3.4680  -16.4190 C.2    87  MET87       0.0282
     45  SD        27.1120    4.7620  -15.2770 S.3    87  MET87      -0.1125
     46  CE        25.6620    5.4780  -16.0010 C.3    87  MET87       0.0742
     47  N         31.5730    1.4300  -17.7660 N.am   88  GLU88      -0.1963
     48  CA        32.9260    0.8990  -17.6900 C.3    88  GLU88       0.1733
     49  C         33.9200    1.9980  -18.0930 C.2    88  GLU88       0.2616
     50  O         33.8580    2.4690  -19.2120 O.2    88  GLU88      -0.2715
     51  CB        33.0770   -0.2680  -18.6440 C.3    88  GLU88       0.0429
     52  CG        34.3880   -1.0510  -18.5540 C.3    88  GLU88       0.1163
     53  CD        34.9100   -1.1450  -17.1480 C.2    88  GLU88       0.3649
     54  OE1       34.2830   -1.8110  -16.3170 O.co2  88  GLU88      -0.2457
     55  OE2       35.9050   -0.4850  -16.8510 O.co2  88  GLU88      -0.2457
     56  N         34.7800    2.3820  -17.1500 N.am   89  ILE89      -0.1963
     57  CA        35.7030    3.5280  -17.3420 C.3    89  ILE89       0.1727
     58  C         36.9640    3.0600  -18.1300 C.2    89  ILE89       0.2616
     59  O         37.6290    3.9000  -18.7960 O.2    89  ILE89      -0.2715
     60  CB        36.0640    4.1190  -15.9570 C.3    89  ILE89       0.0290
     61  CG1       36.7120    5.5210  -16.1030 C.3    89  ILE89       0.0022
     62  CG2       36.9550    3.1250  -15.2120 C.3    89  ILE89       0.0023
     63  CD1       37.1240    6.1440  -14.7460 C.3    89  ILE89       0.0001
     64  N         37.2690    1.7580  -18.0960 N.am   90  ASN90      -0.1972
     65  CA        38.4390    1.2220  -18.7570 C.3    90  ASN90       0.1688
     66  C         38.0630    0.7750  -20.1750 C.2    90  ASN90       0.2292
     67  O         37.3310   -0.2130  -20.3450 O.2    90  ASN90      -0.2864
     68  CB        39.0270    0.0820  -17.9610 C.3    90  ASN90       0.1181
     69  CG        40.3410   -0.4010  -18.5050 C.2    90  ASN90       0.2629
     70  OD1       40.5180   -0.5430  -19.7090 O.2    90  ASN90      -0.2716
     71  ND2       41.2430   -0.7410  -17.6040 N.am   90  ASN90      -0.0877
     72  N         38.5120   -3.0270  -20.8320 N.3    93  CYS93      -0.1235
     73  CA        37.4010   -3.7900  -20.1920 C.3    93  CYS93       0.1677
     74  C         36.0990   -3.6680  -20.9610 C.2    93  CYS93       0.2270
     75  O         35.3680   -4.6680  -21.1230 O.2    93  CYS93      -0.2867
     76  CB        37.1910   -3.2900  -18.7450 C.3    93  CYS93       0.0956
     77  SG        38.5400   -3.6040  -17.5390 S.3    93  CYS93      -0.0801
     78  N         33.1300    5.4250  -19.7870 N.3   115  GLY115     -0.1210
     79  CA        33.3160    6.6190  -19.0520 C.3   115  GLY115      0.1956
     80  C         33.2380    6.3150  -17.5720 C.2   115  GLY115      0.2612
     81  O         33.0130    5.1690  -17.1610 O.2   115  GLY115     -0.2717
     82  N         33.4830    7.3360  -16.7900 N.am  116  ALA116     -0.1965
     83  CA        33.4550    7.2190  -15.3260 C.3   116  ALA116      0.1728
     84  C         31.9950    7.3520  -14.9680 C.2   116  ALA116      0.2617
     85  O         31.2360    8.1730  -15.5090 O.2   116  ALA116     -0.2715
     86  CB        34.2700    8.3550  -14.6680 C.3   116  ALA116      0.0334
     87  N         31.5440    6.5190  -14.0120 N.am  117  SER117     -0.1936
     88  CA        30.1620    6.6160  -13.5850 C.3   117  SER117      0.2055
     89  C         29.6830    8.0040  -13.2280 C.2   117  SER117      0.2642
     90  O         28.5950    8.3900  -13.5030 O.2   117  SER117     -0.2714
     91  CB        29.9860    5.6450  -12.4020 C.3   117  SER117      0.2130
     92  OG        30.9060    5.9970  -11.3490 O.3   117  SER117     -0.2179
     93  N         30.4780    8.7950  -12.4890 N.am  118  GLN118     -0.1976
     94  CA        30.0210   10.1080  -12.0420 C.3   118  GLN118      0.1601
     95  C         29.7970   11.0970  -13.2180 C.2   118  GLN118      0.2287
     96  O         29.0580   12.0650  -13.0770 O.2   118  GLN118     -0.2864
     97  CB        30.9260   10.7400  -10.9510 C.3   118  GLN118      0.0394
     98  CG        32.2920   11.0640  -11.3580 C.3   118  GLN118      0.0908
     99  CD        33.3060    9.9810  -11.0700 C.2   118  GLN118      0.2608
    100  OE1       33.0260    8.7670  -11.1400 O.2   118  GLN118     -0.2717
    101  NE2       34.5090   10.4140  -10.7100 N.am  118  GLN118     -0.0878
    102  N         29.2610   -2.6750   -8.4320 N.3   139  ASP139     -0.1225
    103  CA        30.3970   -3.5470   -8.3420 C.3   139  ASP139      0.1805
    104  C         31.6510   -2.9090   -8.9780 C.2   139  ASP139      0.2598
    105  O         32.5240   -3.5840   -9.5530 O.2   139  ASP139     -0.2718
    106  CB        30.1260   -4.8860   -9.0480 C.3   139  ASP139      0.1424
    107  CG        31.1530   -5.9420   -8.7450 C.2   139  ASP139      0.3668
    108  OD1       31.8140   -6.1260   -7.6870 O.co2 139  ASP139     -0.2456
    109  OD2       31.2490   -6.8200   -9.6780 O.co2 139  ASP139     -0.2456
    110  N         31.7230   -1.5890   -8.8290 N.am  140  HIS140     -0.1961
    111  CA        32.8780   -0.8020   -9.3350 C.3   140  HIS140      0.1787
    112  C         33.8290   -0.4690   -8.1580 C.2   140  HIS140      0.2620
    113  O         34.0020   -1.2970   -7.2510 O.2   140  HIS140     -0.2715
    114  CB        32.4370    0.3370  -10.2040 C.3   140  HIS140      0.0785
    115  CG        31.5910    1.3740   -9.5200 C.ar  140  HIS140      0.0821
    116  ND1       30.7740    1.0840   -8.4360 N.ar  140  HIS140     -0.2267
    117  CD2       31.4070    2.6830   -9.7910 C.ar  140  HIS140      0.1154
    118  CE1       30.1430    2.1840   -8.0810 C.ar  140  HIS140      0.1986
    119  NE2       30.5300    3.1820   -8.8730 N.ar  140  HIS140     -0.2212
    120  N         34.5960    0.6120   -8.2780 N.am  141  TRP141     -0.1960
    121  CA        35.4650    0.9710   -7.1860 C.3   141  TRP141      0.1771
    122  C         34.6180    1.2060   -5.8920 C.2   141  TRP141      0.2619
    123  O         33.6020    1.8700   -5.9230 O.2   141  TRP141     -0.2715
    124  CB        36.2760    2.2260   -7.6060 C.3   141  TRP141      0.0590
    125  CG        37.2580    1.9280   -8.8150 C.ar  141  TRP141      0.0006
    126  CD1       37.9070    0.7440   -9.0930 C.ar  141  TRP141      0.0946
    127  CD2       37.6240    2.8190   -9.8780 C.ar  141  TRP141      0.0152
    128  NE1       38.6510    0.8530  -10.2450 N.ar  141  TRP141     -0.2442
    129  CE2       38.4800    2.1050  -10.7470 C.ar  141  TRP141      0.0810
    130  CE3       37.3140    4.1380  -10.1630 C.ar  141  TRP141      0.0012
    131  CZ2       39.0780    2.6980  -11.8780 C.ar  141  TRP141      0.0191
    132  CZ3       37.9050    4.7470  -11.2970 C.ar  141  TRP141      0.0001
    133  CH2       38.7760    4.0160  -12.1380 C.ar  141  TRP141      0.0015
    134  N         35.0840    0.5820   -4.8120 N.am  142  LYS142     -0.1977
    135  CA        34.2940    0.5240   -3.5940 C.3   142  LYS142      0.1596
    136  C         34.0820    1.8970   -2.9780 C.2   142  LYS142      0.2287
    137  O         33.0440    2.1480   -2.3900 O.2   142  LYS142     -0.2864
    138  CB        34.8620   -0.4780   -2.6170 C.3   142  LYS142      0.0298
    139  CG        35.1490   -1.8660   -3.1760 C.3   142  LYS142      0.0038
    140  CD        34.0070   -2.4230   -4.0810 C.3   142  LYS142      0.0206
    141  CE        34.5310   -3.5610   -4.9030 C.3   142  LYS142      0.1093
    142  NZ        33.5630   -3.8680   -6.0250 N.3   142  LYS142     -0.1314
    143  N         33.3370    4.5190   -4.6080 N.3   144  ARG144     -0.1245
    144  CA        32.3750    5.1580   -5.4000 C.3   144  ARG144      0.1563
    145  C         30.9570    4.7140   -5.1820 C.2   144  ARG144      0.2260
    146  O         30.0070    5.3510   -5.5990 O.2   144  ARG144     -0.2867
    147  CB        32.6870    4.9200   -6.8980 C.3   144  ARG144      0.0307
    148  CG        34.0000    5.4860   -7.4080 C.3   144  ARG144      0.0489
    149  CD        34.0910    7.0040   -7.2500 C.3   144  ARG144      0.2205
    150  NE        32.8720    7.6940   -7.6320 N.pl3 144  ARG144     -0.0865
    151  CZ        32.6580    8.9920   -7.4260 C.cat 144  ARG144      0.5346
    152  NH1       33.5880    9.7220   -6.8920 N.pl3 144  ARG144      0.1354
    153  NH2       31.5050    9.5310   -7.7200 N.pl3 144  ARG144      0.1354
    154  N         27.7740   -5.5620   -4.4780 N.3   167  ASP167     -0.1225
    155  CA        28.7560   -6.5850   -4.2030 C.3   167  ASP167      0.1805
    156  C         29.8030   -6.1070   -3.1830 C.2   167  ASP167      0.2597
    157  O         30.0190   -4.9160   -3.0700 O.2   167  ASP167     -0.2718
    158  CB        29.3970   -7.0300   -5.5540 C.3   167  ASP167      0.1424
    159  CG        30.2160   -8.3220   -5.4100 C.2   167  ASP167      0.3668
    160  OD1       29.9070   -9.1900   -4.5620 O.co2 167  ASP167     -0.2456
    161  OD2       31.2360   -8.5180   -6.1640 O.co2 167  ASP167     -0.2456
    162  N         30.4470   -7.0370   -2.4810 N.am  168  ASN168     -0.1974
    163  CA        31.6580   -6.8260   -1.7280 C.3   168  ASN168      0.1688
    164  C         31.4290   -5.9820   -0.5140 C.2   168  ASN168      0.2292
    165  O         32.3450   -5.2490   -0.1060 O.2   168  ASN168     -0.2864
    166  CB        32.6790   -6.1720   -2.6590 C.3   168  ASN168      0.1181
    167  CG        33.0280   -7.0370   -3.8540 C.2   168  ASN168      0.2629
    168  OD1       32.8890   -6.5850   -4.9830 O.2   168  ASN168     -0.2716
    169  ND2       33.5070   -8.2440   -3.5830 N.am  168  ASN168     -0.0877
    170  N         33.9530   -7.9250    1.9860 N.3   171  VAL171     -0.1231
    171  CA        35.3370   -7.9910    1.4750 C.3   171  VAL171      0.1678
    172  C         35.3490   -7.6710    0.0020 C.2   171  VAL171      0.2434
    173  O         34.6230   -8.2910   -0.8110 O.2   171  VAL171     -0.2733
    174  CB        35.9640   -9.3760    1.7150 C.3   171  VAL171      0.0265
    175  CG1       37.3960   -9.4310    1.0460 C.3   171  VAL171      0.0020
    176  CG2       35.9680   -9.7370    3.2000 C.3   171  VAL171      0.0020
    177  N         36.0870   -6.6330   -0.4420 N.am  172  PRO172     -0.2729
    178  CA        36.9230   -5.7480    0.3620 C.3   172  PRO172      0.1401
    179  C         36.2340   -4.8010    1.2820 C.2   172  PRO172      0.2269
    180  O         36.9340   -4.2520    2.1190 O.2   172  PRO172     -0.2865
    181  CB        37.7680   -5.0130   -0.6760 C.3   172  PRO172      0.0296
    182  CG        37.7900   -5.8830   -1.8830 C.3   172  PRO172      0.0237
    183  CD        36.4100   -6.5190   -1.8650 C.3   172  PRO172      0.0939
    184  N         33.3390  -14.9020   -0.9320 N.3   196  LEU196     -0.1231
    185  CA        34.1620  -14.2320   -1.9500 C.3   196  LEU196      0.1693
    186  C         34.5260  -15.2570   -3.0850 C.2   196  LEU196      0.2591
    187  O         34.8390  -16.4140   -2.7890 O.2   196  LEU196     -0.2718
    188  CB        35.4720  -13.6800   -1.3420 C.3   196  LEU196      0.0284
    189  CG        36.2580  -12.7410   -2.2360 C.3   196  LEU196      0.0019
    190  CD1       35.4890  -11.3970   -2.4820 C.3   196  LEU196      0.0001
    191  CD2       37.5880  -12.4910   -1.4530 C.3   196  LEU196      0.0001
    192  N         34.5250  -14.7610   -4.2930 N.am  197  GLU197     -0.1979
    193  CA        34.8340  -15.5460   -5.5030 C.3   197  GLU197      0.1602
    194  C         36.2590  -16.1710   -5.5160 C.2   197  GLU197      0.2287
    195  O         37.1990  -15.5140   -5.0900 O.2   197  GLU197     -0.2864
    196  CB        34.6220  -14.6730   -6.7340 C.3   197  GLU197      0.0415
    197  CG        35.5340  -13.3580   -6.7870 C.3   197  GLU197      0.1163
    198  CD        34.8530  -12.0430   -6.3670 C.2   197  GLU197      0.3649
    199  OE1       33.9550  -12.0500   -5.4630 O.co2 197  GLU197     -0.2457
    200  OE2       35.2500  -11.0200   -6.9450 O.co2 197  GLU197     -0.2457
@<TRIPOS>BOND
     1    75    74    2
     2    74    73    1
     3    72    73    1
     4    67    66    2
     5    73    76    1
     6    66    65    1
     7    78    79    1
     8    70    69    2
     9    50    49    2
    10    79    80    1
    11    59    58    2
    12    65    64    1
    13    65    68    1
    14    76    77    1
    15    51    52    1
    16    51    48    1
    17    52    53    1
    18    69    68    1
    19    69    71   am
    20    30    29    2
    21    58    64   am
    22    58    57    1
    23    49    48    1
    24    49    56   am
    25    47    48    1
    26    47    41   am
    27    80    81    2
    28    80    82   am
    29    57    56    1
    30    57    60    1
    31    29    28    1
    32    40    39    1
    33    40    41    1
    34    40    43    1
    35    53    55   ar
    36    53    54   ar
    37    41    42    2
    38    82    83    1
    39    44    43    2
    40    44    45    1
    41    61    60    1
    42    61    63    1
    43    27    28    1
    44    46    45    1
    45    60    62    1
    46    28    31    1
    47    85    84    2
    48    83    84    1
    49    83    86    1
    50    84    87   am
    51    33    35   ar
    52    33    32   ar
    53    35    37   ar
    54    31    32    1
    55    32    34   ar
    56    37    38    1
    57    37    36   ar
    58    25    26    2
    59    25    24    1
    60    87    88    1
    61    34    36   ar
    62    88    89    1
    63    88    91    1
    64    90    89    2
    65    24    23    1
    66    89    93   am
    67    95    96    2
    68    95    94    1
    69    93    94    1
    70    91    92    1
    71   133   131   ar
    72   133   132   ar
    73    94    97    1
    74   131   129   ar
    75    98    99    1
    76    98    97    1
    77   132   130   ar
    78     4     3    2
    79   100    99    2
    80    99   101   am
    81   129   128   ar
    82   129   127   ar
    83     3     2    1
    84     1     2    1
    85    20    21    1
    86    20    19    1
    87    15    16    1
    88   128   126   ar
    89    18    17    2
    90    17    16    1
    91   114   115    1
    92   114   111    1
    93   130   127   ar
    94    21    22    1
    95     2     5    1
    96   127   125   ar
    97   117   115   ar
    98   117   119   ar
    99   109   107   ar
   100    16    19    1
   101   105   104    2
   102   115   116   ar
   103   111   110    1
   104   111   112    1
   105   126   125   ar
   106   106   107    1
   107   106   103    1
   108   104   110   am
   109   104   103    1
   110   119   118   ar
   111   125   124    1
   112   107   108   ar
   113     5     6    1
   114   116   118   ar
   115   102   103    1
   116   120   112   am
   117   120   121    1
   118   112   113    2
   119    11    13   ar
   120    11     8   ar
   121   153   151    1
   122    13    14   ar
   123   150   151    2
   124   150   149    1
   125     6     8   ar
   126     6     7   ar
   127   124   121    1
   128     8    10   ar
   129   151   152    1
   130   148   149    1
   131   148   147    1
   132   121   122    1
   133   200   198   ar
   134   147   144    1
   135     7     9   ar
   136    14    12   ar
   137   197   196    1
   138   197   198    1
   139   196   193    1
   140    10    12   ar
   141    10     9   ar
   142   198   199   ar
   143   161   159   ar
   144   142   141    1
   145   123   122    2
   146   122   134   am
   147   146   145    2
   148   158   159    1
   149   158   155    1
   150   194   193    1
   151   194   195    2
   152   193   192    1
   153   159   160   ar
   154   144   145    1
   155   144   143    1
   156   168   167    2
   157   141   140    1
   158   134   135    1
   159   154   155    1
   160   192   186   am
   161   155   156    1
   162   140   139    1
   163   167   169   am
   164   167   166    1
   165   135   136    1
   166   135   138    1
   167   156   157    2
   168   156   162   am
   169   139   138    1
   170   186   187    2
   171   186   185    1
   172   136   137    2
   173   166   163    1
   174   190   189    1
   175   162   163    1
   176   189   191    1
   177   189   188    1
   178   185   188    1
   179   185   184    1
   180   182   183    1
   181   182   181    1
   182   183   177    1
   183   163   164    1
   184   173   172    2
   185   181   178    1
   186   164   165    2
   187   177   172   am
   188   177   178    1
   189   172   171    1
   190   178   179    1
   191   175   174    1
   192   179   180    2
   193   171   174    1
   194   171   170    1
   195   174   176    1
