@<TRIPOS>MOLECULE
tmp/3ozuA00.pdb
 188 177 0 0 0
SMALL
GASTEIGER

@<TRIPOS>ATOM
      1  N         10.8800   18.7370    7.4400 N.3    29  TYR29      -0.1241
      2  CA        11.5050   18.0460    6.3120 C.3    29  TYR29       0.1605
      3  C         10.9410   16.6510    6.0970 C.2    29  TYR29       0.2264
      4  O         10.7470   16.2150    4.9250 O.2    29  TYR29      -0.2867
      5  CB        13.0310   18.0160    6.4220 C.3    29  TYR29       0.0534
      6  CG        13.6200   19.3800    6.2370 C.ar   29  TYR29      -0.0201
      7  CD1       14.2980   20.0110    7.2860 C.ar   29  TYR29      -0.0009
      8  CD2       13.4810   20.0460    5.0160 C.ar   29  TYR29      -0.0009
      9  CE1       14.8490   21.2580    7.1010 C.ar   29  TYR29       0.0417
     10  CE2       14.0400   21.2810    4.8110 C.ar   29  TYR29       0.0417
     11  CZ        14.7120   21.8850    5.8440 C.ar   29  TYR29       0.1957
     12  OH        15.2340   23.1300    5.6440 O.3    29  TYR29      -0.2866
     13  N         12.1330   17.7060   -3.8580 N.3    39  LEU39      -0.1245
     14  CA        12.6980   18.9200   -3.2840 C.3    39  LEU39       0.1561
     15  C         14.0010   18.6860   -2.5640 C.2    39  LEU39       0.2260
     16  O         14.6890   19.6650   -2.1740 O.2    39  LEU39      -0.2867
     17  CB        11.6950   19.6540   -2.3660 C.3    39  LEU39       0.0270
     18  CG        10.4260   20.1380   -3.0830 C.3    39  LEU39       0.0019
     19  CD1        9.3690   20.6510   -2.1640 C.3    39  LEU39       0.0001
     20  CD2       10.8110   21.2280   -4.1410 C.3    39  LEU39       0.0001
     21  N         16.8480   20.6430   -4.1410 N.3    42  VAL42      -0.1231
     22  CA        16.9230   22.1000   -3.9540 C.3    42  VAL42       0.1692
     23  C         17.3760   22.3940   -2.4990 C.2    42  VAL42       0.2592
     24  O         18.1680   23.2930   -2.2220 O.2    42  VAL42      -0.2718
     25  CB        15.5160   22.6660   -4.2570 C.3    42  VAL42       0.0266
     26  CG1       15.4270   24.1440   -3.9990 C.3    42  VAL42       0.0020
     27  CG2       15.2640   22.3870   -5.7550 C.3    42  VAL42       0.0020
     28  N         16.9260   21.5830   -1.5650 N.am   43  PHE43      -0.1962
     29  CA        17.3540   21.7760   -0.1520 C.3    43  PHE43       0.1771
     30  C         18.7260   21.1310    0.1470 C.2    43  PHE43       0.2619
     31  O         19.1330   20.1840   -0.5270 O.2    43  PHE43      -0.2715
     32  CB        16.2620   21.2140    0.7290 C.3    43  PHE43       0.0574
     33  CG        15.1140   22.1310    0.8930 C.ar   43  PHE43      -0.0200
     34  CD1       15.1830   23.2270    1.8300 C.ar   43  PHE43      -0.0042
     35  CD2       13.9550   21.9020    0.2080 C.ar   43  PHE43      -0.0042
     36  CE1       14.0620   24.1040    1.9840 C.ar   43  PHE43      -0.0003
     37  CE2       12.8250   22.7780    0.3350 C.ar   43  PHE43      -0.0003
     38  CZ        12.8980   23.8930    1.2300 C.ar   43  PHE43      -0.0000
     39  N         19.4260   21.5950    1.1830 N.am   44  ASN44      -0.1972
     40  CA        20.7310   21.0970    1.5310 C.3    44  ASN44       0.1688
     41  C         20.4930   19.8650    2.3270 C.2    44  ASN44       0.2292
     42  O         19.8510   19.9410    3.3760 O.2    44  ASN44      -0.2864
     43  CB        21.5100   22.1150    2.3840 C.3    44  ASN44       0.1181
     44  CG        22.9320   21.6320    2.7700 C.2    44  ASN44       0.2629
     45  OD1       23.8030   22.4430    3.1080 O.2    44  ASN44      -0.2716
     46  ND2       23.1900   20.3760    2.6650 N.am   44  ASN44      -0.0877
     47  N         15.3140   33.6470   12.2690 N.3    60  ALA60      -0.1245
     48  CA        14.3820   34.1050   11.2160 C.3    60  ALA60       0.1562
     49  C         13.0280   34.5210   11.8320 C.2    60  ALA60       0.2260
     50  O         12.3930   35.5490   11.4550 O.2    60  ALA60      -0.2867
     51  CB        14.1700   33.0090   10.1840 C.3    60  ALA60       0.0290
     52  N         13.4340   40.7190    4.4290 N.3    78  LEU78      -0.1245
     53  CA        12.9350   39.9060    3.2950 C.3    78  LEU78       0.1561
     54  C         13.8450   39.9430    2.0580 C.2    78  LEU78       0.2260
     55  O         13.9620   38.9350    1.3030 O.2    78  LEU78      -0.2867
     56  CB        11.5240   40.3270    2.9430 C.3    78  LEU78       0.0270
     57  CG        10.4690   39.9600    4.0380 C.3    78  LEU78       0.0019
     58  CD1        9.0810   40.5650    3.7390 C.3    78  LEU78       0.0001
     59  CD2       10.3940   38.4660    4.2820 C.3    78  LEU78       0.0001
     60  N         16.9700   40.0540    1.7120 N.3    80  ASN80      -0.1225
     61  CA        17.9910   39.0750    1.8970 C.3    80  ASN80       0.1785
     62  C         17.5120   37.6350    1.5930 C.2    80  ASN80       0.2597
     63  O         18.1800   36.8700    0.8960 O.2    80  ASN80      -0.2718
     64  CB        18.4700   39.2080    3.3180 C.3    80  ASN80       0.1169
     65  CG        19.8130   38.6440    3.4980 C.2    80  ASN80       0.2627
     66  OD1       20.8310   39.3870    3.5300 O.2    80  ASN80      -0.2716
     67  ND2       19.8680   37.3140    3.5900 N.am   80  ASN80      -0.0877
     68  N         16.3490   37.2600    2.0770 N.am   81  ILE81      -0.1980
     69  CA        15.8410   35.9700    1.7760 C.3    81  ILE81       0.1595
     70  C         15.4530   35.8580    0.2880 C.2    81  ILE81       0.2287
     71  O         15.7080   34.8190   -0.2690 O.2    81  ILE81      -0.2864
     72  CB        14.5670   35.7350    2.5430 C.3    81  ILE81       0.0276
     73  CG1       14.8860   35.6490    4.0290 C.3    81  ILE81       0.0022
     74  CG2       13.8380   34.4160    2.0910 C.3    81  ILE81       0.0022
     75  CD1       13.5350   35.7450    4.8350 C.3    81  ILE81       0.0001
     76  N         18.5900   34.9390   -1.8420 N.3    84  LYS84      -0.1231
     77  CA        18.9790   33.5280   -1.6240 C.3    84  LYS84       0.1693
     78  C         18.0080   32.5990   -2.4010 C.2    84  LYS84       0.2592
     79  O         18.4280   31.7460   -3.1610 O.2    84  LYS84      -0.2718
     80  CB        19.0170   33.2270   -0.0930 C.3    84  LYS84       0.0285
     81  CG        19.4940   31.7080    0.2710 C.3    84  LYS84       0.0035
     82  CD        21.0830   31.5790    0.0790 C.3    84  LYS84       0.0206
     83  CE        21.9340   32.0650    1.3090 C.3    84  LYS84       0.1093
     84  NZ        22.0800   33.5600    1.1140 N.3    84  LYS84      -0.1314
     85  N         16.7180   32.7640   -2.2040 N.am   85  HIS85      -0.1976
     86  CA        15.7120   31.9800   -2.9020 C.3    85  HIS85       0.1656
     87  C         15.8940   32.1360   -4.4530 C.2    85  HIS85       0.2291
     88  O         15.7960   31.1470   -5.1990 O.2    85  HIS85      -0.2864
     89  CB        14.3250   32.5140   -2.5270 C.3    85  HIS85       0.0771
     90  CG        13.7760   32.0000   -1.2230 C.ar   85  HIS85       0.0820
     91  ND1       12.5520   32.3970   -0.7380 N.ar   85  HIS85      -0.2267
     92  CD2       14.2920   31.1500   -0.2950 C.ar   85  HIS85       0.1154
     93  CE1       12.3260   31.8040    0.4260 C.ar   85  HIS85       0.1986
     94  NE2       13.3520   31.0130    0.7090 N.ar   85  HIS85      -0.2212
     95  N         18.7830   30.1100   -5.4350 N.3    88  LEU88      -0.1245
     96  CA        18.4490   28.6870   -5.4250 C.3    88  LEU88       0.1561
     97  C         17.4670   28.3230   -6.5790 C.2    88  LEU88       0.2260
     98  O         17.2360   27.1600   -6.8050 O.2    88  LEU88      -0.2867
     99  CB        17.7540   28.2910   -4.1180 C.3    88  LEU88       0.0270
    100  CG        18.8890   28.2730   -3.0030 C.3    88  LEU88       0.0019
    101  CD1       18.2030   28.6080   -1.7690 C.3    88  LEU88       0.0001
    102  CD2       19.4500   26.9390   -2.8880 C.3    88  LEU88       0.0001
    103  N         14.0800   29.1560   -6.3600 N.3    90  VAL90      -0.1245
    104  CA        12.7300   28.9690   -5.7800 C.3    90  VAL90       0.1561
    105  C         11.5920   29.4810   -6.7270 C.2    90  VAL90       0.2260
    106  O         11.6950   30.5400   -7.3200 O.2    90  VAL90      -0.2867
    107  CB        12.5910   29.6900   -4.4540 C.3    90  VAL90       0.0252
    108  CG1       11.0670   29.6940   -3.9250 C.3    90  VAL90       0.0019
    109  CG2       13.5320   29.0460   -3.3650 C.3    90  VAL90       0.0019
    110  N          6.0570   26.3960   -5.4880 N.3    94  GLN94      -0.1231
    111  CA         6.5330   25.6630   -4.3110 C.3    94  GLN94       0.1698
    112  C          6.0620   26.2160   -2.9520 C.2    94  GLN94       0.2592
    113  O          6.1240   25.5160   -1.9540 O.2    94  GLN94      -0.2718
    114  CB         8.0740   25.5890   -4.2740 C.3    94  GLN94       0.0381
    115  CG         8.6140   24.8080   -5.5300 C.3    94  GLN94       0.0905
    116  CD        10.0910   25.1130   -5.7820 C.2    94  GLN94       0.2608
    117  OE1       10.5750   26.2010   -5.4450 O.2    94  GLN94      -0.2717
    118  NE2       10.8060   24.1580   -6.3500 N.am   94  GLN94      -0.0878
    119  N          5.6650   27.4930   -2.9130 N.am   95  TYR95      -0.1976
    120  CA         5.1400   28.0820   -1.6580 C.3    95  TYR95       0.1639
    121  C          3.9430   27.3450   -0.9850 C.2    95  TYR95       0.2290
    122  O          3.9690   27.1520    0.2020 O.2    95  TYR95      -0.2864
    123  CB         4.8480   29.6180   -1.8210 C.3    95  TYR95       0.0560
    124  CG         6.1250   30.4270   -1.8720 C.ar   95  TYR95      -0.0198
    125  CD1        6.8470   30.6020   -3.1010 C.ar   95  TYR95      -0.0009
    126  CD2        6.5930   31.0230   -0.7440 C.ar   95  TYR95      -0.0009
    127  CE1        8.0020   31.3310   -3.1320 C.ar   95  TYR95       0.0417
    128  CE2        7.7670   31.7120   -0.7550 C.ar   95  TYR95       0.0417
    129  CZ         8.4310   31.8950   -1.9100 C.ar   95  TYR95       0.1957
    130  OH         9.5740   32.6220   -1.8340 O.3    95  TYR95      -0.2866
    131  N          5.5020   24.2620    0.7630 N.3    98  VAL98      -0.1245
    132  CA         6.2560   24.5110    2.0180 C.3    98  VAL98       0.1561
    133  C          5.2790   24.9630    3.1270 C.2    98  VAL98       0.2260
    134  O          5.4610   24.6160    4.3500 O.2    98  VAL98      -0.2867
    135  CB         7.3600   25.6150    1.7600 C.3    98  VAL98       0.0252
    136  CG1        7.9100   26.2250    3.0630 C.3    98  VAL98       0.0019
    137  CG2        8.5220   25.0670    0.8720 C.3    98  VAL98       0.0019
    138  N          2.4620   33.1990    7.0440 N.3   126  TYR126     -0.1241
    139  CA         3.0580   32.5220    5.9350 C.3   126  TYR126      0.1605
    140  C          2.5680   33.0770    4.5820 C.2   126  TYR126      0.2264
    141  O          3.3770   33.3540    3.6820 O.2   126  TYR126     -0.2867
    142  CB         2.8560   30.9800    6.0550 C.3   126  TYR126      0.0534
    143  CG         3.5600   30.2890    4.9250 C.ar  126  TYR126     -0.0201
    144  CD1        4.8560   29.8870    5.0830 C.ar  126  TYR126     -0.0009
    145  CD2        2.9200   30.0870    3.7030 C.ar  126  TYR126     -0.0009
    146  CE1        5.5440   29.2590    4.1130 C.ar  126  TYR126      0.0417
    147  CE2        3.5960   29.5070    2.6620 C.ar  126  TYR126      0.0417
    148  CZ         4.9460   29.1330    2.8490 C.ar  126  TYR126      0.1957
    149  OH         5.6650   28.5060    1.8720 O.3   126  TYR126     -0.2866
    150  N          4.0370   36.7630    3.9470 N.3   129  LEU129     -0.1231
    151  CA         5.4560   36.6590    3.5830 C.3   129  LEU129      0.1693
    152  C          5.6730   35.9620    2.2550 C.2   129  LEU129      0.2591
    153  O          6.5040   36.3730    1.4970 O.2   129  LEU129     -0.2718
    154  CB         6.2580   35.8790    4.6490 C.3   129  LEU129      0.0284
    155  CG         6.2970   36.5970    6.0130 C.3   129  LEU129      0.0019
    156  CD1        7.2250   35.8500    6.9660 C.3   129  LEU129      0.0001
    157  CD2        6.8650   38.0230    5.8410 C.3   129  LEU129      0.0001
    158  N          4.9790   34.8870    1.9740 N.am  130  ALA130     -0.1980
    159  CA         5.0970   34.2000    0.6690 C.3   130  ALA130      0.1597
    160  C          4.7110   35.1650   -0.5140 C.2   130  ALA130      0.2287
    161  O          5.3700   35.2020   -1.6160 O.2   130  ALA130     -0.2864
    162  CB         4.1350   32.9860    0.6640 C.3   130  ALA130      0.0319
    163  N          7.6030   37.7080   -0.8220 N.3   133  LEU133     -0.1245
    164  CA         8.7980   37.0000   -1.3460 C.3   133  LEU133      0.1561
    165  C          8.6550   36.6520   -2.8040 C.2   133  LEU133      0.2260
    166  O          9.5610   36.9060   -3.5890 O.2   133  LEU133     -0.2867
    167  CB         9.0750   35.7560   -0.5370 C.3   133  LEU133      0.0270
    168  CG         9.7160   36.1700    0.8310 C.3   133  LEU133      0.0019
    169  CD1        9.8440   34.9290    1.7380 C.3   133  LEU133      0.0001
    170  CD2       11.1310   36.8670    0.7030 C.3   133  LEU133      0.0001
    171  N         26.3420   28.1250   -2.5240 N.3   207  GLN207     -0.1245
    172  CA        26.6500   29.5010   -2.9720 C.3   207  GLN207      0.1566
    173  C         28.1900   29.7370   -2.9270 C.2   207  GLN207      0.2260
    174  O         28.8820   29.2400   -1.9980 O.2   207  GLN207     -0.2867
    175  CB        25.9280   30.5690   -2.1100 C.3   207  GLN207      0.0367
    176  CG        24.4040   30.5990   -2.3900 C.3   207  GLN207      0.0905
    177  CD        23.6790   29.4310   -1.7030 C.2   207  GLN207      0.2608
    178  OE1       23.8470   29.2450   -0.4950 O.2   207  GLN207     -0.2717
    179  NE2       22.9340   28.6220   -2.4730 N.am  207  GLN207     -0.0878
    180  N         26.7640   38.8140    5.2200 N.3   394  GLU394     -0.1245
    181  CA        26.7320   37.6390    4.3550 C.3   394  GLU394      0.1567
    182  C         28.0460   36.9030    4.5370 C.2   394  GLU394      0.2260
    183  O         29.0880   37.5090    4.8350 O.2   394  GLU394     -0.2867
    184  CB        26.6190   38.0500    2.8790 C.3   394  GLU394      0.0388
    185  CG        26.1580   36.9700    1.8890 C.3   394  GLU394      0.1160
    186  CD        25.0050   36.1090    2.4420 C.2   394  GLU394      0.3649
    187  OE1       25.2050   35.0840    3.1880 O.co2 394  GLU394     -0.2457
    188  OE2       23.8730   36.5080    2.1670 O.co2 394  GLU394     -0.2457
@<TRIPOS>BOND
     1   106   105    2
     2    98    97    2
     3   105   104    1
     4    97    96    1
     5   103   104    1
     6   118   116   am
     7   116   115    1
     8   116   117    2
     9   104   107    1
    10    27    25    1
    11   115   114    1
    12   110   111    1
    13    95    96    1
    14    96    99    1
    15    88    87    2
    16   107   108    1
    17   107   109    1
    18    87    86    1
    19   111   114    1
    20   111   112    1
    21    25    26    1
    22    25    22    1
    23    20    18    1
    24    21    22    1
    25    99   100    1
    26    22    23    1
    27    13    14    1
    28   166   165    2
    29    14    15    1
    30    14    17    1
    31    79    78    2
    32   127   125   ar
    33   127   129   ar
    34   125   124   ar
    35    18    17    1
    36    18    19    1
    37   100   102    1
    38   100   101    1
    39   172   173    1
    40   172   171    1
    41   172   175    1
    42   112   119   am
    43   112   113    2
    44   173   174    2
    45   119   120    1
    46    86    89    1
    47    86    85    1
    48   165   164    1
    49    15    16    2
    50    89    90    1
    51    23    24    2
    52    23    28   am
    53   179   177   am
    54    78    85   am
    55    78    77    1
    56   176   175    1
    57   176   177    1
    58   129   130    1
    59   129   128   ar
    60   124   123    1
    61   124   126   ar
    62    76    77    1
    63   123   120    1
    64   177   178    2
    65   120   121    1
    66    77    80    1
    67   161   160    2
    68    28    29    1
    69   164   163    1
    70   164   167    1
    71    90    91   ar
    72    90    92   ar
    73   121   122    2
    74   128   126   ar
    75    91    93   ar
    76   167   168    1
    77    31    30    2
    78   160   159    1
    79    92    94   ar
    80    71    70    2
    81    29    30    1
    82    29    32    1
    83    80    81    1
    84    82    81    1
    85    82    83    1
    86    30    39   am
    87    35    37   ar
    88    35    33   ar
    89    70    69    1
    90    37    38   ar
    91    93    94   ar
    92   162   159    1
    93   159   158    1
    94   170   168    1
    95    32    33    1
    96   131   132    1
    97   168   169    1
    98   137   135    1
    99    33    34   ar
   100    63    62    2
   101    84    83    1
   102    39    40    1
   103    38    36   ar
   104    55    54    2
   105   153   152    2
   106    40    41    1
   107    40    43    1
   108    62    61    1
   109    62    68   am
   110    60    61    1
   111   135   132    1
   112   135   136    1
   113    69    68    1
   114    69    72    1
   115    34    36   ar
   116   149   148    1
   117   185   186    1
   118   185   184    1
   119    61    64    1
   120   158   152   am
   121   132   133    1
   122    54    53    1
   123    74    72    1
   124   188   186   ar
   125   152   151    1
   126    41    42    2
   127    43    44    1
   128   186   187   ar
   129    72    73    1
   130   147   148   ar
   131   147   145   ar
   132    46    44   am
   133    44    45    2
   134   148   146   ar
   135   184   181    1
   136    56    53    1
   137    56    57    1
   138   133   134    2
   139    53    52    1
   140    64    65    1
   141    65    66    2
   142    65    67   am
   143   151   150    1
   144   151   154    1
   145   141   140    2
   146   145   143   ar
   147    58    57    1
   148    73    75    1
   149    57    59    1
   150   146   144   ar
   151   181   182    1
   152   181   180    1
   153   182   183    2
   154   140   139    1
   155   154   155    1
   156    10     8   ar
   157    10    11   ar
   158     4     3    2
   159   143   144   ar
   160   143   142    1
   161     8     6   ar
   162    12    11    1
   163   157   155    1
   164    11     9   ar
   165   139   142    1
   166   139   138    1
   167   155   156    1
   168     3     2    1
   169     6     5    1
   170     6     7   ar
   171     2     5    1
   172     2     1    1
   173     9     7   ar
   174    51    48    1
   175    48    49    1
   176    48    47    1
   177    50    49    2
