@<TRIPOS>MOLECULE
tmp/3ozuA02.pdb
 176 169 0 0 0
SMALL
GASTEIGER

@<TRIPOS>ATOM
      1  N          7.6190   28.8920   18.9570 N.3    17  LEU17      -0.1245
      2  CA         8.2300   28.2300   17.8000 C.3    17  LEU17       0.1561
      3  C          9.7650   28.1330   17.9470 C.2    17  LEU17       0.2260
      4  O         10.3570   27.0720   17.7500 O.2    17  LEU17      -0.2867
      5  CB         7.8970   28.9690   16.4820 C.3    17  LEU17       0.0270
      6  CG         6.5060   28.6290   15.8850 C.3    17  LEU17       0.0019
      7  CD1        5.4710   28.8300   16.9030 C.3    17  LEU17       0.0001
      8  CD2        6.2640   29.5680   14.6180 C.3    17  LEU17       0.0001
      9  N         10.5180   21.1230   15.1600 N.3    24  ILE24      -0.1231
     10  CA         9.7030   21.6290   14.0520 C.3    24  ILE24       0.1692
     11  C         10.4150   21.3860   12.7300 C.2    24  ILE24       0.2591
     12  O          9.7820   20.9560   11.7810 O.2    24  ILE24      -0.2718
     13  CB         9.3230   23.1260   14.2250 C.3    24  ILE24       0.0266
     14  CG1        8.3990   23.2910   15.4530 C.3    24  ILE24       0.0019
     15  CG2        8.7040   23.7290   12.8600 C.3    24  ILE24       0.0020
     16  CD1        8.1920   24.7540   15.7780 C.3    24  ILE24       0.0001
     17  N         11.7100   21.7390   12.6650 N.am   25  ILE25      -0.1980
     18  CA        12.4840   21.5970   11.4210 C.3    25  ILE25       0.1595
     19  C         12.4860   20.1200   10.9950 C.2    25  ILE25       0.2287
     20  O         12.1790   19.8380    9.8590 O.2    25  ILE25      -0.2864
     21  CB        14.0090   22.0470   11.5950 C.3    25  ILE25       0.0276
     22  CG1       14.1460   23.5040   11.9400 C.3    25  ILE25       0.0022
     23  CG2       14.8540   21.7360   10.3530 C.3    25  ILE25       0.0022
     24  CD1       13.2820   24.3130   11.0680 C.3    25  ILE25       0.0001
     25  N          9.0590   19.0870    9.7440 N.3    28  PHE28      -0.1227
     26  CA         8.8790   19.7630    8.4600 C.3    28  PHE28       0.1736
     27  C          9.5780   19.0250    7.2860 C.2    28  PHE28       0.2595
     28  O          8.9440   18.7030    6.2530 O.2    28  PHE28      -0.2718
     29  CB         9.3940   21.1990    8.5330 C.3    28  PHE28       0.0547
     30  CG         9.5160   21.8640    7.1760 C.ar   28  PHE28      -0.0202
     31  CD1        8.3700   22.1940    6.4330 C.ar   28  PHE28      -0.0042
     32  CD2       10.7680   22.1800    6.6460 C.ar   28  PHE28      -0.0042
     33  CE1        8.5100   22.8300    5.1820 C.ar   28  PHE28      -0.0003
     34  CE2       10.8830   22.8380    5.4390 C.ar   28  PHE28      -0.0003
     35  CZ         9.7500   23.1590    4.7140 C.ar   28  PHE28      -0.0000
     36  N         10.8800   18.7370    7.4400 N.am   29  TYR29      -0.1976
     37  CA        11.5050   18.0460    6.3120 C.3    29  TYR29       0.1639
     38  C         10.9410   16.6510    6.0970 C.2    29  TYR29       0.2290
     39  O         10.7470   16.2150    4.9250 O.2    29  TYR29      -0.2864
     40  CB        13.0310   18.0160    6.4220 C.3    29  TYR29       0.0560
     41  CG        13.6200   19.3800    6.2370 C.ar   29  TYR29      -0.0198
     42  CD1       14.2980   20.0110    7.2860 C.ar   29  TYR29      -0.0009
     43  CD2       13.4810   20.0460    5.0160 C.ar   29  TYR29      -0.0009
     44  CE1       14.8490   21.2580    7.1010 C.ar   29  TYR29       0.0417
     45  CE2       14.0400   21.2810    4.8110 C.ar   29  TYR29       0.0417
     46  CZ        14.7120   21.8850    5.8440 C.ar   29  TYR29       0.1957
     47  OH        15.2340   23.1300    5.6440 O.3    29  TYR29      -0.2866
     48  N         16.9260   21.5830   -1.5650 N.3    43  PHE43      -0.1241
     49  CA        17.3540   21.7760   -0.1520 C.3    43  PHE43       0.1605
     50  C         18.7260   21.1310    0.1470 C.2    43  PHE43       0.2264
     51  O         19.1330   20.1840   -0.5270 O.2    43  PHE43      -0.2867
     52  CB        16.2620   21.2140    0.7290 C.3    43  PHE43       0.0534
     53  CG        15.1140   22.1310    0.8930 C.ar   43  PHE43      -0.0203
     54  CD1       15.1830   23.2270    1.8300 C.ar   43  PHE43      -0.0042
     55  CD2       13.9550   21.9020    0.2080 C.ar   43  PHE43      -0.0042
     56  CE1       14.0620   24.1040    1.9840 C.ar   43  PHE43      -0.0003
     57  CE2       12.8250   22.7780    0.3350 C.ar   43  PHE43      -0.0003
     58  CZ        12.8980   23.8930    1.2300 C.ar   43  PHE43      -0.0000
     59  N         20.8440   24.4530   13.4480 N.3    53  GLN53      -0.1245
     60  CA        19.5900   24.5070   12.6880 C.3    53  GLN53       0.1566
     61  C         18.5340   25.2310   13.5530 C.2    53  GLN53       0.2260
     62  O         17.8120   26.0820   13.0640 O.2    53  GLN53      -0.2867
     63  CB        19.1280   23.0890   12.3130 C.3    53  GLN53       0.0367
     64  CG        19.6650   22.6290   10.9550 C.3    53  GLN53       0.0905
     65  CD        18.9170   21.4200   10.4030 C.2    53  GLN53       0.2608
     66  OE1       18.3080   21.4850    9.3180 O.2    53  GLN53      -0.2717
     67  NE2       18.9560   20.3120   11.1470 N.am   53  GLN53      -0.0878
     68  N         19.3210   29.0680   13.4440 N.3    56  ALA56      -0.1231
     69  CA        18.9850   29.7230   12.2000 C.3    56  ALA56       0.1694
     70  C         17.5020   30.0230   12.2200 C.2    56  ALA56       0.2591
     71  O         17.0560   31.1680   11.9430 O.2    56  ALA56      -0.2718
     72  CB        19.3030   28.8240   11.0380 C.3    56  ALA56       0.0304
     73  N         16.7170   29.0140   12.5660 N.am   57  LEU57      -0.1980
     74  CA        15.2900   29.1970   12.4960 C.3    57  LEU57       0.1596
     75  C         14.8010   30.2010   13.5220 C.2    57  LEU57       0.2287
     76  O         13.9600   31.0340   13.1780 O.2    57  LEU57      -0.2864
     77  CB        14.5170   27.9010   12.7420 C.3    57  LEU57       0.0297
     78  CG        12.9770   28.1540   12.7220 C.3    57  LEU57       0.0022
     79  CD1       12.4770   28.7240   11.3690 C.3    57  LEU57       0.0001
     80  CD2       12.2040   26.9190   13.0170 C.3    57  LEU57       0.0001
     81  N         15.3140   33.6470   12.2690 N.3    60  ALA60      -0.1231
     82  CA        14.3820   34.1050   11.2160 C.3    60  ALA60       0.1694
     83  C         13.0280   34.5210   11.8320 C.2    60  ALA60       0.2591
     84  O         12.3930   35.5490   11.4550 O.2    60  ALA60      -0.2718
     85  CB        14.1700   33.0090   10.1840 C.3    60  ALA60       0.0304
     86  N         12.6150   33.7200   12.8040 N.am   61  VAL61      -0.1980
     87  CA        11.3690   33.8950   13.4420 C.3    61  VAL61       0.1595
     88  C         11.3730   35.1440   14.3180 C.2    61  VAL61       0.2287
     89  O         10.3980   35.8840   14.3500 O.2    61  VAL61      -0.2864
     90  CB        11.0060   32.6210   14.2440 C.3    61  VAL61       0.0276
     91  CG1       10.0140   32.9170   15.2700 C.3    61  VAL61       0.0022
     92  CG2       10.4300   31.5090   13.1780 C.3    61  VAL61       0.0022
     93  N         11.3330   38.2180   12.1300 N.3    64  TYR64      -0.1241
     94  CA        10.0100   38.5100   11.6520 C.3    64  TYR64       0.1605
     95  C          9.1500   39.1870   12.7260 C.2    64  TYR64       0.2264
     96  O          8.6040   40.2790   12.4900 O.2    64  TYR64      -0.2867
     97  CB         9.3450   37.2520   11.0940 C.3    64  TYR64       0.0534
     98  CG         7.9180   37.4810   10.7280 C.ar   64  TYR64      -0.0201
     99  CD1        7.5560   38.5180    9.8680 C.ar   64  TYR64      -0.0009
    100  CD2        6.9140   36.6210   11.1930 C.ar   64  TYR64      -0.0009
    101  CE1        6.2340   38.7200    9.5130 C.ar   64  TYR64       0.0417
    102  CE2        5.5850   36.8150   10.8120 C.ar   64  TYR64       0.0417
    103  CZ         5.2830   37.8520    9.9990 C.ar   64  TYR64       0.1957
    104  OH         4.0040   38.0050    9.6780 O.3    64  TYR64      -0.2866
    105  N         16.7180   32.7640   -2.2040 N.3    85  HIS85      -0.1241
    106  CA        15.7120   31.9800   -2.9020 C.3    85  HIS85       0.1621
    107  C         15.8940   32.1360   -4.4530 C.2    85  HIS85       0.2264
    108  O         15.7960   31.1470   -5.1990 O.2    85  HIS85      -0.2867
    109  CB        14.3250   32.5140   -2.5270 C.3    85  HIS85       0.0745
    110  CG        13.7760   32.0000   -1.2230 C.ar   85  HIS85       0.0817
    111  ND1       12.5520   32.3970   -0.7380 N.ar   85  HIS85      -0.2268
    112  CD2       14.2920   31.1500   -0.2950 C.ar   85  HIS85       0.1154
    113  CE1       12.3260   31.8040    0.4260 C.ar   85  HIS85       0.1986
    114  NE2       13.3520   31.0130    0.7090 N.ar   85  HIS85      -0.2212
    115  N          5.5020   24.2620    0.7630 N.3    98  VAL98      -0.1245
    116  CA         6.2560   24.5110    2.0180 C.3    98  VAL98       0.1561
    117  C          5.2790   24.9630    3.1270 C.2    98  VAL98       0.2260
    118  O          5.4610   24.6160    4.3500 O.2    98  VAL98      -0.2867
    119  CB         7.3600   25.6150    1.7600 C.3    98  VAL98       0.0252
    120  CG1        7.9100   26.2250    3.0630 C.3    98  VAL98       0.0019
    121  CG2        8.5220   25.0670    0.8720 C.3    98  VAL98       0.0019
    122  N          4.8980   23.0190    6.7260 N.3   102  LEU102     -0.1245
    123  CA         5.4480   23.8210    7.8300 C.3   102  LEU102      0.1561
    124  C          4.3810   23.9470    8.9290 C.2   102  LEU102      0.2260
    125  O          4.6460   23.6560   10.1170 O.2   102  LEU102     -0.2867
    126  CB         5.9440   25.1840    7.3350 C.3   102  LEU102      0.0270
    127  CG         6.2470   26.2170    8.4630 C.3   102  LEU102      0.0019
    128  CD1        7.3430   25.7000    9.2630 C.3   102  LEU102      0.0001
    129  CD2        6.6650   27.5860    7.8200 C.3   102  LEU102      0.0001
    130  N          4.2880   22.4510   12.6160 N.3   106  ILE106     -0.1301
    131  CA         4.0320   23.2700   13.8070 C.3   106  ILE106      0.1246
    132  C          2.9920   22.6370   14.7140 C.3   106  ILE106      0.2009
    133  O          3.2430   22.4090   15.9640 O.3   106  ILE106     -0.2188
    134  CB         3.7260   24.7350   13.4550 C.3   106  ILE106      0.0202
    135  CG1        4.9670   25.4250   12.9050 C.3   106  ILE106      0.0015
    136  CG2        3.3610   25.4840   14.7060 C.3   106  ILE106      0.0016
    137  CD1        4.6470   26.7220   12.0420 C.3   106  ILE106      0.0000
    138  N         -0.1970   31.8920   12.3090 N.3   122  TRP122     -0.1241
    139  CA         1.0550   31.6480   11.5740 C.3   122  TRP122      0.1605
    140  C          0.7520   31.2750   10.0990 C.2   122  TRP122      0.2264
    141  O          1.6070   31.4990    9.2770 O.2   122  TRP122     -0.2867
    142  CB         1.9500   30.5620   12.1640 C.3   122  TRP122      0.0550
    143  CG         2.6520   31.1140   13.3450 C.ar  122  TRP122      0.0003
    144  CD1        2.2090   31.1140   14.6400 C.ar  122  TRP122      0.0946
    145  CD2        3.8350   31.8980   13.3190 C.ar  122  TRP122      0.0152
    146  NE1        3.1210   31.7960   15.4580 N.ar  122  TRP122     -0.2442
    147  CE2        4.1090   32.3060   14.6560 C.ar  122  TRP122      0.0810
    148  CE3        4.6660   32.3120   12.3070 C.ar  122  TRP122      0.0012
    149  CZ2        5.2090   33.0810   14.9870 C.ar  122  TRP122      0.0191
    150  CZ3        5.7740   33.1050   12.6200 C.ar  122  TRP122      0.0001
    151  CH2        6.0190   33.4790   13.9510 C.ar  122  TRP122      0.0015
    152  N          0.6040   34.6970    8.5920 N.3   125  ALA125     -0.1231
    153  CA         1.9270   35.2200    8.4050 C.3   125  ALA125      0.1694
    154  C          2.6070   34.5260    7.1950 C.2   125  ALA125      0.2592
    155  O          3.1860   35.1950    6.3730 O.2   125  ALA125     -0.2718
    156  CB         2.7530   35.0470    9.7380 C.3   125  ALA125      0.0304
    157  N          2.4620   33.1990    7.0440 N.am  126  TYR126     -0.1976
    158  CA         3.0580   32.5220    5.9350 C.3   126  TYR126      0.1639
    159  C          2.5680   33.0770    4.5820 C.2   126  TYR126      0.2290
    160  O          3.3770   33.3540    3.6820 O.2   126  TYR126     -0.2864
    161  CB         2.8560   30.9800    6.0550 C.3   126  TYR126      0.0560
    162  CG         3.5600   30.2890    4.9250 C.ar  126  TYR126     -0.0198
    163  CD1        4.8560   29.8870    5.0830 C.ar  126  TYR126     -0.0009
    164  CD2        2.9200   30.0870    3.7030 C.ar  126  TYR126     -0.0009
    165  CE1        5.5440   29.2590    4.1130 C.ar  126  TYR126      0.0417
    166  CE2        3.5960   29.5070    2.6620 C.ar  126  TYR126      0.0417
    167  CZ         4.9460   29.1330    2.8490 C.ar  126  TYR126      0.1957
    168  OH         5.6650   28.5060    1.8720 O.3   126  TYR126     -0.2866
    169  N          4.0370   36.7630    3.9470 N.3   129  LEU129     -0.1245
    170  CA         5.4560   36.6590    3.5830 C.3   129  LEU129      0.1561
    171  C          5.6730   35.9620    2.2550 C.2   129  LEU129      0.2260
    172  O          6.5040   36.3730    1.4970 O.2   129  LEU129     -0.2867
    173  CB         6.2580   35.8790    4.6490 C.3   129  LEU129      0.0270
    174  CG         6.2970   36.5970    6.0130 C.3   129  LEU129      0.0019
    175  CD1        7.2250   35.8500    6.9660 C.3   129  LEU129      0.0001
    176  CD2        6.8650   38.0230    5.8410 C.3   129  LEU129      0.0001
@<TRIPOS>BOND
     1   108   107    2
     2   107   106    1
     3   106   109    1
     4   106   105    1
     5   109   110    1
     6    48    49    1
     7   110   111   ar
     8   110   112   ar
     9   111   113   ar
    10    51    50    2
    11   112   114   ar
    12    49    50    1
    13    49    52    1
    14    55    57   ar
    15    55    53   ar
    16    57    58   ar
    17   113   114   ar
    18    52    53    1
    19   115   116    1
    20   121   119    1
    21    53    54   ar
    22    58    56   ar
    23   172   171    2
    24   119   116    1
    25   119   120    1
    26    54    56   ar
    27   168   167    1
    28   116   117    1
    29   171   170    1
    30   166   167   ar
    31   166   164   ar
    32   167   165   ar
    33   117   118    2
    34   170   169    1
    35   170   173    1
    36   160   159    2
    37   164   162   ar
    38   165   163   ar
    39   159   158    1
    40   173   174    1
    41    35    33   ar
    42    35    34   ar
    43    45    43   ar
    44    45    46   ar
    45    39    38    2
    46   162   163   ar
    47   162   161    1
    48    43    41   ar
    49    33    31   ar
    50    34    32   ar
    51    47    46    1
    52   176   174    1
    53    46    44   ar
    54   158   161    1
    55   158   157    1
    56   174   175    1
    57    38    37    1
    58    41    40    1
    59    41    42   ar
    60    28    27    2
    61    37    40    1
    62    37    36    1
    63   155   154    2
    64    31    30   ar
    65    32    30   ar
    66   122   123    1
    67   157   154   am
    68    44    42   ar
    69    30    29    1
    70   154   153    1
    71    27    36   am
    72    27    26    1
    73   126   123    1
    74   126   127    1
    75   129   127    1
    76   123   124    1
    77   153   152    1
    78   153   156    1
    79    26    29    1
    80    26    25    1
    81   127   128    1
    82   124   125    2
    83   141   140    2
    84    66    65    2
    85   101    99   ar
    86   101   103   ar
    87   104   103    1
    88    20    19    2
    89    99    98   ar
    90   103   102   ar
    91   140   139    1
    92    85    82    1
    93    23    21    1
    94    65    64    1
    95    65    67   am
    96    98    97    1
    97    98   100   ar
    98   102   100   ar
    99    64    63    1
   100    19    18    1
   101    72    69    1
   102    24    22    1
   103    97    94    1
   104    82    83    1
   105    82    81    1
   106    79    78    1
   107    18    21    1
   108    18    17    1
   109    84    83    2
   110   139   142    1
   111   139   138    1
   112    21    22    1
   113    94    93    1
   114    94    95    1
   115    12    11    2
   116    83    86   am
   117    71    70    2
   118   137   135    1
   119   142   143    1
   120    69    70    1
   121    69    68    1
   122    70    73   am
   123   148   150   ar
   124   148   145   ar
   125    63    60    1
   126    96    95    2
   127    74    73    1
   128    74    77    1
   129    74    75    1
   130   130   131    1
   131   150   151   ar
   132    17    11   am
   133    60    59    1
   134    60    61    1
   135    78    77    1
   136    78    80    1
   137    11    10    1
   138    86    87    1
   139    15    13    1
   140   135   134    1
   141    62    61    2
   142    76    75    2
   143    92    90    1
   144   145   143   ar
   145   145   147   ar
   146   143   144   ar
   147    87    90    1
   148    87    88    1
   149   134   131    1
   150   134   136    1
   151   131   132    1
   152   151   149   ar
   153    10    13    1
   154    10     9    1
   155    13    14    1
   156    90    91    1
   157    88    89    2
   158     8     6    1
   159   144   146   ar
   160   147   149   ar
   161   147   146   ar
   162   132   133    1
   163    14    16    1
   164     6     5    1
   165     6     7    1
   166     5     2    1
   167     4     3    2
   168     2     3    1
   169     2     1    1
