@<TRIPOS>MOLECULE
tmp/3ozuA01.pdb
 214 211 0 0 0
SMALL
GASTEIGER

@<TRIPOS>ATOM
      1  N         19.4260   21.5950    1.1830 N.3    44  ASN44      -0.1240
      2  CA        20.7310   21.0970    1.5310 C.3    44  ASN44       0.1653
      3  C         20.4930   19.8650    2.3270 C.2    44  ASN44       0.2266
      4  O         19.8510   19.9410    3.3760 O.2    44  ASN44      -0.2867
      5  CB        21.5100   22.1150    2.3840 C.3    44  ASN44       0.1155
      6  CG        22.9320   21.6320    2.7700 C.2    44  ASN44       0.2627
      7  OD1       23.8030   22.4430    3.1080 O.2    44  ASN44      -0.2716
      8  ND2       23.1900   20.3760    2.6650 N.am   44  ASN44      -0.0877
      9  N         23.0020   17.7660    3.4290 N.3    46  ALA46      -0.1231
     10  CA        24.1190   17.4420    4.3200 C.3    46  ALA46       0.1694
     11  C         23.6930   17.7270    5.7490 C.2    46  ALA46       0.2592
     12  O         22.9020   18.6510    6.0280 O.2    46  ALA46      -0.2718
     13  CB        25.3610   18.2400    3.9830 C.3    46  ALA46       0.0304
     14  N         24.1810   16.9220    6.6680 N.am   47  HIS47      -0.1962
     15  CA        23.7540   17.1520    8.0340 C.3    47  HIS47       0.1787
     16  C         24.5540   18.2880    8.6540 C.2    47  HIS47       0.2620
     17  O         25.7520   18.4350    8.4130 O.2    47  HIS47      -0.2715
     18  CB        23.7230   15.8570    8.8640 C.3    47  HIS47       0.0785
     19  CG        22.7210   14.8480    8.3710 C.ar   47  HIS47       0.0821
     20  ND1       23.0290   13.5130    8.2060 N.ar   47  HIS47      -0.2267
     21  CD2       21.4230   14.9850    7.9900 C.ar   47  HIS47       0.1154
     22  CE1       21.9650   12.8700    7.7540 C.ar   47  HIS47       0.1986
     23  NE2       20.9780   13.7390    7.6160 N.ar   47  HIS47      -0.2212
     24  N         23.8140   19.1260    9.3600 N.am   48  GLN48      -0.1963
     25  CA        24.3060   20.2110   10.1740 C.3    48  GLN48       0.1733
     26  C         23.9350   19.8510   11.6160 C.2    48  GLN48       0.2616
     27  O         22.8100   19.3770   11.8770 O.2    48  GLN48      -0.2715
     28  CB        23.5660   21.4830    9.7460 C.3    48  GLN48       0.0408
     29  CG        23.7830   22.7030   10.6650 C.3    48  GLN48       0.0908
     30  CD        23.8250   24.0330    9.9010 C.2    48  GLN48       0.2608
     31  OE1       24.7790   24.8230   10.0670 O.2    48  GLN48      -0.2717
     32  NE2       22.8050   24.2780    9.0460 N.am   48  GLN48      -0.0878
     33  N         24.8410   20.0700   12.5650 N.am   49  GLU49      -0.1977
     34  CA        24.4750   19.8090   13.9640 C.3    49  GLU49       0.1602
     35  C         23.1690   20.5660   14.4220 C.2    49  GLU49       0.2287
     36  O         22.8340   21.6460   13.8930 O.2    49  GLU49      -0.2864
     37  CB        25.6840   19.9940   14.8890 C.3    49  GLU49       0.0415
     38  CG        26.0300   21.4270   15.2600 C.3    49  GLU49       0.1163
     39  CD        25.5100   21.8220   16.6560 C.2    49  GLU49       0.3649
     40  OE1       25.7540   21.0390   17.6160 O.co2  49  GLU49      -0.2457
     41  OE2       24.8710   22.9070   16.7880 O.co2  49  GLU49      -0.2457
     42  N         18.5900   34.9390   -1.8420 N.3    84  LYS84      -0.1245
     43  CA        18.9790   33.5280   -1.6240 C.3    84  LYS84       0.1561
     44  C         18.0080   32.5990   -2.4010 C.2    84  LYS84       0.2260
     45  O         18.4280   31.7460   -3.1610 O.2    84  LYS84      -0.2867
     46  CB        19.0170   33.2270   -0.0930 C.3    84  LYS84       0.0271
     47  CG        19.4940   31.7080    0.2710 C.3    84  LYS84       0.0035
     48  CD        21.0830   31.5790    0.0790 C.3    84  LYS84       0.0206
     49  CE        21.9340   32.0650    1.3090 C.3    84  LYS84       0.1093
     50  NZ        22.0800   33.5600    1.1140 N.3    84  LYS84      -0.1314
     51  N         27.1080   36.6060   -4.7250 N.3   190  TYR190     -0.1241
     52  CA        27.4630   35.2300   -4.9380 C.3   190  TYR190      0.1605
     53  C         26.7390   34.6540   -6.1530 C.2   190  TYR190      0.2264
     54  O         25.7020   35.1930   -6.5680 O.2   190  TYR190     -0.2867
     55  CB        27.1080   34.4160   -3.7140 C.3   190  TYR190      0.0534
     56  CG        25.7160   34.6410   -3.1940 C.ar  190  TYR190     -0.0201
     57  CD1       24.6200   33.8710   -3.6760 C.ar  190  TYR190     -0.0009
     58  CD2       25.4590   35.6360   -2.2280 C.ar  190  TYR190     -0.0009
     59  CE1       23.3140   34.1330   -3.1930 C.ar  190  TYR190      0.0417
     60  CE2       24.1500   35.8700   -1.7240 C.ar  190  TYR190      0.0417
     61  CZ        23.0980   35.0650   -2.2250 C.ar  190  TYR190      0.1957
     62  OH        21.7970   35.2620   -1.7870 O.3   190  TYR190     -0.2866
     63  N         25.1470   25.0200   -3.8550 N.3   206  ARG206     -0.1231
     64  CA        25.9270   25.7890   -2.8780 C.3   206  ARG206      0.1694
     65  C         26.2780   27.1660   -3.4290 C.2   206  ARG206      0.2592
     66  O         26.4880   27.3530   -4.6540 O.2   206  ARG206     -0.2718
     67  CB        27.2510   25.0530   -2.5030 C.3   206  ARG206      0.0321
     68  CG        27.1350   23.6240   -1.9740 C.3   206  ARG206      0.0489
     69  CD        26.3920   23.5970   -0.6080 C.3   206  ARG206      0.2205
     70  NE        26.3500   22.2280   -0.0870 N.pl3 206  ARG206     -0.0865
     71  CZ        25.2930   21.3810   -0.1490 C.cat 206  ARG206      0.5346
     72  NH1       25.4390   20.1460    0.3350 N.pl3 206  ARG206      0.1354
     73  NH2       24.1300   21.7460   -0.7010 N.pl3 206  ARG206      0.1354
     74  N         26.3420   28.1250   -2.5240 N.am  207  GLN207     -0.1966
     75  CA        26.6500   29.5010   -2.9720 C.3   207  GLN207      0.1733
     76  C         28.1900   29.7370   -2.9270 C.2   207  GLN207      0.2616
     77  O         28.8820   29.2400   -1.9980 O.2   207  GLN207     -0.2715
     78  CB        25.9280   30.5690   -2.1100 C.3   207  GLN207      0.0408
     79  CG        24.4040   30.5990   -2.3900 C.3   207  GLN207      0.0908
     80  CD        23.6790   29.4310   -1.7030 C.2   207  GLN207      0.2608
     81  OE1       23.8470   29.2450   -0.4950 O.2   207  GLN207     -0.2717
     82  NE2       22.9340   28.6220   -2.4730 N.am  207  GLN207     -0.0878
     83  N         28.7120   30.4540   -3.9120 N.am  208  TYR208     -0.1960
     84  CA        30.1260   30.8660   -3.8890 C.3   208  TYR208      0.1771
     85  C         30.2990   32.3680   -4.1870 C.2   208  TYR208      0.2620
     86  O         29.7610   32.8620   -5.1730 O.2   208  TYR208     -0.2715
     87  CB        31.0090   29.9730   -4.7960 C.3   208  TYR208      0.0574
     88  CG        31.0370   28.5620   -4.2800 C.ar  208  TYR208     -0.0198
     89  CD1       30.2210   27.5920   -4.8430 C.ar  208  TYR208     -0.0009
     90  CD2       31.7680   28.2380   -3.1400 C.ar  208  TYR208     -0.0009
     91  CE1       30.1730   26.3190   -4.3480 C.ar  208  TYR208      0.0417
     92  CE2       31.7300   26.9370   -2.6040 C.ar  208  TYR208      0.0417
     93  CZ        30.9130   25.9880   -3.2320 C.ar  208  TYR208      0.1957
     94  OH        30.8340   24.7220   -2.7380 O.3   208  TYR208     -0.2866
     95  N         31.0620   33.0710   -3.3420 N.am  209  SER209     -0.1950
     96  CA        31.3090   34.4890   -3.5540 C.3   209  SER209      0.1924
     97  C         31.9780   34.7160   -4.9030 C.2   209  SER209      0.2314
     98  O         32.9160   34.0110   -5.2880 O.2   209  SER209     -0.2863
     99  CB        32.1510   35.0970   -2.4470 C.3   209  SER209      0.2116
    100  OG        31.3900   35.0110   -1.2550 O.3   209  SER209     -0.2180
    101  N         36.6010   31.1010   -5.4330 N.3   222  SER222     -0.1202
    102  CA        37.5750   30.3670   -4.6440 C.3   222  SER222      0.2020
    103  C         36.8720   29.3940   -3.7290 C.2   222  SER222      0.2619
    104  O         36.0440   29.8180   -2.9520 O.2   222  SER222     -0.2717
    105  CB        38.4250   31.3340   -3.7850 C.3   222  SER222      0.2103
    106  OG        39.1790   32.0880   -4.6720 O.3   222  SER222     -0.2182
    107  N         37.1740   28.1020   -3.8200 N.am  223  VAL223     -0.1965
    108  CA        36.3980   27.0760   -3.1150 C.3   223  VAL223      0.1727
    109  C         37.3420   26.3940   -2.1490 C.2   223  VAL223      0.2616
    110  O         38.4000   25.8670   -2.5350 O.2   223  VAL223     -0.2715
    111  CB        35.8150   26.0390   -4.1220 C.3   223  VAL223      0.0290
    112  CG1       35.0380   24.8590   -3.4440 C.3   223  VAL223      0.0023
    113  CG2       34.9500   26.7750   -5.1440 C.3   223  VAL223      0.0023
    114  N         36.9800   26.4870   -0.8720 N.am  224  LYS224     -0.1977
    115  CA        37.6790   25.8110    0.1950 C.3   224  LYS224      0.1596
    116  C         37.2790   24.3330    0.2940 C.2   224  LYS224      0.2287
    117  O         36.1090   24.0470    0.4780 O.2   224  LYS224     -0.2864
    118  CB        37.2990   26.4480    1.5280 C.3   224  LYS224      0.0298
    119  CG        38.2800   25.8990    2.6250 C.3   224  LYS224      0.0038
    120  CD        37.8150   26.2430    4.0430 C.3   224  LYS224      0.0206
    121  CE        38.3810   25.1770    5.0230 C.3   224  LYS224      0.1093
    122  NZ        38.9070   25.6930    6.3330 N.3   224  LYS224     -0.1314
    123  N         36.2130   21.2530    2.0510 N.3   226  GLU226     -0.1231
    124  CA        35.7300   21.0420    3.4290 C.3   226  GLU226      0.1699
    125  C         35.8950   19.6040    3.8800 C.2   226  GLU226      0.2592
    126  O         35.5240   18.6580    3.1400 O.2   226  GLU226     -0.2718
    127  CB        34.2370   21.3860    3.6070 C.3   226  GLU226      0.0402
    128  CG        33.9170   22.8170    3.9350 C.3   226  GLU226      0.1161
    129  CD        34.7110   23.3710    5.1350 C.2   226  GLU226      0.3649
    130  OE1       35.0360   22.6330    6.1240 O.co2 226  GLU226     -0.2457
    131  OE2       35.0140   24.5820    5.0790 O.co2 226  GLU226     -0.2457
    132  N         36.4190   19.4640    5.1030 N.am  227  GLY227     -0.1957
    133  CA        36.3690   18.2040    5.8230 C.3   227  GLY227      0.1869
    134  C         37.4400   17.2790    5.3180 C.2   227  GLY227      0.2309
    135  O         38.2640   17.6840    4.4890 O.2   227  GLY227     -0.2863
    136  N         36.8120   15.0180   10.1630 N.3   231  GLN231     -0.1231
    137  CA        35.5910   15.6240    9.6560 C.3   231  GLN231      0.1683
    138  C         35.0590   14.8560    8.4500 C.2   231  GLN231      0.2434
    139  O         35.7880   14.7180    7.4650 O.2   231  GLN231     -0.2733
    140  CB        35.8780   17.0530    9.2070 C.3   231  GLN231      0.0380
    141  CG        35.9430   18.0740   10.3000 C.3   231  GLN231      0.0905
    142  CD        35.3600   19.4260    9.8840 C.2   231  GLN231      0.2608
    143  OE1       35.2850   20.3320   10.7130 O.2   231  GLN231     -0.2717
    144  NE2       34.9260   19.5650    8.6040 N.am  231  GLN231     -0.0878
    145  N         33.7930   14.3780    8.4940 N.am  232  PRO232     -0.2718
    146  CA        33.2740   13.7960    7.2350 C.3   232  PRO232      0.1520
    147  C         33.2120   14.8810    6.1280 C.2   232  PRO232      0.2440
    148  O         32.5580   15.9120    6.3320 O.2   232  PRO232     -0.2731
    149  CB        31.8640   13.2930    7.5950 C.3   232  PRO232      0.0310
    150  CG        31.6200   13.6880    9.0370 C.3   232  PRO232      0.0237
    151  CD        32.7690   14.5110    9.5450 C.3   232  PRO232      0.0939
    152  N         33.9010   14.6560    4.9810 N.am  233  PRO233     -0.2716
    153  CA        34.1040   15.6010    3.8700 C.3   233  PRO233      0.1536
    154  C         32.7900   16.2520    3.3540 C.2   233  PRO233      0.2599
    155  O         31.7820   15.5750    3.2950 O.2   233  PRO233     -0.2715
    156  CB        34.6330   14.6810    2.7630 C.3   233  PRO233      0.0310
    157  CG        34.0920   13.3170    3.1390 C.3   233  PRO233      0.0237
    158  CD        34.3180   13.3000    4.5930 C.3   233  PRO233      0.0939
    159  N         32.8130   17.5100    2.9460 N.am  234  GLY234     -0.1941
    160  CA        31.6070   18.1130    2.4000 C.3   234  GLY234      0.2014
    161  C         31.3520   17.6880    0.9570 C.2   234  GLY234      0.2639
    162  O         32.3210   17.5200    0.1790 O.2   234  GLY234     -0.2714
    163  N         30.0660   17.5620    0.5790 N.am  235  TYR235     -0.1959
    164  CA        29.7240   17.0700   -0.7430 C.3   235  TYR235      0.1771
    165  C         30.3170   17.8800   -1.8840 C.2   235  TYR235      0.2619
    166  O         31.1620   17.3970   -2.5710 O.2   235  TYR235     -0.2715
    167  CB        28.2170   16.9060   -0.9220 C.3   235  TYR235      0.0574
    168  CG        27.7060   15.7540   -0.0740 C.ar  235  TYR235     -0.0198
    169  CD1       26.7360   15.9720    0.9210 C.ar  235  TYR235     -0.0009
    170  CD2       28.2200   14.4480   -0.2390 C.ar  235  TYR235     -0.0009
    171  CE1       26.2600   14.9380    1.7130 C.ar  235  TYR235      0.0417
    172  CE2       27.7660   13.3860    0.5720 C.ar  235  TYR235      0.0417
    173  CZ        26.7740   13.6500    1.5110 C.ar  235  TYR235      0.1957
    174  OH        26.3000   12.6520    2.2610 O.3   235  TYR235     -0.2866
    175  N         29.9320   19.1340   -2.0110 N.am  236  VAL236     -0.1963
    176  CA        30.1270   19.8650   -3.2470 C.3   236  VAL236      0.1727
    177  C         31.5830   20.4090   -3.3050 C.2   236  VAL236      0.2616
    178  O         32.1840   20.4060   -4.3890 O.2   236  VAL236     -0.2715
    179  CB        29.0510   20.9540   -3.3590 C.3   236  VAL236      0.0290
    180  CG1       29.3390   21.9690   -4.5540 C.3   236  VAL236      0.0023
    181  CG2       27.6120   20.2870   -3.4760 C.3   236  VAL236      0.0023
    182  N         32.1630   20.8100   -2.1750 N.am  237  SER237     -0.1950
    183  CA        33.5170   21.3960   -2.2250 C.3   237  SER237      0.1924
    184  C         34.4980   20.2960   -2.6360 C.2   237  SER237      0.2314
    185  O         35.3440   20.5170   -3.4950 O.2   237  SER237     -0.2863
    186  CB        33.9410   22.0150   -0.8890 C.3   237  SER237      0.2116
    187  OG        34.0090   21.0380    0.1020 O.3   237  SER237     -0.2180
    188  N         26.7640   38.8140    5.2200 N.3   394  GLU394     -0.1231
    189  CA        26.7320   37.6390    4.3550 C.3   394  GLU394      0.1699
    190  C         28.0460   36.9030    4.5370 C.2   394  GLU394      0.2588
    191  O         29.0880   37.5090    4.8350 O.2   394  GLU394     -0.2718
    192  CB        26.6190   38.0500    2.8790 C.3   394  GLU394      0.0402
    193  CG        26.1580   36.9700    1.8890 C.3   394  GLU394      0.1161
    194  CD        25.0050   36.1090    2.4420 C.2   394  GLU394      0.3649
    195  OE1       25.2050   35.0840    3.1880 O.co2 394  GLU394     -0.2457
    196  OE2       23.8730   36.5080    2.1670 O.co2 394  GLU394     -0.2457
    197  N         27.9840   35.6000    4.2960 N.am  395  VAL395     -0.2033
    198  CA        29.1500   34.7930    4.0890 C.3   395  VAL395      0.1282
    199  C         29.8860   35.3380    2.8870 C.3   395  VAL395      0.2035
    200  O         29.2670   35.5690    1.7750 O.3   395  VAL395     -0.2185
    201  CB        28.8180   33.2560    3.9010 C.3   395  VAL395      0.0226
    202  CG1       30.1380   32.4480    3.6170 C.3   395  VAL395      0.0018
    203  CG2       28.0560   32.7240    5.1460 C.3   395  VAL395      0.0018
    204  N         33.4160   34.7800    0.7630 N.3   397  GLY397     -0.1210
    205  CA        34.6850   34.0770    0.4280 C.3   397  GLY397      0.1940
    206  C         34.9210   32.7410    1.0880 C.2   397  GLY397      0.2453
    207  O         34.1520   32.3140    1.8960 O.2   397  GLY397     -0.2732
    208  N         36.0490   32.0910    0.7780 N.am  398  PRO398     -0.2728
    209  CA        36.2890   30.7580    1.2650 C.3   398  PRO398      0.1401
    210  C         36.8920   30.5810    2.6450 C.2   398  PRO398      0.2269
    211  O         37.2770   29.4710    2.9620 O.2   398  PRO398     -0.2865
    212  CB        37.3160   30.2090    0.2740 C.3   398  PRO398      0.0296
    213  CG        38.0690   31.4120   -0.2030 C.3   398  PRO398      0.0237
    214  CD        37.1050   32.5710   -0.1310 C.3   398  PRO398      0.0939
@<TRIPOS>BOND
     1    54    53    2
     2    53    52    1
     3   101   102    1
     4    98    97    2
     5    86    85    2
     6   113   111    1
     7    52    51    1
     8    52    55    1
     9    97    96    1
    10    89    91   ar
    11    89    88   ar
    12    87    88    1
    13    87    84    1
    14   106   105    1
    15    66    65    2
    16   102   105    1
    17   102   103    1
    18   180   179    1
    19   178   177    2
    20    91    93   ar
    21    88    90   ar
    22    85    84    1
    23    85    95   am
    24   111   112    1
    25   111   108    1
    26    83    84    1
    27    83    76   am
    28    63    64    1
    29   107   103   am
    30   107   108    1
    31   103   104    2
    32    55    56    1
    33    57    56   ar
    34    57    59   ar
    35    96    95    1
    36    96    99    1
    37   185   184    2
    38   181   179    1
    39    65    64    1
    40    65    74   am
    41   179   176    1
    42   177   176    1
    43   177   182   am
    44   176   175    1
    45    93    94    1
    46    93    92   ar
    47    56    58   ar
    48    59    61   ar
    49    45    44    2
    50    90    92   ar
    51   108   109    1
    52    75    76    1
    53    75    74    1
    54    75    78    1
    55    76    77    2
    56    64    67    1
    57   184   183    1
    58   166   165    2
    59   110   109    2
    60    67    68    1
    61    82    80   am
    62    99   100    1
    63    44    43    1
    64    79    78    1
    65    79    80    1
    66    58    60   ar
    67    61    62    1
    68    61    60   ar
    69   183   182    1
    70   183   186    1
    71   109   114   am
    72   175   165   am
    73    68    69    1
    74   165   164    1
    75    42    43    1
    76    80    81    2
    77    43    46    1
    78   167   164    1
    79   167   168    1
    80   186   187    1
    81   114   115    1
    82   164   163    1
    83    73    71    1
    84    69    70    1
    85   170   168   ar
    86   170   172   ar
    87   213   214    1
    88   213   212    1
    89    71    70    2
    90    71    72    1
    91   214   208    1
    92    46    47    1
    93   168   169   ar
    94    48    47    1
    95    48    49    1
    96   162   161    2
    97   115   116    1
    98   115   118    1
    99   212   209    1
   100   116   117    2
   101   205   204    1
   102   205   206    1
   103   172   173   ar
   104   163   161   am
   105   208   206   am
   106   208   209    1
   107   169   171   ar
   108   161   160    1
   109   206   207    2
   110    50    49    1
   111     1     2    1
   112   209   210    1
   113   173   171   ar
   114   173   174    1
   115   118   119    1
   116     2     3    1
   117     2     5    1
   118   200   199    1
   119   193   194    1
   120   193   192    1
   121   123   124    1
   122   196   194   ar
   123     3     4    2
   124     5     6    1
   125   160   159    1
   126   194   195   ar
   127   119   120    1
   128   210   211    2
   129     8     6   am
   130   156   157    1
   131   156   153    1
   132     6     7    2
   133   192   189    1
   134   199   198    1
   135   159   154   am
   136   157   158    1
   137   126   125    2
   138   155   154    2
   139   154   153    1
   140     9    10    1
   141   124   127    1
   142   124   125    1
   143   127   128    1
   144   202   201    1
   145   153   152    1
   146   125   132   am
   147   201   198    1
   148   201   203    1
   149   128   129    1
   150    13    10    1
   151   120   121    1
   152   198   197    1
   153   197   190   am
   154    10    11    1
   155   189   190    1
   156   189   188    1
   157   135   134    2
   158   190   191    2
   159   158   152    1
   160   152   147   am
   161   121   122    1
   162   131   129   ar
   163   132   133    1
   164   129   130   ar
   165   134   133    1
   166    11    12    2
   167    11    14   am
   168   147   148    2
   169   147   146    1
   170    14    15    1
   171   146   149    1
   172   146   145    1
   173   139   138    2
   174   149   150    1
   175    23    22   ar
   176    23    21   ar
   177    22    20   ar
   178    21    19   ar
   179    15    16    1
   180    15    18    1
   181    20    19   ar
   182    19    18    1
   183    17    16    2
   184   138   145   am
   185   138   137    1
   186   145   151    1
   187   144   142   am
   188    16    24   am
   189   150   151    1
   190    32    30   am
   191   140   137    1
   192   140   141    1
   193    24    25    1
   194   137   136    1
   195    28    25    1
   196    28    29    1
   197   142   141    1
   198   142   143    2
   199    30    31    2
   200    30    29    1
   201    25    26    1
   202    26    27    2
   203    26    33   am
   204    33    34    1
   205    36    35    2
   206    34    35    1
   207    34    37    1
   208    37    38    1
   209    38    39    1
   210    39    41   ar
   211    39    40   ar
