@<TRIPOS>MOLECULE
tmp/3ozvA02.pdb
 171 160 0 0 0
SMALL
GASTEIGER

@<TRIPOS>ATOM
      1  N        -10.5220   21.6210  -27.8720 N.3    17  LEU17      -0.1245
      2  CA       -10.1260   20.4780  -27.0710 C.3    17  LEU17       0.1561
      3  C         -8.9470   20.8380  -26.1920 C.2    17  LEU17       0.2260
      4  O         -8.9790   20.6350  -24.9650 O.2    17  LEU17      -0.2867
      5  CB        -9.7730   19.3110  -27.9600 C.3    17  LEU17       0.0270
      6  CG       -10.8610   18.3490  -28.4380 C.3    17  LEU17       0.0019
      7  CD1      -12.0990   19.0200  -28.9790 C.3    17  LEU17       0.0001
      8  CD2      -10.2670   17.3880  -29.4640 C.3    17  LEU17       0.0001
      9  N         -1.5040   16.8780  -23.3160 N.3    57  LEU57      -0.1245
     10  CA        -2.5890   16.7820  -24.2720 C.3    57  LEU57       0.1561
     11  C         -2.6210   17.9770  -25.2590 C.2    57  LEU57       0.2260
     12  O         -2.7210   17.7710  -26.4740 O.2    57  LEU57      -0.2867
     13  CB        -3.9410   16.6180  -23.5640 C.3    57  LEU57       0.0270
     14  CG        -5.1630   16.5660  -24.5000 C.3    57  LEU57       0.0019
     15  CD1       -5.0650   15.3830  -25.5240 C.3    57  LEU57       0.0001
     16  CD2       -6.4900   16.4890  -23.7290 C.3    57  LEU57       0.0001
     17  N         -0.0300   17.7050  -27.7610 N.3    60  ALA60      -0.1231
     18  CA        -0.3010   16.6320  -28.6890 C.3    60  ALA60       0.1694
     19  C         -1.3920   16.9980  -29.7000 C.2    60  ALA60       0.2591
     20  O         -1.1620   16.8050  -30.8820 O.2    60  ALA60      -0.2718
     21  CB        -0.6370   15.3450  -27.9700 C.3    60  ALA60       0.0304
     22  N         -2.5550   17.5200  -29.2740 N.am   61  VAL61      -0.1980
     23  CA        -3.5690   17.8850  -30.2830 C.3    61  VAL61       0.1595
     24  C         -3.0550   18.9680  -31.2020 C.2    61  VAL61       0.2287
     25  O         -3.3690   18.9270  -32.3820 O.2    61  VAL61      -0.2864
     26  CB        -5.0420   18.1950  -29.7910 C.3    61  VAL61       0.0276
     27  CG1       -5.6180   17.0530  -28.9650 C.3    61  VAL61       0.0022
     28  CG2       -5.1550   19.5130  -29.0840 C.3    61  VAL61       0.0022
     29  N         -0.1140   19.4730  -32.2190 N.3    63  ALA63      -0.1231
     30  CA         0.8590   18.9710  -33.1550 C.3    63  ALA63       0.1694
     31  C          0.2110   18.0150  -34.1710 C.2    63  ALA63       0.2592
     32  O          0.6900   17.8440  -35.2900 O.2    63  ALA63      -0.2718
     33  CB         2.0000   18.3500  -32.4300 C.3    63  ALA63       0.0304
     34  N         -0.9090   17.4360  -33.7990 N.am   64  TYR64      -0.1976
     35  CA        -1.6870   16.6970  -34.7540 C.3    64  TYR64       0.1639
     36  C         -2.2570   17.6610  -35.8240 C.2    64  TYR64       0.2290
     37  O         -2.0240   17.4600  -37.0140 O.2    64  TYR64      -0.2864
     38  CB        -2.7720   15.9230  -34.0530 C.3    64  TYR64       0.0560
     39  CG        -3.6880   15.1710  -34.9830 C.ar   64  TYR64      -0.0198
     40  CD1       -3.1840   14.3900  -36.0300 C.ar   64  TYR64      -0.0009
     41  CD2       -5.0640   15.2350  -34.8110 C.ar   64  TYR64      -0.0009
     42  CE1       -4.0340   13.7120  -36.8750 C.ar   64  TYR64       0.0417
     43  CE2       -5.9210   14.5590  -35.6510 C.ar   64  TYR64       0.0417
     44  CZ        -5.4020   13.7940  -36.6720 C.ar   64  TYR64       0.1957
     45  OH        -6.2800   13.1240  -37.5050 O.3    64  TYR64      -0.2866
     46  N         -1.1940   20.7230  -36.5920 N.3    66  GLU66      -0.1231
     47  CA        -0.0260   21.1690  -37.3830 C.3    66  GLU66       0.1699
     48  C          0.3590   20.1700  -38.4930 C.2    66  GLU66       0.2592
     49  O          0.6930   20.5650  -39.5870 O.2    66  GLU66      -0.2718
     50  CB         1.1790   21.4400  -36.4770 C.3    66  GLU66       0.0402
     51  CG         2.3900   22.0590  -37.2100 C.3    66  GLU66       0.1161
     52  CD         3.6520   22.1950  -36.3510 C.2    66  GLU66       0.3649
     53  OE1        3.8070   21.4630  -35.3390 O.co2  66  GLU66      -0.2457
     54  OE2        4.5190   23.0420  -36.7080 O.co2  66  GLU66      -0.2457
     55  N          0.2450   18.8760  -38.2120 N.am   67  ASN67      -0.1974
     56  CA         0.7560   17.8270  -39.0960 C.3    67  ASN67       0.1688
     57  C         -0.2770   17.0140  -39.8830 C.2    67  ASN67       0.2292
     58  O          0.0950   16.1190  -40.6290 O.2    67  ASN67      -0.2864
     59  CB         1.6380   16.8810  -38.2710 C.3    67  ASN67       0.1181
     60  CG         2.9410   17.5480  -37.8390 C.2    67  ASN67       0.2629
     61  OD1        3.3590   17.4460  -36.6850 O.2    67  ASN67      -0.2716
     62  ND2        3.5700   18.2540  -38.7620 N.am   67  ASN67      -0.0877
     63  N          5.7530   14.0930  -41.7090 N.3    73  SER73      -0.1202
     64  CA         5.7810   14.6780  -40.3650 C.3    73  SER73       0.2020
     65  C          4.9750   13.8450  -39.3530 C.2    73  SER73       0.2618
     66  O          5.4760   13.5460  -38.2740 O.2    73  SER73      -0.2717
     67  CB         5.2230   16.1010  -40.4080 C.3    73  SER73       0.2103
     68  OG         6.1430   17.0390  -39.8850 O.3    73  SER73      -0.2182
     69  N          3.7500   13.4660  -39.7240 N.am   74  LEU74      -0.1979
     70  CA         2.8290   12.7440  -38.8360 C.3    74  LEU74       0.1596
     71  C          3.3610   11.3650  -38.4140 C.2    74  LEU74       0.2287
     72  O          3.3880   11.0540  -37.2250 O.2    74  LEU74      -0.2864
     73  CB         1.4300   12.6390  -39.4630 C.3    74  LEU74       0.0297
     74  CG         0.2490   12.1430  -38.6150 C.3    74  LEU74       0.0022
     75  CD1        0.1980   12.8330  -37.2520 C.3    74  LEU74       0.0001
     76  CD2       -1.0780   12.3200  -39.3330 C.3    74  LEU74       0.0001
     77  N          6.1520   11.5170  -35.6340 N.3    77  VAL77      -0.1231
     78  CA         5.7500   11.7290  -34.2420 C.3    77  VAL77       0.1692
     79  C          5.0250   10.5180  -33.7000 C.2    77  VAL77       0.2591
     80  O          5.2710   10.0980  -32.5680 O.2    77  VAL77      -0.2718
     81  CB         4.9520   13.0280  -34.0540 C.3    77  VAL77       0.0266
     82  CG1        5.8310   14.1810  -34.4640 C.3    77  VAL77       0.0020
     83  CG2        3.7320   13.0330  -34.8900 C.3    77  VAL77       0.0020
     84  N          4.1790    9.9300  -34.5400 N.am   78  LEU78      -0.1980
     85  CA         3.5550    8.6670  -34.2220 C.3    78  LEU78       0.1596
     86  C          4.5580    7.5650  -33.8330 C.2    78  LEU78       0.2287
     87  O          4.2550    6.7190  -33.0000 O.2    78  LEU78      -0.2864
     88  CB         2.6150    8.2470  -35.3480 C.3    78  LEU78       0.0297
     89  CG         1.3330    9.0970  -35.3340 C.3    78  LEU78       0.0022
     90  CD1        0.4140    8.7890  -36.4990 C.3    78  LEU78       0.0001
     91  CD2        0.5470    9.0380  -33.9780 C.3    78  LEU78       0.0001
     92  N          5.2290    7.6440  -30.1420 N.3    81  ILE81      -0.1245
     93  CA         4.0710    7.1440  -29.4370 C.3    81  ILE81       0.1561
     94  C          4.0210    5.6280  -29.5470 C.2    81  ILE81       0.2260
     95  O          3.8580    4.9280  -28.5290 O.2    81  ILE81      -0.2867
     96  CB         2.7480    7.7660  -29.9180 C.3    81  ILE81       0.0252
     97  CG1        2.7900    9.2920  -29.7480 C.3    81  ILE81       0.0019
     98  CG2        1.5930    7.2060  -29.1140 C.3    81  ILE81       0.0019
     99  CD1        1.6580   10.0790  -30.4670 C.3    81  ILE81       0.0001
    100  N        -13.0490    8.4930  -24.8940 N.3   102  LEU102     -0.1245
    101  CA       -12.5580    9.7710  -25.3570 C.3   102  LEU102      0.1561
    102  C        -13.6830   10.6090  -26.0300 C.2   102  LEU102      0.2260
    103  O        -13.9780   11.7510  -25.5980 O.2   102  LEU102     -0.2867
    104  CB       -11.3280    9.5330  -26.2130 C.3   102  LEU102      0.0270
    105  CG       -10.6970   10.4290  -27.2740 C.3   102  LEU102      0.0019
    106  CD1      -10.6540   11.8630  -26.8720 C.3   102  LEU102      0.0001
    107  CD2       -9.2630    9.8950  -27.5330 C.3   102  LEU102      0.0001
    108  N        -13.6020   14.1610  -35.0340 N.3   122  TRP122     -0.1241
    109  CA       -12.6590   13.6420  -34.0640 C.3   122  TRP122      0.1605
    110  C        -12.7230   12.1380  -33.9880 C.2   122  TRP122      0.2264
    111  O        -11.7070   11.5000  -33.7070 O.2   122  TRP122     -0.2867
    112  CB       -12.7910   14.3120  -32.6610 C.3   122  TRP122      0.0550
    113  CG       -12.1330   15.6890  -32.7250 C.ar  122  TRP122      0.0003
    114  CD1      -12.7640   16.9050  -32.9010 C.ar  122  TRP122      0.0946
    115  CD2      -10.7100   15.9680  -32.7180 C.ar  122  TRP122      0.0152
    116  NE1      -11.8240   17.9110  -32.9630 N.ar  122  TRP122     -0.2442
    117  CE2      -10.5600   17.3690  -32.8310 C.ar  122  TRP122      0.0810
    118  CE3       -9.5580   15.1650  -32.5840 C.ar  122  TRP122      0.0012
    119  CZ2       -9.3000   17.9940  -32.8500 C.ar  122  TRP122      0.0191
    120  CZ3       -8.2970   15.7840  -32.5970 C.ar  122  TRP122      0.0001
    121  CH2       -8.1880   17.2010  -32.7200 C.ar  122  TRP122      0.0015
    122  N        -10.6550   11.1460  -36.9740 N.3   125  ALA125     -0.1231
    123  CA        -9.2180   11.3380  -36.6340 C.3   125  ALA125      0.1694
    124  C         -8.7440   10.2140  -35.7410 C.2   125  ALA125      0.2592
    125  O         -7.7030    9.6360  -35.9830 O.2   125  ALA125     -0.2718
    126  CB        -8.9640   12.6780  -35.9640 C.3   125  ALA125      0.0304
    127  N         -9.5140    9.9050  -34.7130 N.am  126  TYR126     -0.1976
    128  CA        -9.1750    8.7950  -33.8380 C.3   126  TYR126      0.1639
    129  C         -8.9980    7.4520  -34.6050 C.2   126  TYR126      0.2290
    130  O         -7.9580    6.7750  -34.4810 O.2   126  TYR126     -0.2864
    131  CB       -10.2170    8.6200  -32.7340 C.3   126  TYR126      0.0560
    132  CG        -9.7450    7.5570  -31.7650 C.ar  126  TYR126     -0.0198
    133  CD1       -8.9490    7.8960  -30.6620 C.ar  126  TYR126     -0.0009
    134  CD2      -10.0610    6.1900  -31.9800 C.ar  126  TYR126     -0.0009
    135  CE1       -8.4750    6.8800  -29.7630 C.ar  126  TYR126      0.0417
    136  CE2       -9.6040    5.1940  -31.1090 C.ar  126  TYR126      0.0417
    137  CZ        -8.8010    5.5410  -30.0130 C.ar  126  TYR126      0.1957
    138  OH        -8.3790    4.5590  -29.1630 O.3   126  TYR126     -0.2866
    139  N         -5.7320    7.4360  -36.6730 N.3   129  LEU129     -0.1245
    140  CA        -4.5220    7.2880  -35.8860 C.3   129  LEU129      0.1561
    141  C         -4.4260    5.8820  -35.2880 C.2   129  LEU129      0.2260
    142  O         -3.3280    5.2980  -35.2200 O.2   129  LEU129     -0.2867
    143  CB        -4.4600    8.3580  -34.7850 C.3   129  LEU129      0.0270
    144  CG        -4.3540    9.8420  -35.1920 C.3   129  LEU129      0.0019
    145  CD1       -4.4420   10.7580  -33.9700 C.3   129  LEU129      0.0001
    146  CD2       -3.0870   10.1590  -35.9990 C.3   129  LEU129      0.0001
    147  N         -1.2130    3.4880  -35.5870 N.3   133  LEU133     -0.1245
    148  CA        -0.4640    3.0660  -34.3970 C.3   133  LEU133      0.1561
    149  C         -0.4540    1.5440  -34.1820 C.2   133  LEU133      0.2260
    150  O          0.5690    0.9650  -33.8390 O.2   133  LEU133     -0.2867
    151  CB        -0.9830    3.7870  -33.1330 C.3   133  LEU133      0.0270
    152  CG        -0.6220    5.2830  -33.0020 C.3   133  LEU133      0.0019
    153  CD1       -1.3650    5.8620  -31.8530 C.3   133  LEU133      0.0001
    154  CD2        0.8850    5.5260  -32.8230 C.3   133  LEU133      0.0001
    155  N          6.1510   15.5250  -25.1440 N.3   400  LEU400     -0.1245
    156  CA         5.8150   16.4110  -26.2540 C.3   400  LEU400      0.1561
    157  C          6.2550   17.8670  -26.0240 C.2   400  LEU400      0.2260
    158  O          5.7600   18.7820  -26.6900 O.2   400  LEU400     -0.2867
    159  CB         4.3160   16.2900  -26.5780 C.3   400  LEU400      0.0270
    160  CG         3.8420   14.8630  -26.9170 C.3   400  LEU400      0.0019
    161  CD1        2.5480   14.5010  -26.1820 C.3   400  LEU400      0.0001
    162  CD2        3.7270   14.6260  -28.4260 C.3   400  LEU400      0.0001
    163  N         10.8050   19.7530  -27.9260 N.3   403  GLU403     -0.1245
    164  CA        10.8240   19.9190  -29.4000 C.3   403  GLU403      0.1567
    165  C         11.7090   21.0560  -29.9090 C.2   403  GLU403      0.2260
    166  O         12.1700   21.0500  -31.0510 O.2   403  GLU403     -0.2867
    167  CB         9.3980   20.0470  -29.9560 C.3   403  GLU403      0.0388
    168  CG         8.6550   18.7140  -30.0530 C.3   403  GLU403      0.1160
    169  CD         7.1420   18.8580  -29.9620 C.2   403  GLU403      0.3649
    170  OE1        6.6040   19.8950  -30.4090 O.co2 403  GLU403     -0.2457
    171  OE2        6.4850   17.9240  -29.4480 O.co2 403  GLU403     -0.2457
@<TRIPOS>BOND
     1    63    64    1
     2    58    57    2
     3    67    64    1
     4    67    68    1
     5    64    65    1
     6    57    56    1
     7    69    65   am
     8    69    70    1
     9    49    48    2
    10    73    70    1
    11    73    74    1
    12    65    66    2
    13    76    74    1
    14    56    59    1
    15    56    55    1
    16    70    71    1
    17    62    60   am
    18    74    75    1
    19    48    55   am
    20    48    47    1
    21    71    72    2
    22    59    60    1
    23    60    61    2
    24    45    44    1
    25    47    46    1
    26    47    50    1
    27    51    50    1
    28    51    52    1
    29    37    36    2
    30   122   123    1
    31    42    44   ar
    32    42    40   ar
    33    54    52   ar
    34   139   140    1
    35    44    43   ar
    36   123   126    1
    37   123   124    1
    38    90    89    1
    39    52    53   ar
    40    40    39   ar
    41   146   144    1
    42   125   124    2
    43   140   141    1
    44   140   143    1
    45    36    35    1
    46   124   127   am
    47    43    41   ar
    48    77    78    1
    49   147   148    1
    50    88    89    1
    51    88    85    1
    52    89    91    1
    53    32    31    2
    54   141   142    2
    55   144   143    1
    56   144   145    1
    57   108   109    1
    58    39    41   ar
    59    39    38    1
    60    83    81    1
    61    35    38    1
    62    35    34    1
    63   127   128    1
    64   129   130    2
    65   129   128    1
    66    84    85    1
    67    84    79   am
    68    82    81    1
    69   148   149    1
    70   148   151    1
    71    78    81    1
    72    78    79    1
    73    85    86    1
    74   149   150    2
    75    31    34   am
    76    31    30    1
    77   109   110    1
    78   109   112    1
    79   110   111    2
    80   128   131    1
    81    86    87    2
    82    79    80    2
    83    30    33    1
    84    30    29    1
    85   151   152    1
    86   152   154    1
    87   152   153    1
    88   116   114   ar
    89   116   117   ar
    90   114   113   ar
    91   119   117   ar
    92   119   121   ar
    93   117   115   ar
    94   131   132    1
    95   113   115   ar
    96   113   112    1
    97   121   120   ar
    98   115   118   ar
    99   120   118   ar
   100    25    24    2
   101   134   132   ar
   102   134   136   ar
   103   132   133   ar
   104    24    23    1
   105   136   137   ar
   106   166   165    2
   107    20    19    2
   108   133   135   ar
   109    99    97    1
   110   170   169   ar
   111    23    26    1
   112    23    22    1
   113    92    93    1
   114   168   169    1
   115   168   167    1
   116   137   135   ar
   117   137   138    1
   118   169   171   ar
   119   167   164    1
   120    96    97    1
   121    96    93    1
   122    96    98    1
   123   165   164    1
   124    26    28    1
   125    26    27    1
   126    19    22   am
   127    19    18    1
   128    94    93    1
   129    94    95    2
   130     8     6    1
   131   164   163    1
   132     7     6    1
   133    18    21    1
   134    18    17    1
   135     6     5    1
   136   162   160    1
   137     5     2    1
   138     1     2    1
   139   107   105    1
   140   105   106    1
   141   105   104    1
   142     2     3    1
   143   160   159    1
   144   160   161    1
   145   158   157    2
   146   159   156    1
   147    12    11    2
   148   156   157    1
   149   156   155    1
   150   104   101    1
   151     3     4    2
   152   102   103    2
   153   102   101    1
   154    15    14    1
   155   101   100    1
   156    11    10    1
   157    14    16    1
   158    14    13    1
   159    10    13    1
   160    10     9    1
