@<TRIPOS>MOLECULE
tmp/3ozwA03.pdb
 170 159 0 0 0
SMALL
GASTEIGER

@<TRIPOS>ATOM
      1  N        -29.6190   25.3800  -36.4680 N.3    17  LEU17      -0.1245
      2  CA       -28.5570   26.3630  -36.5760 C.3    17  LEU17       0.1561
      3  C        -27.3080   25.9230  -35.8430 C.2    17  LEU17       0.2260
      4  O        -26.2050   26.0370  -36.3780 O.2    17  LEU17      -0.2867
      5  CB       -29.0240   27.7230  -36.0380 C.3    17  LEU17       0.0270
      6  CG       -29.6710   28.6630  -37.0670 C.3    17  LEU17       0.0019
      7  CD1      -30.7520   28.0170  -37.8510 C.3    17  LEU17       0.0001
      8  CD2      -30.2550   29.9250  -36.3900 C.3    17  LEU17       0.0001
      9  N        -21.3930   30.3170  -31.0930 N.3    57  LEU57      -0.1245
     10  CA       -22.6730   30.3300  -31.8300 C.3    57  LEU57       0.1561
     11  C        -23.6920   29.2720  -31.3180 C.2    57  LEU57       0.2260
     12  O        -24.8490   29.6160  -31.0480 O.2    57  LEU57      -0.2867
     13  CB       -22.4510   30.1760  -33.3360 C.3    57  LEU57       0.0270
     14  CG       -23.7480   30.1340  -34.1770 C.3    57  LEU57       0.0019
     15  CD1      -24.5910   31.3870  -33.8640 C.3    57  LEU57       0.0001
     16  CD2      -23.4540   30.0800  -35.6470 C.3    57  LEU57       0.0001
     17  N        -25.0140   30.2770  -28.0030 N.3    60  ALA60      -0.1231
     18  CA       -25.8610   31.4590  -28.1100 C.3    60  ALA60       0.1694
     19  C        -27.2620   31.0520  -28.6010 C.2    60  ALA60       0.2591
     20  O        -28.2740   31.4030  -27.9920 O.2    60  ALA60      -0.2718
     21  CB       -25.2350   32.4620  -29.0170 C.3    60  ALA60       0.0304
     22  N        -27.3440   30.2460  -29.6560 N.am   61  VAL61      -0.1980
     23  CA       -28.6580   29.9680  -30.2010 C.3    61  VAL61       0.1595
     24  C        -29.4730   29.1240  -29.2420 C.2    61  VAL61       0.2287
     25  O        -30.7020   29.2630  -29.1500 O.2    61  VAL61      -0.2864
     26  CB       -28.6520   29.4120  -31.6800 C.3    61  VAL61       0.0276
     27  CG1      -27.9670   30.3880  -32.6370 C.3    61  VAL61       0.0022
     28  CG2      -28.0560   28.0980  -31.7760 C.3    61  VAL61       0.0022
     29  N        -29.0020   29.0900  -25.8300 N.3    63  ALA63      -0.1231
     30  CA       -29.3400   29.9400  -24.6780 C.3    63  ALA63       0.1694
     31  C        -30.4730   30.9110  -25.0890 C.2    63  ALA63       0.2592
     32  O        -31.4470   31.0710  -24.3410 O.2    63  ALA63      -0.2718
     33  CB       -28.1420   30.7070  -24.2180 C.3    63  ALA63       0.0304
     34  N        -30.3630   31.5170  -26.2720 N.am   64  TYR64      -0.1976
     35  CA       -31.3910   32.4130  -26.7300 C.3    64  TYR64       0.1639
     36  C        -32.7440   31.6870  -26.7540 C.2    64  TYR64       0.2290
     37  O        -33.7590   32.1580  -26.2020 O.2    64  TYR64      -0.2864
     38  CB       -31.0330   33.0020  -28.1040 C.3    64  TYR64       0.0560
     39  CG       -32.1140   33.8910  -28.7030 C.ar   64  TYR64      -0.0198
     40  CD1      -32.5520   35.0270  -28.0360 C.ar   64  TYR64      -0.0009
     41  CD2      -32.7000   33.5730  -29.9330 C.ar   64  TYR64      -0.0009
     42  CE1      -33.5450   35.8220  -28.5680 C.ar   64  TYR64       0.0417
     43  CE2      -33.6870   34.3680  -30.4830 C.ar   64  TYR64       0.0417
     44  CZ       -34.1050   35.4960  -29.8060 C.ar   64  TYR64       0.1957
     45  OH       -35.1060   36.2880  -30.3480 O.3    64  TYR64      -0.2866
     46  N        -34.3740   30.8450  -23.4010 N.3    67  ASN67      -0.1240
     47  CA       -34.6860   32.0110  -22.5810 C.3    67  ASN67       0.1653
     48  C        -35.6400   32.9860  -23.2450 C.2    67  ASN67       0.2266
     49  O        -35.9500   34.0280  -22.6840 O.2    67  ASN67      -0.2867
     50  CB       -33.3890   32.7820  -22.2840 C.3    67  ASN67       0.1155
     51  CG       -32.6410   32.2310  -21.0930 C.2    67  ASN67       0.2627
     52  OD1      -31.9690   32.9860  -20.3760 O.2    67  ASN67      -0.2716
     53  ND2      -32.7520   30.9250  -20.8650 N.am   67  ASN67      -0.0877
     54  N        -33.8930   37.6690  -18.1840 N.3    73  SER73      -0.1202
     55  CA       -32.6750   36.8730  -18.4220 C.3    73  SER73       0.2020
     56  C        -31.9960   37.3020  -19.7140 C.2    73  SER73       0.2618
     57  O        -30.7800   37.4470  -19.7650 O.2    73  SER73      -0.2717
     58  CB       -32.9880   35.3870  -18.4920 C.3    73  SER73       0.2103
     59  OG       -33.0110   34.8270  -17.2000 O.3    73  SER73      -0.2182
     60  N        -32.7920   37.5110  -20.7460 N.am   74  LEU74      -0.1979
     61  CA       -32.2840   38.0100  -21.9970 C.3    74  LEU74       0.1596
     62  C        -31.5990   39.3970  -21.8280 C.2    74  LEU74       0.2287
     63  O        -30.4400   39.5480  -22.2020 O.2    74  LEU74      -0.2864
     64  CB       -33.4170   37.9980  -23.0330 C.3    74  LEU74       0.0297
     65  CG       -33.1880   38.2870  -24.5220 C.3    74  LEU74       0.0022
     66  CD1      -31.9150   37.6090  -25.0550 C.3    74  LEU74       0.0001
     67  CD2      -34.4380   37.9180  -25.3710 C.3    74  LEU74       0.0001
     68  N        -27.7990   39.2350  -20.3010 N.3    77  VAL77      -0.1231
     69  CA       -26.6950   38.8340  -21.2210 C.3    77  VAL77       0.1692
     70  C        -26.4590   39.8500  -22.3580 C.2    77  VAL77       0.2591
     71  O        -25.3200   40.1050  -22.7850 O.2    77  VAL77      -0.2718
     72  CB       -26.8730   37.4180  -21.8120 C.3    77  VAL77       0.0266
     73  CG1      -27.2310   36.4100  -20.6800 C.3    77  VAL77       0.0020
     74  CG2      -27.9270   37.4330  -22.8630 C.3    77  VAL77       0.0020
     75  N        -27.5370   40.4490  -22.8330 N.am   78  LEU78      -0.1980
     76  CA       -27.4370   41.4930  -23.8240 C.3    78  LEU78       0.1596
     77  C        -26.6140   42.6710  -23.2810 C.2    78  LEU78       0.2287
     78  O        -25.9530   43.3640  -24.0600 O.2    78  LEU78      -0.2864
     79  CB       -28.8470   41.9300  -24.2770 C.3    78  LEU78       0.0297
     80  CG       -29.5330   40.8510  -25.1320 C.3    78  LEU78       0.0022
     81  CD1      -30.9700   41.2780  -25.5690 C.3    78  LEU78       0.0001
     82  CD2      -28.6630   40.4550  -26.3750 C.3    78  LEU78       0.0001
     83  N        -22.9870   41.8190  -23.8660 N.3    81  ILE81      -0.1245
     84  CA       -22.6490   41.9550  -25.2820 C.3    81  ILE81       0.1561
     85  C        -22.5730   43.4630  -25.6530 C.2    81  ILE81       0.2260
     86  O        -21.6040   43.9210  -26.2890 O.2    81  ILE81      -0.2867
     87  CB       -23.6660   41.2080  -26.1550 C.3    81  ILE81       0.0252
     88  CG1      -23.6920   39.7240  -25.7540 C.3    81  ILE81       0.0019
     89  CG2      -23.3870   41.4040  -27.6260 C.3    81  ILE81       0.0019
     90  CD1      -24.8200   38.9390  -26.3780 C.3    81  ILE81       0.0001
     91  N        -25.4740   37.2580  -42.3650 N.3   102  LEU102     -0.1231
     92  CA       -25.8630   36.1650  -41.4760 C.3   102  LEU102      0.1693
     93  C        -27.0530   35.3910  -42.0820 C.2   102  LEU102      0.2591
     94  O        -26.9730   34.1740  -42.2780 O.2   102  LEU102     -0.2718
     95  CB       -26.1830   36.7450  -40.0860 C.3   102  LEU102      0.0284
     96  CG       -26.4900   35.8250  -38.9110 C.3   102  LEU102      0.0019
     97  CD1      -25.5150   34.6470  -38.7850 C.3   102  LEU102      0.0001
     98  CD2      -26.4370   36.6910  -37.6180 C.3   102  LEU102      0.0001
     99  N        -28.1360   36.1080  -42.4010 N.am  103  LEU103     -0.1980
    100  CA       -29.3130   35.4850  -43.0470 C.3   103  LEU103      0.1596
    101  C        -28.9700   34.8110  -44.3580 C.2   103  LEU103      0.2287
    102  O        -29.3820   33.7060  -44.5710 O.2   103  LEU103     -0.2864
    103  CB       -30.4310   36.4960  -43.2580 C.3   103  LEU103      0.0297
    104  CG       -30.9700   36.9660  -41.8990 C.3   103  LEU103      0.0022
    105  CD1      -31.8710   38.2270  -42.1200 C.3   103  LEU103      0.0001
    106  CD2      -31.7110   35.8660  -41.1610 C.3   103  LEU103      0.0001
    107  N        -27.2040   31.5990  -43.3470 N.3   106  ILE106     -0.1245
    108  CA       -28.1680   30.6230  -42.8500 C.3   106  ILE106      0.1561
    109  C        -28.9350   30.0010  -44.0060 C.2   106  ILE106      0.2260
    110  O        -29.1160   28.7860  -44.0610 O.2   106  ILE106     -0.2867
    111  CB       -29.1340   31.2850  -41.8260 C.3   106  ILE106      0.0252
    112  CG1      -28.3100   31.7450  -40.6100 C.3   106  ILE106      0.0019
    113  CG2      -30.2900   30.3030  -41.4410 C.3   106  ILE106      0.0019
    114  CD1      -29.0830   32.4310  -39.5000 C.3   106  ILE106      0.0001
    115  N        -35.9500   33.7380  -37.6630 N.3   122  TRP122     -0.1241
    116  CA       -34.6250   34.2000  -37.2200 C.3   122  TRP122      0.1605
    117  C        -34.3230   35.6090  -37.6790 C.2   122  TRP122      0.2264
    118  O        -33.5960   36.3280  -36.9830 O.2   122  TRP122     -0.2867
    119  CB       -33.5250   33.2510  -37.6440 C.3   122  TRP122      0.0550
    120  CG       -33.5850   31.9900  -36.8200 C.ar  122  TRP122      0.0003
    121  CD1      -34.2310   30.8080  -37.1370 C.ar  122  TRP122      0.0946
    122  CD2      -33.0630   31.8140  -35.5060 C.ar  122  TRP122      0.0152
    123  NE1      -34.1120   29.9190  -36.1080 N.ar  122  TRP122     -0.2442
    124  CE2      -33.3900   30.5030  -35.0950 C.ar  122  TRP122      0.0810
    125  CE3      -32.3450   32.6330  -34.6430 C.ar  122  TRP122      0.0012
    126  CZ2      -33.0020   29.9770  -33.8430 C.ar  122  TRP122      0.0191
    127  CZ3      -31.9480   32.1110  -33.4110 C.ar  122  TRP122      0.0001
    128  CH2      -32.2850   30.7870  -33.0210 C.ar  122  TRP122      0.0015
    129  N        -35.9200   37.6700  -35.0740 N.3   125  ALA125     -0.1231
    130  CA       -35.0840   37.5650  -33.8820 C.3   125  ALA125      0.1694
    131  C        -33.8780   38.4710  -34.0380 C.2   125  ALA125      0.2592
    132  O        -33.5280   39.2210  -33.1250 O.2   125  ALA125     -0.2718
    133  CB       -34.6440   36.0950  -33.6140 C.3   125  ALA125      0.0304
    134  N        -33.2290   38.3920  -35.1840 N.am  126  TYR126     -0.1976
    135  CA       -32.0980   39.2430  -35.4290 C.3   126  TYR126      0.1639
    136  C        -32.4700   40.7540  -35.2570 C.2   126  TYR126      0.2290
    137  O        -31.8270   41.4920  -34.5140 O.2   126  TYR126     -0.2864
    138  CB       -31.5280   38.9820  -36.8360 C.3   126  TYR126      0.0560
    139  CG       -30.3320   39.8960  -37.0400 C.ar  126  TYR126     -0.0198
    140  CD1      -29.0570   39.5120  -36.5810 C.ar  126  TYR126     -0.0009
    141  CD2      -30.4900   41.1750  -37.6230 C.ar  126  TYR126     -0.0009
    142  CE1      -27.9310   40.4210  -36.7040 C.ar  126  TYR126      0.0417
    143  CE2      -29.3920   42.0720  -37.7580 C.ar  126  TYR126      0.0417
    144  CZ       -28.1290   41.6950  -37.2680 C.ar  126  TYR126      0.1957
    145  OH       -27.0670   42.5550  -37.3970 O.3   126  TYR126     -0.2866
    146  N        -33.2540   41.7020  -31.4910 N.3   129  LEU129     -0.1245
    147  CA       -31.9810   41.8220  -30.7710 C.3   129  LEU129      0.1561
    148  C        -31.1780   43.0410  -31.1840 C.2   129  LEU129      0.2260
    149  O        -30.5950   43.7180  -30.3330 O.2   129  LEU129     -0.2867
    150  CB       -31.1390   40.5520  -30.9510 C.3   129  LEU129      0.0270
    151  CG       -31.8300   39.3210  -30.3700 C.3   129  LEU129      0.0019
    152  CD1      -31.0420   38.0630  -30.6950 C.3   129  LEU129      0.0001
    153  CD2      -32.0010   39.4460  -28.8610 C.3   129  LEU129      0.0001
    154  N        -19.6610   34.0110  -22.9940 N.3   400  LEU400     -0.1245
    155  CA       -20.5500   32.8560  -23.0070 C.3   400  LEU400      0.1561
    156  C        -19.7440   31.6010  -23.3740 C.2   400  LEU400      0.2260
    157  O        -19.5550   31.3020  -24.5550 O.2   400  LEU400     -0.2867
    158  CB       -21.7310   33.0680  -23.9770 C.3   400  LEU400      0.0270
    159  CG       -22.4940   34.3960  -24.1680 C.3   400  LEU400      0.0019
    160  CD1      -23.8670   34.1080  -24.7620 C.3   400  LEU400      0.0001
    161  CD2      -22.6450   35.2410  -22.8970 C.3   400  LEU400      0.0001
    162  N        -21.4620   29.7380  -18.9490 N.3   403  GLU403     -0.1245
    163  CA       -22.6360   30.4530  -18.4110 C.3   403  GLU403      0.1567
    164  C        -23.3820   29.7140  -17.3020 C.2   403  GLU403      0.2260
    165  O        -24.0480   30.3360  -16.4740 O.2   403  GLU403     -0.2867
    166  CB       -23.6140   30.8230  -19.5400 C.3   403  GLU403      0.0388
    167  CG       -23.0540   31.7920  -20.5760 C.3   403  GLU403      0.1160
    168  CD       -24.0930   32.2500  -21.5920 C.2   403  GLU403      0.3649
    169  OE1      -24.3920   31.4980  -22.5560 O.co2 403  GLU403     -0.2457
    170  OE2      -24.5940   33.3860  -21.4360 O.co2 403  GLU403     -0.2457
@<TRIPOS>BOND
     1   102   101    2
     2   101   100    1
     3   110   109    2
     4   109   108    1
     5   107   108    1
     6   103   100    1
     7   103   104    1
     8   100    99    1
     9   108   111    1
    10    99    93   am
    11    91    92    1
    12    94    93    2
    13   105   104    1
    14    93    92    1
    15   104   106    1
    16   111   113    1
    17   111   112    1
    18    92    95    1
    19   112   114    1
    20    95    96    1
    21    96    97    1
    22    96    98    1
    23     7     6    1
    24   143   141   ar
    25   143   144   ar
    26   117   116    1
    27   117   118    2
    28   115   116    1
    29   119   116    1
    30   119   120    1
    31   141   139   ar
    32   145   144    1
    33   144   142   ar
    34   121   120   ar
    35   121   123   ar
    36     6     8    1
    37     6     5    1
    38   139   138    1
    39   139   140   ar
    40   138   135    1
    41   120   122   ar
    42   142   140   ar
    43     2     1    1
    44     2     5    1
    45     2     3    1
    46     4     3    2
    47   123   124   ar
    48    16    14    1
    49   122   124   ar
    50   122   125   ar
    51   135   136    1
    52   135   134    1
    53   136   137    2
    54   134   131   am
    55   124   126   ar
    56   129   130    1
    57   125   127   ar
    58    14    15    1
    59    14    13    1
    60   131   130    1
    61   131   132    2
    62   130   133    1
    63   126   128   ar
    64   127   128   ar
    65    13    10    1
    66    27    26    1
    67    10    11    1
    68    10     9    1
    69    28    26    1
    70    26    23    1
    71   146   147    1
    72    11    12    2
    73   148   147    1
    74   148   149    2
    75   150   147    1
    76   150   151    1
    77   152   151    1
    78    43    41   ar
    79    43    44   ar
    80   151   153    1
    81    45    44    1
    82    23    22    1
    83    23    24    1
    84    41    39   ar
    85    44    42   ar
    86    22    19   am
    87    24    25    2
    88    21    18    1
    89    39    38    1
    90    39    40   ar
    91    19    18    1
    92    19    20    2
    93    42    40   ar
    94    18    17    1
    95    38    35    1
    96    89    87    1
    97    36    35    1
    98    36    37    2
    99    35    34    1
   100    90    88    1
   101    82    80    1
   102    86    85    2
   103    34    31   am
   104    87    88    1
   105    87    84    1
   106    29    30    1
   107    85    84    1
   108    81    80    1
   109    67    65    1
   110    84    83    1
   111    80    79    1
   112    31    30    1
   113    31    32    2
   114    66    65    1
   115   160   159    1
   116    30    33    1
   117   157   156    2
   118    65    64    1
   119    79    76    1
   120   159   158    1
   121   159   161    1
   122    78    77    2
   123   158   155    1
   124    76    77    1
   125    76    75    1
   126    46    47    1
   127   156   155    1
   128    48    49    2
   129    48    47    1
   130    64    61    1
   131   155   154    1
   132    74    72    1
   133    75    70   am
   134    71    70    2
   135    47    50    1
   136   169   168   ar
   137    70    69    1
   138    50    51    1
   139    63    62    2
   140    61    62    1
   141    61    60    1
   142    72    69    1
   143    72    73    1
   144   168   170   ar
   145   168   167    1
   146    69    68    1
   147    51    53   am
   148    51    52    2
   149    60    56   am
   150   167   166    1
   151    57    56    2
   152    56    55    1
   153   166   163    1
   154   162   163    1
   155    58    55    1
   156    58    59    1
   157    55    54    1
   158   163   164    1
   159   164   165    2
