@<TRIPOS>MOLECULE
tmp/3ozwA02.pdb
 192 186 0 0 0
SMALL
GASTEIGER

@<TRIPOS>ATOM
      1  N        -22.2440   27.8230  -41.2550 N.3    24  ILE24      -0.1231
      2  CA       -22.8590   29.1410  -41.2310 C.3    24  ILE24       0.1692
      3  C        -21.8250   30.1950  -40.8580 C.2    24  ILE24       0.2591
      4  O        -21.7840   31.2750  -41.4430 O.2    24  ILE24      -0.2718
      5  CB       -24.0330   29.2320  -40.2340 C.3    24  ILE24       0.0266
      6  CG1      -25.2190   28.3630  -40.6820 C.3    24  ILE24       0.0019
      7  CG2      -24.4280   30.6310  -40.0280 C.3    24  ILE24       0.0020
      8  CD1      -26.2420   28.1020  -39.5190 C.3    24  ILE24       0.0001
      9  N        -20.9590   29.8860  -39.9040 N.am   25  ILE25      -0.1980
     10  CA       -19.9360   30.8550  -39.5260 C.3    25  ILE25       0.1595
     11  C        -18.9310   31.0960  -40.6600 C.2    25  ILE25       0.2287
     12  O        -18.6250   32.2570  -41.0160 O.2    25  ILE25      -0.2864
     13  CB       -19.2280   30.4780  -38.1870 C.3    25  ILE25       0.0276
     14  CG1      -19.9160   31.2580  -37.0770 C.3    25  ILE25       0.0022
     15  CG2      -17.7470   30.8630  -38.2100 C.3    25  ILE25       0.0022
     16  CD1      -19.8480   30.5600  -35.8190 C.3    25  ILE25       0.0001
     17  N        -20.8610   33.0420  -43.4060 N.3    28  PHE28      -0.1227
     18  CA       -21.1640   34.3730  -42.9350 C.3    28  PHE28       0.1736
     19  C        -19.9710   35.3180  -43.0750 C.2    28  PHE28       0.2595
     20  O        -20.1060   36.3680  -43.6800 O.2    28  PHE28      -0.2718
     21  CB       -21.6970   34.3290  -41.4800 C.3    28  PHE28       0.0547
     22  CG       -21.6440   35.6470  -40.7790 C.ar   28  PHE28      -0.0202
     23  CD1      -22.4560   36.7080  -41.1870 C.ar   28  PHE28      -0.0042
     24  CD2      -20.8000   35.8320  -39.6920 C.ar   28  PHE28      -0.0042
     25  CE1      -22.4110   37.9580  -40.4890 C.ar   28  PHE28      -0.0003
     26  CE2      -20.7440   37.0690  -39.0020 C.ar   28  PHE28      -0.0003
     27  CZ       -21.5280   38.1360  -39.4130 C.ar   28  PHE28      -0.0000
     28  N        -18.8050   34.9420  -42.5460 N.am   29  TYR29      -0.1976
     29  CA       -17.6050   35.7650  -42.6840 C.3    29  TYR29       0.1639
     30  C        -17.1350   35.9010  -44.1440 C.2    29  TYR29       0.2290
     31  O        -16.6660   36.9720  -44.5340 O.2    29  TYR29      -0.2864
     32  CB       -16.4600   35.2500  -41.7980 C.3    29  TYR29       0.0560
     33  CG       -16.6960   35.6030  -40.3480 C.ar   29  TYR29      -0.0198
     34  CD1      -16.8300   34.6120  -39.3710 C.ar   29  TYR29      -0.0009
     35  CD2      -16.8460   36.9390  -39.9640 C.ar   29  TYR29      -0.0009
     36  CE1      -17.0820   34.9290  -38.0620 C.ar   29  TYR29       0.0417
     37  CE2      -17.0950   37.2710  -38.6400 C.ar   29  TYR29       0.0417
     38  CZ       -17.2170   36.2610  -37.7030 C.ar   29  TYR29       0.1957
     39  OH       -17.4630   36.6130  -36.4130 O.3    29  TYR29      -0.2866
     40  N        -13.1510   42.6630  -36.4100 N.3    43  PHE43      -0.1227
     41  CA       -13.1080   41.2370  -36.0050 C.3    43  PHE43       0.1736
     42  C        -11.7080   40.7180  -35.7400 C.2    43  PHE43       0.2595
     43  O        -10.7070   41.2880  -36.2130 O.2    43  PHE43      -0.2718
     44  CB       -13.8590   40.3600  -37.0360 C.3    43  PHE43       0.0547
     45  CG       -15.3430   40.6300  -37.0580 C.ar   43  PHE43      -0.0202
     46  CD1      -16.1980   39.9190  -36.2190 C.ar   43  PHE43      -0.0042
     47  CD2      -15.8710   41.6660  -37.8610 C.ar   43  PHE43      -0.0042
     48  CE1      -17.5960   40.1810  -36.2030 C.ar   43  PHE43      -0.0003
     49  CE2      -17.2440   41.9700  -37.8420 C.ar   43  PHE43      -0.0003
     50  CZ       -18.1230   41.2120  -37.0480 C.ar   43  PHE43      -0.0000
     51  N        -11.6190   39.6600  -34.9340 N.am   44  ASN44      -0.1974
     52  CA       -10.3330   39.0400  -34.6170 C.3    44  ASN44       0.1688
     53  C         -9.9500   38.1380  -35.7950 C.2    44  ASN44       0.2292
     54  O        -10.7250   37.2670  -36.1780 O.2    44  ASN44      -0.2864
     55  CB       -10.4450   38.2360  -33.3030 C.3    44  ASN44       0.1181
     56  CG        -9.1230   37.6880  -32.8300 C.2    44  ASN44       0.2629
     57  OD1       -8.3060   37.2220  -33.6130 O.2    44  ASN44      -0.2716
     58  ND2       -8.8790   37.7950  -31.5270 N.am   44  ASN44      -0.0877
     59  N         -7.7120   35.8840  -35.9350 N.3    46  ALA46      -0.1231
     60  CA        -7.0800   34.6430  -35.4920 C.3    46  ALA46       0.1694
     61  C         -8.1090   33.5090  -35.4800 C.2    46  ALA46       0.2592
     62  O         -7.7240   32.3400  -35.3270 O.2    46  ALA46      -0.2718
     63  CB        -6.4520   34.8140  -34.1480 C.3    46  ALA46       0.0304
     64  N         -9.4030   33.8490  -35.6600 N.am   47  HIS47      -0.1976
     65  CA       -10.4170   32.8850  -36.1920 C.3    47  HIS47       0.1656
     66  C         -9.9070   32.1550  -37.4630 C.2    47  HIS47       0.2291
     67  O        -10.6560   31.3910  -38.1010 O.2    47  HIS47      -0.2864
     68  CB       -11.8000   33.5450  -36.4370 C.3    47  HIS47       0.0771
     69  CG       -11.9900   34.1950  -37.7970 C.ar   47  HIS47       0.0820
     70  ND1      -13.2430   34.4550  -38.3220 N.ar   47  HIS47      -0.2267
     71  CD2      -11.1060   34.6620  -38.7150 C.ar   47  HIS47       0.1154
     72  CE1      -13.1240   35.0390  -39.5000 C.ar   47  HIS47       0.1986
     73  NE2      -11.8370   35.1750  -39.7620 N.ar   47  HIS47      -0.2212
     74  N        -10.4890   28.7060  -36.2830 N.3    50  GLN50      -0.1245
     75  CA       -11.0920   28.5520  -34.9520 C.3    50  GLN50       0.1566
     76  C        -12.6110   28.2180  -34.8220 C.2    50  GLN50       0.2260
     77  O        -13.5060   28.8770  -35.3790 O.2    50  GLN50      -0.2867
     78  CB       -10.5860   29.6310  -33.9810 C.3    50  GLN50       0.0367
     79  CG        -9.5730   29.0480  -32.9810 C.3    50  GLN50       0.0905
     80  CD        -8.2450   29.8190  -32.8500 C.2    50  GLN50       0.2608
     81  OE1       -7.8380   30.1830  -31.7410 O.2    50  GLN50      -0.2717
     82  NE2       -7.5600   30.0390  -33.9760 N.am   50  GLN50      -0.0878
     83  N        -13.8530   28.0740  -31.9090 N.3    52  GLN52      -0.1231
     84  CA       -14.2390   28.8600  -30.7490 C.3    52  GLN52       0.1698
     85  C        -15.5130   29.6070  -31.0720 C.2    52  GLN52       0.2592
     86  O        -16.4300   29.6710  -30.2630 O.2    52  GLN52      -0.2718
     87  CB       -13.1280   29.8570  -30.3570 C.3    52  GLN52       0.0381
     88  CG       -11.7800   29.2380  -29.8920 C.3    52  GLN52       0.0905
     89  CD       -11.8610   28.5830  -28.5130 C.2    52  GLN52       0.2608
     90  OE1      -12.9260   28.0980  -28.1020 O.2    52  GLN52      -0.2717
     91  NE2      -10.7260   28.5400  -27.8000 N.am   52  GLN52      -0.0878
     92  N        -15.5830   30.1400  -32.2860 N.am   53  GLN53      -0.1979
     93  CA       -16.7840   30.8280  -32.7050 C.3    53  GLN53       0.1601
     94  C        -17.9480   29.9110  -32.9740 C.2    53  GLN53       0.2287
     95  O        -19.0650   30.3150  -32.6330 O.2    53  GLN53      -0.2864
     96  CB       -16.5390   31.7170  -33.8910 C.3    53  GLN53       0.0394
     97  CG       -15.6830   32.8220  -33.4670 C.3    53  GLN53       0.0908
     98  CD       -15.4940   33.8630  -34.5140 C.2    53  GLN53       0.2608
     99  OE1      -14.3600   34.1740  -34.8700 O.2    53  GLN53      -0.2717
    100  NE2      -16.5850   34.4490  -34.9820 N.am   53  GLN53      -0.0878
    101  N        -19.3420   29.1310  -29.6220 N.3    56  ALA56      -0.1231
    102  CA       -20.0800   30.2300  -29.0460 C.3    56  ALA56       0.1694
    103  C        -21.4020   30.3860  -29.7720 C.2    56  ALA56       0.2591
    104  O        -22.4330   30.5640  -29.1340 O.2    56  ALA56      -0.2718
    105  CB       -19.2590   31.5340  -29.0800 C.3    56  ALA56       0.0304
    106  N        -21.3930   30.3170  -31.0930 N.am   57  LEU57      -0.1980
    107  CA       -22.6730   30.3300  -31.8300 C.3    57  LEU57       0.1596
    108  C        -23.6920   29.2720  -31.3180 C.2    57  LEU57       0.2287
    109  O        -24.8490   29.6160  -31.0480 O.2    57  LEU57      -0.2864
    110  CB       -22.4510   30.1760  -33.3360 C.3    57  LEU57       0.0297
    111  CG       -23.7480   30.1340  -34.1770 C.3    57  LEU57       0.0022
    112  CD1      -24.5910   31.3870  -33.8640 C.3    57  LEU57       0.0001
    113  CD2      -23.4540   30.0800  -35.6470 C.3    57  LEU57       0.0001
    114  N        -25.0140   30.2770  -28.0030 N.3    60  ALA60      -0.1231
    115  CA       -25.8610   31.4590  -28.1100 C.3    60  ALA60       0.1694
    116  C        -27.2620   31.0520  -28.6010 C.2    60  ALA60       0.2591
    117  O        -28.2740   31.4030  -27.9920 O.2    60  ALA60      -0.2718
    118  CB       -25.2350   32.4620  -29.0170 C.3    60  ALA60       0.0304
    119  N        -27.3440   30.2460  -29.6560 N.am   61  VAL61      -0.1980
    120  CA       -28.6580   29.9680  -30.2010 C.3    61  VAL61       0.1595
    121  C        -29.4730   29.1240  -29.2420 C.2    61  VAL61       0.2287
    122  O        -30.7020   29.2630  -29.1500 O.2    61  VAL61      -0.2864
    123  CB       -28.6520   29.4120  -31.6800 C.3    61  VAL61       0.0276
    124  CG1      -27.9670   30.3880  -32.6370 C.3    61  VAL61       0.0022
    125  CG2      -28.0560   28.0980  -31.7760 C.3    61  VAL61       0.0022
    126  N        -19.4840   45.2420  -27.4480 N.3    85  HIS85      -0.1241
    127  CA       -19.6700   45.8900  -28.7140 C.3    85  HIS85       0.1621
    128  C        -19.2450   47.3730  -28.5610 C.2    85  HIS85       0.2264
    129  O        -18.6610   47.9990  -29.4780 O.2    85  HIS85      -0.2867
    130  CB       -21.1460   45.8370  -29.1480 C.3    85  HIS85       0.0745
    131  CG       -21.5710   44.5820  -29.8720 C.ar   85  HIS85       0.0817
    132  ND1      -22.8860   44.3690  -30.2400 N.ar   85  HIS85      -0.2268
    133  CD2      -20.8780   43.5040  -30.3230 C.ar   85  HIS85       0.1154
    134  CE1      -22.9840   43.2040  -30.8700 C.ar   85  HIS85       0.1986
    135  NE2      -21.7850   42.6570  -30.9330 N.ar   85  HIS85      -0.2212
    136  N        -24.3850   43.0020  -40.9420 N.3    98  VAL98      -0.1245
    137  CA       -24.2910   41.7070  -40.3190 C.3    98  VAL98       0.1561
    138  C        -25.5580   40.9280  -40.5530 C.2    98  VAL98       0.2260
    139  O        -25.5060   39.7080  -40.8360 O.2    98  VAL98      -0.2867
    140  CB       -23.9780   41.8590  -38.7950 C.3    98  VAL98       0.0252
    141  CG1      -24.1760   40.4950  -37.9940 C.3    98  VAL98       0.0019
    142  CG2      -22.5730   42.4180  -38.6480 C.3    98  VAL98       0.0019
    143  N        -25.4740   37.2580  -42.3650 N.3   102  LEU102     -0.1245
    144  CA       -25.8630   36.1650  -41.4760 C.3   102  LEU102      0.1561
    145  C        -27.0530   35.3910  -42.0820 C.2   102  LEU102      0.2260
    146  O        -26.9730   34.1740  -42.2780 O.2   102  LEU102     -0.2867
    147  CB       -26.1830   36.7450  -40.0860 C.3   102  LEU102      0.0270
    148  CG       -26.4900   35.8250  -38.9110 C.3   102  LEU102      0.0019
    149  CD1      -25.5150   34.6470  -38.7850 C.3   102  LEU102      0.0001
    150  CD2      -26.4370   36.6910  -37.6180 C.3   102  LEU102      0.0001
    151  N        -33.2290   38.3920  -35.1840 N.3   126  TYR126     -0.1241
    152  CA       -32.0980   39.2430  -35.4290 C.3   126  TYR126      0.1605
    153  C        -32.4700   40.7540  -35.2570 C.2   126  TYR126      0.2264
    154  O        -31.8270   41.4920  -34.5140 O.2   126  TYR126     -0.2867
    155  CB       -31.5280   38.9820  -36.8360 C.3   126  TYR126      0.0534
    156  CG       -30.3320   39.8960  -37.0400 C.ar  126  TYR126     -0.0201
    157  CD1      -29.0570   39.5120  -36.5810 C.ar  126  TYR126     -0.0009
    158  CD2      -30.4900   41.1750  -37.6230 C.ar  126  TYR126     -0.0009
    159  CE1      -27.9310   40.4210  -36.7040 C.ar  126  TYR126      0.0417
    160  CE2      -29.3920   42.0720  -37.7580 C.ar  126  TYR126      0.0417
    161  CZ       -28.1290   41.6950  -37.2680 C.ar  126  TYR126      0.1957
    162  OH       -27.0670   42.5550  -37.3970 O.3   126  TYR126     -0.2866
    163  N        -33.2540   41.7020  -31.4910 N.3   129  LEU129     -0.1245
    164  CA       -31.9810   41.8220  -30.7710 C.3   129  LEU129      0.1561
    165  C        -31.1780   43.0410  -31.1840 C.2   129  LEU129      0.2260
    166  O        -30.5950   43.7180  -30.3330 O.2   129  LEU129     -0.2867
    167  CB       -31.1390   40.5520  -30.9510 C.3   129  LEU129      0.0270
    168  CG       -31.8300   39.3210  -30.3700 C.3   129  LEU129      0.0019
    169  CD1      -31.0420   38.0630  -30.6950 C.3   129  LEU129      0.0001
    170  CD2      -32.0010   39.4460  -28.8610 C.3   129  LEU129      0.0001
    171  N        -11.6790   35.9370  -20.2860 N.3   396  PHE396     -0.1227
    172  CA       -10.6270   36.4720  -21.1780 C.3   396  PHE396      0.1736
    173  C        -10.7270   35.9420  -22.6330 C.2   396  PHE396      0.2596
    174  O         -9.7340   35.9110  -23.3690 O.2   396  PHE396     -0.2718
    175  CB        -9.2160   36.2560  -20.5840 C.3   396  PHE396      0.0547
    176  CG        -8.8240   37.2620  -19.5090 C.ar  396  PHE396     -0.0202
    177  CD1       -9.7930   38.0680  -18.8710 C.ar  396  PHE396     -0.0042
    178  CD2       -7.4790   37.3790  -19.1090 C.ar  396  PHE396     -0.0042
    179  CE1       -9.4260   39.0080  -17.8540 C.ar  396  PHE396     -0.0003
    180  CE2       -7.0910   38.2960  -18.0860 C.ar  396  PHE396     -0.0003
    181  CZ        -8.0690   39.1140  -17.4600 C.ar  396  PHE396     -0.0000
    182  N        -11.9370   35.5400  -23.0300 N.am  397  GLY397     -0.1943
    183  CA       -12.2400   35.1270  -24.4030 C.3   397  GLY397      0.1998
    184  C        -13.6410   35.5690  -24.8020 C.2   397  GLY397      0.2480
    185  O        -13.8530   36.7420  -25.1170 O.2   397  GLY397     -0.2729
    186  N        -14.6040   34.6270  -24.8130 N.am  398  PRO398     -0.2726
    187  CA       -16.0240   34.9270  -24.9780 C.3   398  PRO398      0.1402
    188  C        -16.8140   34.7330  -23.6790 C.2   398  PRO398      0.2269
    189  O        -16.7410   33.6660  -23.0700 O.2   398  PRO398     -0.2865
    190  CB       -16.4650   33.8980  -26.0210 C.3   398  PRO398      0.0296
    191  CG       -15.4130   32.7860  -25.9690 C.3   398  PRO398      0.0237
    192  CD       -14.3490   33.1870  -24.9900 C.3   398  PRO398      0.0939
@<TRIPOS>BOND
     1    31    30    2
     2    30    29    1
     3    20    19    2
     4    17    18    1
     5    19    18    1
     6    19    28   am
     7    18    21    1
     8    29    28    1
     9    29    32    1
    10   143   144    1
    11   146   145    2
    12   145   144    1
    13    32    33    1
    14    21    22    1
    15   144   147    1
    16     4     3    2
    17     1     2    1
    18     2     3    1
    19     2     5    1
    20    23    22   ar
    21    23    25   ar
    22    12    11    2
    23   136   137    1
    24     3     9   am
    25   139   138    2
    26    22    24   ar
    27     6     5    1
    28     6     8    1
    29    11    10    1
    30   138   137    1
    31    25    27   ar
    32    33    35   ar
    33    33    34   ar
    34   137   140    1
    35     5     7    1
    36   147   148    1
    37    35    37   ar
    38     9    10    1
    39    73    72   ar
    40    73    71   ar
    41    24    26   ar
    42    10    13    1
    43    72    70   ar
    44    27    26   ar
    45    34    36   ar
    46   148   149    1
    47   148   150    1
    48   140   142    1
    49   140   141    1
    50    71    69   ar
    51    37    38   ar
    52    70    69   ar
    53    15    13    1
    54    13    14    1
    55    67    66    2
    56    36    38   ar
    57    47    49   ar
    58    47    45   ar
    59    49    50   ar
    60    69    68    1
    61   160   158   ar
    62   160   161   ar
    63    38    39    1
    64   158   156   ar
    65    66    65    1
    66   162   161    1
    67   161   159   ar
    68    14    16    1
    69    45    44    1
    70    45    46   ar
    71    50    48   ar
    72   156   155    1
    73   156   157   ar
    74    44    41    1
    75   155   152    1
    76   159   157   ar
    77    68    65    1
    78    40    41    1
    79    74    75    1
    80    46    48   ar
    81    43    42    2
    82    65    64    1
    83    54    53    2
    84    41    42    1
    85    59    60    1
    86    53    52    1
    87    42    51   am
    88    64    61   am
    89   113   111    1
    90    60    61    1
    91    60    63    1
    92    61    62    2
    93   152   153    1
    94   152   151    1
    95    77    76    2
    96   153   154    2
    97   100    98   am
    98    75    76    1
    99    75    78    1
   100    51    52    1
   101    99    98    2
   102    52    55    1
   103    98    97    1
   104   111   112    1
   105   111   110    1
   106    78    79    1
   107    82    80   am
   108    96    97    1
   109    96    93    1
   110    57    56    2
   111   110   107    1
   112    55    56    1
   113    79    80    1
   114    94    93    1
   115    94    95    2
   116    80    81    2
   117    56    58   am
   118    93    92    1
   119   124   123    1
   120    92    85   am
   121    83    84    1
   122   107   108    1
   123   107   106    1
   124   125   123    1
   125   123   120    1
   126   163   164    1
   127   108   109    2
   128   165   164    1
   129   165   166    2
   130   106   103   am
   131    85    84    1
   132    85    86    2
   133   167   164    1
   134   167   168    1
   135   135   134   ar
   136   135   133   ar
   137   134   132   ar
   138    84    87    1
   139   169   168    1
   140   168   170    1
   141    87    88    1
   142   133   131   ar
   143   132   131   ar
   144   120   119    1
   145   120   121    1
   146    88    89    1
   147   131   130    1
   148   103   104    2
   149   103   102    1
   150   119   116   am
   151   101   102    1
   152   129   128    2
   153   121   122    2
   154   130   127    1
   155   105   102    1
   156   118   115    1
   157   127   128    1
   158   127   126    1
   159   116   115    1
   160   116   117    2
   161    89    90    2
   162    89    91   am
   163   115   114    1
   164   190   191    1
   165   190   187    1
   166   191   192    1
   167   185   184    2
   168   192   186    1
   169   187   186    1
   170   187   188    1
   171   186   184   am
   172   184   183    1
   173   183   182    1
   174   188   189    2
   175   174   173    2
   176   182   173   am
   177   173   172    1
   178   172   175    1
   179   172   171    1
   180   175   176    1
   181   176   178   ar
   182   176   177   ar
   183   178   180   ar
   184   177   179   ar
   185   180   181   ar
   186   179   181   ar
