@<TRIPOS>MOLECULE
tmp/3ozxB00.pdb
 108 102 0 0 0
SMALL
GASTEIGER

@<TRIPOS>ATOM
      1  N         19.4760   29.6680   52.0100 N.3   268  LEU268     -0.1231
      2  CA        19.6480   29.7370   53.4570 C.3   268  LEU268      0.1693
      3  C         19.0240   31.0460   53.9390 C.2   268  LEU268      0.2592
      4  O         19.4740   32.1200   53.5770 O.2   268  LEU268     -0.2718
      5  CB        21.1380   29.6740   53.7520 C.3   268  LEU268      0.0284
      6  CG        21.7290   29.1210   55.0360 C.3   268  LEU268      0.0019
      7  CD1       21.4210   27.6590   55.2120 C.3   268  LEU268      0.0001
      8  CD2       23.2240   29.3160   54.9870 C.3   268  LEU268      0.0001
      9  N         17.9680   30.9660   54.7310 N.am  269  GLY269     -0.1957
     10  CA        17.2180   32.1620   55.0780 C.3   269  GLY269      0.1869
     11  C         16.5930   32.7940   53.8460 C.2   269  GLY269      0.2309
     12  O         15.8180   32.1580   53.1250 O.2   269  GLY269     -0.2863
     13  N         18.7260   34.0990   51.7140 N.3   271  PHE271     -0.1241
     14  CA        19.8980   34.1000   50.8650 C.3   271  PHE271      0.1605
     15  C         20.0090   32.9390   49.8650 C.2   271  PHE271      0.2264
     16  O         19.7680   31.7720   50.2040 O.2   271  PHE271     -0.2867
     17  CB        21.1440   34.1970   51.7250 C.3   271  PHE271      0.0534
     18  CG        22.4060   34.0590   50.9450 C.ar  271  PHE271     -0.0203
     19  CD1       22.8450   35.1010   50.1250 C.ar  271  PHE271     -0.0042
     20  CD2       23.1440   32.8800   50.9930 C.ar  271  PHE271     -0.0042
     21  CE1       23.9870   34.9550   49.3770 C.ar  271  PHE271     -0.0003
     22  CE2       24.2620   32.7430   50.2380 C.ar  271  PHE271     -0.0003
     23  CZ        24.6770   33.7870   49.4380 C.ar  271  PHE271     -0.0000
     24  N         31.9870   39.8590   51.7300 N.3   292  ASN292     -0.1225
     25  CA        31.2180   39.1910   52.7820 C.3   292  ASN292      0.1785
     26  C         29.7150   39.0920   52.5140 C.2   292  ASN292      0.2598
     27  O         29.1550   39.8880   51.7390 O.2   292  ASN292     -0.2718
     28  CB        31.6020   39.7400   54.1670 C.3   292  ASN292      0.1169
     29  CG        32.9470   39.1450   54.6440 C.2   292  ASN292      0.2627
     30  OD1       33.3350   38.0160   54.2220 O.2   292  ASN292     -0.2716
     31  ND2       33.6810   39.9020   55.4480 N.am  292  ASN292     -0.0877
     32  N         29.1030   38.0670   53.1140 N.am  293  GLY293     -0.1942
     33  CA        27.6730   37.7990   52.9640 C.3   293  GLY293      0.2014
     34  C         27.3120   37.1890   51.6130 C.2   293  GLY293      0.2639
     35  O         26.1350   37.2040   51.2350 O.2   293  GLY293     -0.2714
     36  N         28.3130   36.6640   50.8950 N.am  294  ILE294     -0.1963
     37  CA        28.1040   36.2490   49.5160 C.3   294  ILE294      0.1727
     38  C         27.9640   34.7390   49.4020 C.2   294  ILE294      0.2617
     39  O         27.6150   34.2070   48.3380 O.2   294  ILE294     -0.2715
     40  CB        29.2320   36.8060   48.5900 C.3   294  ILE294      0.0290
     41  CG1       28.6760   37.0850   47.1790 C.3   294  ILE294      0.0022
     42  CG2       30.4610   35.9080   48.5800 C.3   294  ILE294      0.0023
     43  CD1       27.5680   38.1880   47.1750 C.3   294  ILE294      0.0001
     44  N         28.2450   34.0570   50.5190 N.am  295  GLY295     -0.1940
     45  CA        28.1490   32.6300   50.5850 C.3   295  GLY295      0.2014
     46  C         29.4130   31.8160   50.5340 C.2   295  GLY295      0.2639
     47  O         29.3580   30.6190   50.2330 O.2   295  GLY295     -0.2714
     48  N         30.5610   32.4200   50.8370 N.am  296  LYS296     -0.1963
     49  CA        31.8240   31.6560   50.8170 C.3   296  LYS296      0.1728
     50  C         31.7740   30.5440   51.8950 C.2   296  LYS296      0.2617
     51  O         32.0550   29.4160   51.6030 O.2   296  LYS296     -0.2715
     52  CB        33.0740   32.5650   51.0140 C.3   296  LYS296      0.0311
     53  CG        33.2420   33.7010   49.9290 C.3   296  LYS296      0.0038
     54  CD        34.4380   34.6550   50.2080 C.3   296  LYS296      0.0206
     55  CE        34.2590   35.3340   51.6080 C.3   296  LYS296      0.1093
     56  NZ        33.1760   36.4430   51.6510 N.3   296  LYS296     -0.1314
     57  N         31.3450   30.8870   53.1100 N.am  297  THR297     -0.1937
     58  CA        31.2720   29.9600   54.2270 C.3   297  THR297      0.2028
     59  C         30.2070   28.8890   54.0050 C.2   297  THR297      0.2642
     60  O         30.4970   27.6910   54.2660 O.2   297  THR297     -0.2714
     61  CB        31.0670   30.7580   55.5530 C.3   297  THR297      0.1808
     62  OG1       32.2120   31.6300   55.7560 O.3   297  THR297     -0.2208
     63  CG2       30.8030   29.8220   56.8050 C.3   297  THR297      0.0379
     64  N         29.0170   29.3070   53.5000 N.am  298  THR298     -0.1950
     65  CA        27.9670   28.3970   53.1010 C.3   298  THR298      0.1897
     66  C         28.5510   27.3390   52.1780 C.2   298  THR298      0.2313
     67  O         28.3670   26.1510   52.3990 O.2   298  THR298     -0.2863
     68  CB        26.7010   29.1070   52.4620 C.3   298  THR298      0.1794
     69  OG1       26.1050   30.0000   53.4190 O.3   298  THR298     -0.2208
     70  CG2       25.5930   28.0760   52.0580 C.3   298  THR298      0.0378
     71  N         30.7220   24.9820   54.1100 N.3   301  ARG301     -0.1245
     72  CA        29.9560   24.1660   54.9840 C.3   301  ARG301      0.1563
     73  C         29.2770   23.0650   54.1880 C.2   301  ARG301      0.2260
     74  O         29.0630   21.9930   54.7140 O.2   301  ARG301     -0.2867
     75  CB        28.9460   24.9990   55.7560 C.3   301  ARG301      0.0307
     76  CG        29.5640   25.7040   56.9110 C.3   301  ARG301      0.0489
     77  CD        28.6140   26.7070   57.4920 C.3   301  ARG301      0.2205
     78  NE        27.7970   26.1240   58.5510 N.pl3 301  ARG301     -0.0865
     79  CZ        26.4620   26.0770   58.5750 C.cat 301  ARG301      0.5346
     80  NH1       25.7160   26.5710   57.5830 N.pl3 301  ARG301      0.1354
     81  NH2       25.8580   25.5090   59.6090 N.pl3 301  ARG301      0.1354
     82  N         35.7620   29.6630   60.0910 N.3   326  GLN326     -0.1245
     83  CA        35.9080   31.0570   60.1950 C.3   326  GLN326      0.1566
     84  C         35.8880   31.5900   61.6400 C.2   326  GLN326      0.2260
     85  O         36.7890   32.3020   62.0330 O.2   326  GLN326     -0.2867
     86  CB        34.8120   31.7520   59.3970 C.3   326  GLN326      0.0367
     87  CG        34.9520   33.2990   59.4430 C.3   326  GLN326      0.0905
     88  CD        33.9500   33.9510   58.5030 C.2   326  GLN326      0.2608
     89  OE1       33.4440   35.0490   58.7460 O.2   326  GLN326     -0.2717
     90  NE2       33.6810   33.2860   57.4290 N.am  326  GLN326     -0.0878
     91  N         39.1850   31.7670   56.0040 N.3   400  GLN400     -0.1245
     92  CA        39.7410   33.0580   56.4000 C.3   400  GLN400      0.1566
     93  C         40.8710   32.8460   57.4190 C.2   400  GLN400      0.2260
     94  O         40.8210   33.4140   58.5560 O.2   400  GLN400     -0.2867
     95  CB        38.6300   34.0000   56.9610 C.3   400  GLN400      0.0367
     96  CG        37.6240   34.2960   55.8730 C.3   400  GLN400      0.0905
     97  CD        36.5280   35.3310   56.2050 C.2   400  GLN400      0.2608
     98  OE1       36.5300   35.9820   57.2550 O.2   400  GLN400     -0.2717
     99  NE2       35.5950   35.4720   55.2940 N.am  400  GLN400     -0.0878
    100  N         24.0010   39.0520   51.2590 N.3   453  GLU453     -0.1245
    101  CA        22.7700   38.6310   51.9680 C.3   453  GLU453      0.1567
    102  C         21.5770   38.3020   51.0620 C.2   453  GLU453      0.2260
    103  O         20.5030   37.9720   51.5430 O.2   453  GLU453     -0.2867
    104  CB        22.3060   39.6560   53.0390 C.3   453  GLU453      0.0388
    105  CG        23.3790   40.5890   53.6160 C.3   453  GLU453      0.1160
    106  CD        23.2640   40.7280   55.1120 C.2   453  GLU453      0.3649
    107  OE1       22.2680   41.3320   55.6080 O.co2 453  GLU453     -0.2457
    108  OE2       24.1780   40.2070   55.7920 O.co2 453  GLU453     -0.2457
@<TRIPOS>BOND
     1    43    41    1
     2    41    40    1
     3    39    38    2
     4    42    40    1
     5    40    37    1
     6    21    23   ar
     7    21    19   ar
     8    38    37    1
     9    38    44   am
    10    23    22   ar
    11    37    36    1
    12    15    16    2
    13    15    14    1
    14    53    54    1
    15    53    52    1
    16    19    18   ar
    17    54    55    1
    18    47    46    2
    19    22    20   ar
    20    44    45    1
    21    46    45    1
    22    46    48   am
    23    49    48    1
    24    49    52    1
    25    49    50    1
    26    14    13    1
    27    14    17    1
    28    36    34   am
    29    18    20   ar
    30    18    17    1
    31   102   103    2
    32   102   101    1
    33    35    34    2
    34   100   101    1
    35    51    50    2
    36    55    56    1
    37    34    33    1
    38    24    25    1
    39    27    26    2
    40    50    57   am
    41   101   104    1
    42     1     2    1
    43    70    68    1
    44    66    67    2
    45    66    65    1
    46    68    65    1
    47    68    69    1
    48    26    25    1
    49    26    32   am
    50    25    28    1
    51    33    32    1
    52   104   105    1
    53    65    64    1
    54    57    58    1
    55    12    11    2
    56     2     5    1
    57     2     3    1
    58    64    59   am
    59     4     3    2
    60   105   106    1
    61     5     6    1
    62    11    10    1
    63     3     9   am
    64    59    58    1
    65    59    60    2
    66    71    72    1
    67    28    29    1
    68    73    74    2
    69    73    72    1
    70    30    29    2
    71    58    61    1
    72    29    31   am
    73     9    10    1
    74    72    75    1
    75     8     6    1
    76     6     7    1
    77   106   107   ar
    78   106   108   ar
    79    99    97   am
    80    61    62    1
    81    61    63    1
    82    75    76    1
    83    96    97    1
    84    96    95    1
    85    91    92    1
    86    97    98    2
    87    92    95    1
    88    92    93    1
    89    76    77    1
    90    93    94    2
    91    90    88   am
    92    77    78    1
    93    80    79    1
    94    88    89    2
    95    88    87    1
    96    78    79    2
    97    79    81    1
    98    86    87    1
    99    86    83    1
   100    82    83    1
   101    83    84    1
   102    84    85    2
