@<TRIPOS>MOLECULE
tmp/3ozxB01.pdb
 123 119 0 0 0
SMALL
GASTEIGER

@<TRIPOS>ATOM
      1  N         58.3510   51.5020   77.4840 N.3     8  TYR8       -0.1227
      2  CA        57.2200   51.6660   78.3780 C.3     8  TYR8        0.1736
      3  C         57.6420   51.3820   79.7970 C.2     8  TYR8        0.2595
      4  O         57.3300   52.1470   80.6990 O.2     8  TYR8       -0.2718
      5  CB        56.0850   50.7240   77.9950 C.3     8  TYR8        0.0548
      6  CG        55.4480   51.0770   76.6660 C.ar    8  TYR8       -0.0200
      7  CD1       54.4830   52.1020   76.5920 C.ar    8  TYR8       -0.0009
      8  CD2       55.8050   50.4220   75.5050 C.ar    8  TYR8       -0.0009
      9  CE1       53.8800   52.4580   75.4110 C.ar    8  TYR8        0.0417
     10  CE2       55.2140   50.7950   74.2620 C.ar    8  TYR8        0.0417
     11  CZ        54.2520   51.8110   74.2470 C.ar    8  TYR8        0.1957
     12  OH        53.6240   52.1560   73.0780 O.3     8  TYR8       -0.2866
     13  N         58.3350   50.2690   79.9960 N.am    9  LYS9       -0.1980
     14  CA        58.7590   49.9150   81.3580 C.3     9  LYS9        0.1596
     15  C         60.1520   49.3450   81.3580 C.2     9  LYS9        0.2287
     16  O         60.6390   48.8410   80.3200 O.2     9  LYS9       -0.2864
     17  CB        57.7920   48.9060   81.9780 C.3     9  LYS9        0.0298
     18  CG        57.7000   47.5860   81.2400 C.3     9  LYS9        0.0038
     19  CD        56.4670   46.8080   81.6770 C.3     9  LYS9        0.0206
     20  CE        56.6720   45.3130   81.4890 C.3     9  LYS9        0.1093
     21  NZ        55.3630   44.5910   81.3340 N.3     9  LYS9       -0.1314
     22  N         59.3660   45.9630   76.3670 N.3    13  PHE13      -0.1241
     23  CA        59.5680   46.3830   74.9760 C.3    13  PHE13       0.1605
     24  C         60.2610   47.7650   74.8160 C.2    13  PHE13       0.2264
     25  O         59.9000   48.7540   75.4760 O.2    13  PHE13      -0.2867
     26  CB        58.2640   46.3900   74.1930 C.3    13  PHE13       0.0534
     27  CG        58.4130   46.9980   72.8170 C.ar   13  PHE13      -0.0203
     28  CD1       58.8330   46.2000   71.7300 C.ar   13  PHE13      -0.0042
     29  CD2       58.1730   48.3730   72.6160 C.ar   13  PHE13      -0.0042
     30  CE1       58.9980   46.7410   70.4570 C.ar   13  PHE13      -0.0003
     31  CE2       58.3240   48.9490   71.3140 C.ar   13  PHE13      -0.0003
     32  CZ        58.7390   48.1610   70.2480 C.ar   13  PHE13      -0.0000
     33  N         53.5080   41.6840   64.2820 N.3    33  ASN33      -0.1225
     34  CA        52.9560   42.3490   65.4380 C.3    33  ASN33       0.1785
     35  C         53.9480   42.3160   66.6230 C.2    33  ASN33       0.2598
     36  O         54.8500   41.4780   66.6630 O.2    33  ASN33      -0.2718
     37  CB        51.5660   41.8550   65.8000 C.3    33  ASN33       0.1169
     38  CG        50.4640   42.4730   64.9150 C.2    33  ASN33       0.2627
     39  OD1       50.6290   43.5600   64.3100 O.2    33  ASN33      -0.2716
     40  ND2       49.3220   41.7790   64.8400 N.am   33  ASN33      -0.0877
     41  N         53.8680   43.3210   67.5010 N.am   34  GLY34      -0.1942
     42  CA        54.7160   43.3440   68.6960 C.3    34  GLY34       0.2014
     43  C         56.0560   44.0310   68.5770 C.2    34  GLY34       0.2639
     44  O         56.8750   43.9470   69.5150 O.2    34  GLY34      -0.2714
     45  N         56.3090   44.7010   67.4380 N.am   35  VAL35      -0.1963
     46  CA        57.5940   45.3920   67.2520 C.3    35  VAL35       0.1727
     47  C         57.5420   46.9130   67.2870 C.2    35  VAL35       0.2617
     48  O         58.5880   47.6040   67.0920 O.2    35  VAL35      -0.2715
     49  CB        58.3300   44.9510   65.9770 C.3    35  VAL35       0.0290
     50  CG1       58.6830   43.4250   66.1100 C.3    35  VAL35       0.0023
     51  CG2       57.4740   45.2610   64.7540 C.3    35  VAL35       0.0023
     52  N         56.3540   47.4360   67.5560 N.am   36  GLY36      -0.1940
     53  CA        56.2180   48.8890   67.8740 C.3    36  GLY36       0.2014
     54  C         55.5400   49.7450   66.8260 C.2    36  GLY36       0.2639
     55  O         55.6670   51.0070   66.8650 O.2    36  GLY36      -0.2714
     56  N         54.7970   49.1200   65.8940 N.am   37  LYS37      -0.1963
     57  CA        54.0620   49.9250   64.8760 C.3    37  LYS37       0.1728
     58  C         53.1090   50.9700   65.5310 C.2    37  LYS37       0.2617
     59  O         53.1860   52.1840   65.2500 O.2    37  LYS37      -0.2715
     60  CB        53.3080   48.9840   63.9120 C.3    37  LYS37       0.0311
     61  CG        54.3300   48.0520   63.1470 C.3    37  LYS37       0.0038
     62  CD        53.7090   47.3410   61.9670 C.3    37  LYS37       0.0206
     63  CE        52.5110   46.4070   62.4150 C.3    37  LYS37       0.1093
     64  NZ        52.9260   45.5430   63.5870 N.3    37  LYS37      -0.1314
     65  N         52.2130   50.4870   66.3790 N.am   38  THR38      -0.1937
     66  CA        51.2380   51.3480   67.0740 C.3    38  THR38       0.2028
     67  C         51.9950   52.3350   67.9870 C.2    38  THR38       0.2642
     68  O         51.6400   53.5070   68.0510 O.2    38  THR38      -0.2714
     69  CB        50.1580   50.5360   67.7780 C.3    38  THR38       0.1808
     70  OG1       49.3590   49.8370   66.7800 O.3    38  THR38      -0.2208
     71  CG2       49.1980   51.4280   68.6270 C.3    38  THR38       0.0379
     72  N         53.0510   51.8670   68.6500 N.am   39  THR39      -0.1950
     73  CA        53.9030   52.7670   69.4420 C.3    39  THR39       0.1897
     74  C         54.3780   53.9080   68.5710 C.2    39  THR39       0.2313
     75  O         54.1820   55.0400   68.9010 O.2    39  THR39      -0.2863
     76  CB        55.0880   52.0370   70.0730 C.3    39  THR39       0.1794
     77  OG1       54.6110   50.9560   70.8590 O.3    39  THR39      -0.2208
     78  CG2       55.9700   53.0020   70.9740 C.3    39  THR39       0.0378
     79  N         51.7720   56.3870   67.6710 N.3    42  LYS42      -0.1245
     80  CA        51.3400   57.2390   68.7740 C.3    42  LYS42       0.1561
     81  C         52.3920   58.3600   69.0530 C.2    42  LYS42       0.2260
     82  O         52.0260   59.4610   69.4540 O.2    42  LYS42      -0.2867
     83  CB        51.0760   56.4030   70.0150 C.3    42  LYS42       0.0271
     84  CG        49.8900   55.4230   69.8390 C.3    42  LYS42       0.0035
     85  CD        49.7620   54.4210   70.9800 C.3    42  LYS42       0.0206
     86  CE        48.8890   54.9810   72.0770 C.3    42  LYS42       0.1093
     87  NZ        48.7960   54.0920   73.2820 N.3    42  LYS42      -0.1314
     88  N         43.8800   51.3500   65.8680 N.3    92  GLN92      -0.1231
     89  CA        43.8090   49.8890   65.5990 C.3    92  GLN92       0.1698
     90  C         42.5720   49.2110   66.1860 C.2    92  GLN92       0.2592
     91  O         41.9270   48.3800   65.5400 O.2    92  GLN92      -0.2718
     92  CB        45.0720   49.2360   66.1800 C.3    92  GLN92       0.0381
     93  CG        45.0450   47.7410   66.1130 C.3    92  GLN92       0.0905
     94  CD        46.3940   47.1230   66.3340 C.2    92  GLN92       0.2608
     95  OE1       47.4250   47.7810   66.2540 O.2    92  GLN92      -0.2717
     96  NE2       46.3910   45.8540   66.6350 N.am   92  GLN92      -0.0878
     97  N         42.2480   49.5470   67.4320 N.am   93  TYR93      -0.1976
     98  CA        41.2300   48.8030   68.2040 C.3    93  TYR93       0.1639
     99  C         39.8370   49.3490   68.0230 C.2    93  TYR93       0.2290
    100  O         39.3720   50.1300   68.8350 O.2    93  TYR93      -0.2864
    101  CB        41.5980   48.7790   69.7020 C.3    93  TYR93       0.0560
    102  CG        43.0590   48.4450   69.8570 C.ar   93  TYR93      -0.0198
    103  CD1       43.5090   47.1130   69.7860 C.ar   93  TYR93      -0.0009
    104  CD2       43.9980   49.4630   69.9860 C.ar   93  TYR93      -0.0009
    105  CE1       44.8690   46.8200   69.8790 C.ar   93  TYR93       0.0417
    106  CE2       45.3460   49.1820   70.0790 C.ar   93  TYR93       0.0417
    107  CZ        45.7730   47.8690   70.0120 C.ar   93  TYR93       0.1957
    108  OH        47.1130   47.6280   70.1130 O.3    93  TYR93      -0.2866
    109  N         46.1250   49.9430   60.7960 N.3   163  GLN163     -0.1245
    110  CA        45.4790   48.6650   60.3450 C.3   163  GLN163      0.1566
    111  C         44.0320   48.8440   59.8620 C.2   163  GLN163      0.2260
    112  O         43.1270   48.1700   60.3250 O.2   163  GLN163     -0.2867
    113  CB        45.6140   47.4920   61.3560 C.3   163  GLN163      0.0367
    114  CG        47.0490   47.3440   61.8990 C.3   163  GLN163      0.0905
    115  CD        47.2700   46.1240   62.8220 C.2   163  GLN163      0.2608
    116  OE1       46.3760   45.2600   63.0100 O.2   163  GLN163     -0.2717
    117  NE2       48.4620   46.0300   63.3480 N.am  163  GLN163     -0.0878
    118  N         57.4500   41.8870   71.3490 N.3   214  SER214     -0.1217
    119  CA        57.4100   42.1770   72.7720 C.3   214  SER214      0.1889
    120  C         58.7510   42.5970   73.3130 C.2   214  SER214      0.2288
    121  O         58.8280   42.9690   74.4700 O.2   214  SER214     -0.2866
    122  CB        56.9210   40.9620   73.5910 C.3   214  SER214      0.2089
    123  OG        55.5890   40.6840   73.1880 O.3   214  SER214     -0.2183
@<TRIPOS>BOND
     1   111   112    2
     2   111   110    1
     3   110   109    1
     4   110   113    1
     5   113   114    1
     6   114   115    1
     7    62    63    1
     8    62    61    1
     9    63    64    1
    10   115   116    2
    11   115   117   am
    12    61    60    1
    13    60    57    1
    14    33    34    1
    15    39    38    2
    16    51    49    1
    17    40    38   am
    18    57    58    1
    19    57    56    1
    20    38    37    1
    21    59    58    2
    22    34    37    1
    23    34    35    1
    24    58    65   am
    25    91    90    2
    26    89    88    1
    27    89    92    1
    28    89    90    1
    29    56    54   am
    30    49    50    1
    31    49    46    1
    32    93    92    1
    33    93    94    1
    34    90    97   am
    35    95    94    2
    36    94    96   am
    37    65    66    1
    38    35    36    2
    39    35    41   am
    40    70    69    1
    41    54    55    2
    42    54    53    1
    43    66    69    1
    44    66    67    1
    45    48    47    2
    46    46    47    1
    47    46    45    1
    48    47    52   am
    49    97    98    1
    50    45    43   am
    51    41    42    1
    52    52    53    1
    53    79    80    1
    54    69    71    1
    55    67    68    2
    56    67    72   am
    57    99    98    1
    58    99   100    2
    59    98   101    1
    60    74    75    2
    61    74    73    1
    62    43    42    1
    63    43    44    2
    64    72    73    1
    65    80    81    1
    66    80    83    1
    67    81    82    2
    68    73    76    1
    69   101   102    1
    70   103   102   ar
    71   103   105   ar
    72    84    83    1
    73    84    85    1
    74   102   104   ar
    75   105   107   ar
    76   104   106   ar
    77   107   106   ar
    78   107   108    1
    79    76    77    1
    80    76    78    1
    81    32    30   ar
    82    32    31   ar
    83    30    28   ar
    84    85    86    1
    85    31    29   ar
    86   118   119    1
    87    28    27   ar
    88    86    87    1
    89    29    27   ar
    90   119   120    1
    91   119   122    1
    92    27    26    1
    93    12    11    1
    94   123   122    1
    95   120   121    2
    96    26    23    1
    97    11    10   ar
    98    11     9   ar
    99    10     8   ar
   100    24    23    1
   101    24    25    2
   102    23    22    1
   103     9     7   ar
   104     8     6   ar
   105     7     6   ar
   106     6     5    1
   107     1     2    1
   108     5     2    1
   109     2     3    1
   110     3    13   am
   111     3     4    2
   112    13    14    1
   113    16    15    2
   114    18    19    1
   115    18    17    1
   116    21    20    1
   117    14    15    1
   118    14    17    1
   119    20    19    1
