@<TRIPOS>MOLECULE
tmp/3ozyB00.pdb
 146 133 0 0 0
SMALL
GASTEIGER

@<TRIPOS>ATOM
      1  N         24.7660  -21.9810   -8.3680 N.3    24  SER24      -0.1217
      2  CA        23.7240  -21.0380   -7.9760 C.3    24  SER24       0.1889
      3  C         24.3430  -20.1050   -6.9420 C.2    24  SER24       0.2288
      4  O         25.5490  -20.1660   -6.6770 O.2    24  SER24      -0.2866
      5  CB        22.5470  -21.7760   -7.3520 C.3    24  SER24       0.2089
      6  OG        22.9380  -22.3550   -6.1130 O.3    24  SER24      -0.2183
      7  N         24.3080  -20.4240   -3.9290 N.3    26  ALA26      -0.1245
      8  CA        24.8740  -21.2240   -2.8460 C.3    26  ALA26       0.1562
      9  C         26.2990  -21.6930   -3.1380 C.2    26  ALA26       0.2260
     10  O         26.9820  -22.1860   -2.2390 O.2    26  ALA26      -0.2867
     11  CB        23.9810  -22.4140   -2.5460 C.3    26  ALA26       0.0290
     12  N         28.6720  -26.5960   -7.2150 N.3    29  LYS29      -0.1245
     13  CA        28.6660  -27.9300   -6.6140 C.3    29  LYS29       0.1561
     14  C         29.9020  -28.7220   -7.0200 C.2    29  LYS29       0.2260
     15  O         30.3150  -28.6840   -8.1850 O.2    29  LYS29      -0.2867
     16  CB        27.3920  -28.6880   -6.9870 C.3    29  LYS29       0.0271
     17  CG        26.1190  -27.9770   -6.5310 C.3    29  LYS29       0.0035
     18  CD        24.8960  -28.8680   -6.6680 C.3    29  LYS29       0.0206
     19  CE        23.6080  -28.0920   -6.3950 C.3    29  LYS29       0.1093
     20  NZ        23.6440  -27.3980   -5.0840 N.3    29  LYS29      -0.1314
     21  N         24.5090  -28.6090    1.9500 N.3    54  PRO54      -0.2116
     22  CA        25.8870  -28.8100    2.3950 C.3    54  PRO54       0.1372
     23  C         26.1680  -28.2510    3.7950 C.2    54  PRO54       0.2244
     24  O         25.8600  -27.0920    4.0930 O.2    54  PRO54      -0.2868
     25  CB        26.7000  -28.0470    1.3420 C.3    54  PRO54       0.0268
     26  CG        25.7630  -26.9730    0.8690 C.3    54  PRO54       0.0207
     27  CD        24.4070  -27.6120    0.8700 C.3    54  PRO54       0.0892
     28  N         13.8600  -29.6740   -9.8780 N.3   143  SER143     -0.1217
     29  CA        14.7440  -28.7340   -9.1860 C.3   143  SER143      0.1889
     30  C         16.1900  -29.0370   -9.5870 C.2   143  SER143      0.2288
     31  O         16.7100  -30.0760   -9.1920 O.2   143  SER143     -0.2866
     32  CB        14.5700  -28.9210   -7.6720 C.3   143  SER143      0.2089
     33  OG        15.3220  -27.9580   -6.9450 O.3   143  SER143     -0.2183
     34  N         19.7870  -24.4010  -13.7000 N.3   146  TYR146     -0.1241
     35  CA        20.7840  -23.5890  -13.0090 C.3   146  TYR146      0.1605
     36  C         21.3150  -22.4260  -13.8460 C.2   146  TYR146      0.2264
     37  O         20.8090  -22.1590  -14.9410 O.2   146  TYR146     -0.2867
     38  CB        21.9170  -24.4830  -12.4550 C.3   146  TYR146      0.0534
     39  CG        21.5450  -25.1240  -11.1220 C.ar  146  TYR146     -0.0201
     40  CD1       20.6180  -26.1590  -11.0560 C.ar  146  TYR146     -0.0009
     41  CD2       22.1060  -24.6740   -9.9280 C.ar  146  TYR146     -0.0009
     42  CE1       20.2500  -26.7310   -9.8330 C.ar  146  TYR146      0.0417
     43  CE2       21.7530  -25.2420   -8.7080 C.ar  146  TYR146      0.0417
     44  CZ        20.8250  -26.2660   -8.6680 C.ar  146  TYR146      0.1957
     45  OH        20.4620  -26.8400   -7.4620 O.3   146  TYR146     -0.2866
     46  N         11.8570  -25.2860  -11.5430 N.3   170  LYS170     -0.1245
     47  CA        12.4460  -24.1150  -10.8900 C.3   170  LYS170      0.1561
     48  C         13.6960  -23.6550  -11.6300 C.2   170  LYS170      0.2260
     49  O         14.4820  -24.4790  -12.1170 O.2   170  LYS170     -0.2867
     50  CB        12.7650  -24.4280   -9.4190 C.3   170  LYS170      0.0271
     51  CG        13.1660  -23.2060   -8.5760 C.3   170  LYS170      0.0035
     52  CD        12.9730  -23.4900   -7.0820 C.3   170  LYS170      0.0206
     53  CE        14.1220  -24.2940   -6.4810 C.3   170  LYS170      0.1093
     54  NZ        13.8140  -24.6260   -5.0650 N.3   170  LYS170     -0.1314
     55  N         17.1330  -21.1280  -11.3010 N.3   172  LYS172     -0.1245
     56  CA        18.0320  -20.3540  -10.4500 C.3   172  LYS172      0.1561
     57  C         18.3340  -19.0100  -11.0860 C.2   172  LYS172      0.2260
     58  O         18.5840  -18.9310  -12.2940 O.2   172  LYS172     -0.2867
     59  CB        19.3320  -21.1230  -10.2250 C.3   172  LYS172      0.0271
     60  CG        19.1300  -22.4310   -9.5130 C.3   172  LYS172      0.0035
     61  CD        18.7420  -22.2030   -8.0540 C.3   172  LYS172      0.0206
     62  CE        18.7280  -23.5040   -7.2820 C.3   172  LYS172      0.1093
     63  NZ        18.5190  -23.2430   -5.8280 N.3   172  LYS172     -0.1314
     64  N         14.3460  -19.0410   -7.9620 N.3   200  ASP200     -0.1239
     65  CA        15.1010  -19.1490   -6.7130 C.3   200  ASP200      0.1674
     66  C         16.3750  -18.3300   -6.8420 C.2   200  ASP200      0.2266
     67  O         17.2320  -18.6360   -7.6800 O.2   200  ASP200     -0.2867
     68  CB        15.4290  -20.6260   -6.4600 C.3   200  ASP200      0.1410
     69  CG        16.1290  -20.8730   -5.1370 C.2   200  ASP200      0.3668
     70  OD1       16.5970  -19.9150   -4.4910 O.co2 200  ASP200     -0.2456
     71  OD2       16.2140  -22.0580   -4.7490 O.co2 200  ASP200     -0.2456
     72  N         18.5360  -17.6940   -4.2270 N.3   202  ASN202     -0.1240
     73  CA        19.5600  -18.0650   -3.2350 C.3   202  ASN202      0.1653
     74  C         20.1350  -16.8730   -2.4720 C.2   202  ASN202      0.2266
     75  O         21.3490  -16.8020   -2.2540 O.2   202  ASN202     -0.2867
     76  CB        20.7110  -18.8630   -3.8870 C.3   202  ASN202      0.1155
     77  CG        20.3130  -20.2800   -4.2290 C.2   202  ASN202      0.2627
     78  OD1       19.9190  -20.5660   -5.3580 O.2   202  ASN202     -0.2716
     79  ND2       20.4220  -21.1830   -3.2520 N.am  202  ASN202     -0.0877
     80  N         11.7360  -17.5950   -4.5470 N.3   226  GLU226     -0.1245
     81  CA        12.3530  -18.2610   -3.4090 C.3   226  GLU226      0.1567
     82  C         13.6800  -17.6090   -3.0370 C.2   226  GLU226      0.2260
     83  O         14.4690  -17.2430   -3.9200 O.2   226  GLU226     -0.2867
     84  CB        12.5360  -19.7450   -3.7430 C.3   226  GLU226      0.0388
     85  CG        13.4100  -20.5150   -2.7630 C.3   226  GLU226      0.1160
     86  CD        13.4080  -22.0020   -3.0420 C.2   226  GLU226      0.3649
     87  OE1       12.5660  -22.4600   -3.8450 O.co2 226  GLU226     -0.2457
     88  OE2       14.2280  -22.7280   -2.4320 O.co2 226  GLU226     -0.2457
     89  N         14.7940  -22.8720    3.4740 N.3   253  GLU253     -0.1245
     90  CA        15.8560  -23.8650    3.5790 C.3   253  GLU253      0.1567
     91  C         16.9600  -23.4220    4.5400 C.2   253  GLU253      0.2260
     92  O         17.6700  -24.2600    5.1070 O.2   253  GLU253     -0.2867
     93  CB        16.4320  -24.2040    2.2120 C.3   253  GLU253      0.0388
     94  CG        17.3500  -23.1550    1.6390 C.3   253  GLU253      0.1160
     95  CD        17.5580  -23.3410    0.1500 C.2   253  GLU253      0.3649
     96  OE1       18.7170  -23.4050   -0.3030 O.co2 253  GLU253     -0.2457
     97  OE2       16.5510  -23.4400   -0.5650 O.co2 253  GLU253     -0.2457
     98  N         16.4860  -30.2770    7.9660 N.3   279  ARG279     -0.1245
     99  CA        17.2970  -29.1060    8.3140 C.3   279  ARG279      0.1563
    100  C         16.7340  -28.3060    9.4810 C.2   279  ARG279      0.2260
    101  O         17.4820  -27.8500   10.3440 O.2   279  ARG279     -0.2867
    102  CB        17.4170  -28.1570    7.1070 C.3   279  ARG279      0.0307
    103  CG        18.0980  -28.7760    5.8950 C.3   279  ARG279      0.0489
    104  CD        17.9050  -27.9470    4.6270 C.3   279  ARG279      0.2205
    105  NE        18.7150  -26.7310    4.5980 N.pl3 279  ARG279     -0.0865
    106  CZ        19.9740  -26.6960    4.1790 C.cat 279  ARG279      0.5346
    107  NH1       20.5660  -27.8180    3.7880 N.pl3 279  ARG279      0.1354
    108  NH2       20.6440  -25.5490    4.1500 N.pl3 279  ARG279      0.1354
    109  N         11.6710  -27.3400    1.2650 N.3   303  HIS303     -0.1241
    110  CA        12.9320  -27.6500    0.6090 C.3   303  HIS303      0.1621
    111  C         13.2430  -29.1190    0.9180 C.2   303  HIS303      0.2264
    112  O         12.9790  -29.5920    2.0310 O.2   303  HIS303     -0.2867
    113  CB        14.0200  -26.7390    1.1860 C.3   303  HIS303      0.0745
    114  CG        15.4180  -27.0940    0.7770 C.ar  303  HIS303      0.0817
    115  ND1       16.1720  -28.0470    1.4330 N.ar  303  HIS303     -0.2268
    116  CD2       16.2190  -26.5780   -0.1860 C.ar  303  HIS303      0.1154
    117  CE1       17.3700  -28.1150    0.8750 C.ar  303  HIS303      0.1986
    118  NE2       17.4240  -27.2360   -0.1110 N.ar  303  HIS303     -0.2212
    119  N         16.2260  -30.7510   -0.8500 N.3   305  PHE305     -0.1241
    120  CA        17.3660  -30.9870   -1.7420 C.3   305  PHE305      0.1605
    121  C         18.6330  -31.3660   -0.9750 C.2   305  PHE305      0.2264
    122  O         19.2810  -30.5020   -0.3920 O.2   305  PHE305     -0.2867
    123  CB        17.5830  -29.6830   -2.5240 C.3   305  PHE305      0.0534
    124  CG        18.4570  -29.7860   -3.7480 C.ar  305  PHE305     -0.0203
    125  CD1       17.8880  -29.8780   -5.0180 C.ar  305  PHE305     -0.0042
    126  CD2       19.8300  -29.6580   -3.6470 C.ar  305  PHE305     -0.0042
    127  CE1       18.6820  -29.9050   -6.1560 C.ar  305  PHE305     -0.0003
    128  CE2       20.6320  -29.6820   -4.7920 C.ar  305  PHE305     -0.0003
    129  CZ        20.0530  -29.8170   -6.0400 C.ar  305  PHE305     -0.0000
    130  N          9.5640  -30.5190   -4.1290 N.3   328  GLU328     -0.1245
    131  CA        10.8900  -30.3800   -4.7250 C.3   328  GLU328      0.1567
    132  C         11.5390  -31.7220   -5.0390 C.2   328  GLU328      0.2260
    133  O         11.6990  -32.5620   -4.1550 O.2   328  GLU328     -0.2867
    134  CB        11.8100  -29.5750   -3.8020 C.3   328  GLU328      0.0388
    135  CG        13.1830  -29.3710   -4.4120 C.3   328  GLU328      0.1160
    136  CD        14.0420  -28.3640   -3.6770 C.2   328  GLU328      0.3649
    137  OE1       13.9210  -28.2160   -2.4430 O.co2 328  GLU328     -0.2457
    138  OE2       14.8660  -27.7140   -4.3530 O.co2 328  GLU328     -0.2457
    139  N         31.0090  -28.0940   -1.8150 N.3   380  ILE380     -0.1245
    140  CA        30.5460  -26.9510   -2.5930 C.3   380  ILE380      0.1561
    141  C         31.5500  -25.8110   -2.5360 C.2   380  ILE380      0.2260
    142  O         32.2270  -25.6070   -1.5270 O.2   380  ILE380     -0.2867
    143  CB        29.1270  -26.5080   -2.1150 C.3   380  ILE380      0.0252
    144  CG1       28.4570  -25.5540   -3.1080 C.3   380  ILE380      0.0019
    145  CG2       29.1710  -25.9310   -0.6890 C.3   380  ILE380      0.0019
    146  CD1       26.9400  -25.4180   -2.8900 C.3   380  ILE380      0.0001
@<TRIPOS>BOND
     1    37    36    2
     2    36    35    1
     3    34    35    1
     4    35    38    1
     5    38    39    1
     6    58    57    2
     7    49    48    2
     8    48    47    1
     9    46    47    1
    10    55    56    1
    11    39    40   ar
    12    39    41   ar
    13    57    56    1
    14    40    42   ar
    15    47    50    1
    16    56    59    1
    17    59    60    1
    18    41    43   ar
    19    28    29    1
    20    42    44   ar
    21    30    31    2
    22    30    29    1
    23    60    61    1
    24    50    51    1
    25    29    32    1
    26    43    44   ar
    27    44    45    1
    28    51    52    1
    29     1     2    1
    30    15    14    2
    31    61    62    1
    32     2     5    1
    33     2     3    1
    34    64    65    1
    35    67    66    2
    36    32    33    1
    37     5     6    1
    38    62    63    1
    39    12    13    1
    40    52    53    1
    41    14    13    1
    42    16    13    1
    43    16    17    1
    44     3     4    2
    45    66    65    1
    46    65    68    1
    47    18    17    1
    48    18    19    1
    49    53    54    1
    50    68    69    1
    51    19    20    1
    52   127   129   ar
    53   127   125   ar
    54   129   128   ar
    55    78    77    2
    56    69    71   ar
    57    69    70   ar
    58   132   131    1
    59   132   133    2
    60   125   124   ar
    61   128   126   ar
    62   131   130    1
    63   131   134    1
    64    80    81    1
    65   135   134    1
    66   135   136    1
    67   138   136   ar
    68    77    76    1
    69    77    79   am
    70    72    73    1
    71     7     8    1
    72    83    82    2
    73    76    73    1
    74    87    86   ar
    75   124   126   ar
    76   124   123    1
    77    84    81    1
    78    84    85    1
    79   136   137   ar
    80    81    82    1
    81    73    74    1
    82     9     8    1
    83     9    10    2
    84   144   146    1
    85   144   143    1
    86    86    85    1
    87    86    88   ar
    88     8    11    1
    89   140   141    1
    90   140   143    1
    91   140   139    1
    92   141   142    2
    93   123   120    1
    94    74    75    2
    95   143   145    1
    96   120   121    1
    97   120   119    1
    98   121   122    2
    99    97    95   ar
   100    96    95   ar
   101   116   118   ar
   102   116   114   ar
   103   118   117   ar
   104    95    94    1
   105   110   111    1
   106   110   113    1
   107   110   109    1
   108   114   113    1
   109   114   115   ar
   110    26    27    1
   111    26    25    1
   112    27    21    1
   113   117   115   ar
   114   111   112    2
   115    25    22    1
   116    94    93    1
   117    21    22    1
   118    93    90    1
   119    22    23    1
   120    89    90    1
   121    90    91    1
   122   107   106    1
   123    23    24    2
   124   108   106    1
   125   106   105    2
   126    91    92    2
   127   105   104    1
   128   104   103    1
   129   103   102    1
   130   102    99    1
   131    98    99    1
   132    99   100    1
   133   100   101    2
