@<TRIPOS>MOLECULE
tmp/3p0fA00.pdb
 153 144 0 0 0
SMALL
GASTEIGER

@<TRIPOS>ATOM
      1  N          8.7040   -4.5430   48.2940 N.3    95  MET95      -0.1245
      2  CA         9.7470   -5.0050   49.1800 C.3    95  MET95       0.1570
      3  C         10.3800   -6.2870   48.6980 C.2    95  MET95       0.2261
      4  O          9.6850   -7.2630   48.4410 O.2    95  MET95      -0.2867
      5  CB         9.2220   -5.1710   50.6140 C.3    95  MET95       0.0387
      6  CG         9.0840   -3.7640   51.3220 C.3    95  MET95       0.0595
      7  SD         8.5000   -3.9020   53.0140 S.3    95  MET95      -0.1393
      8  CE         7.6860   -2.3230   53.2020 C.3    95  MET95       0.0692
      9  N         18.5910    3.8910   43.6900 N.3   123  ARG123     -0.1245
     10  CA        17.6150    3.3820   44.6640 C.3   123  ARG123      0.1563
     11  C         17.7550    4.2170   45.9310 C.2   123  ARG123      0.2260
     12  O         18.8750    4.4630   46.3870 O.2   123  ARG123     -0.2867
     13  CB        17.9000    1.9040   44.9580 C.3   123  ARG123      0.0307
     14  CG        17.0900    1.4080   46.1170 C.3   123  ARG123      0.0489
     15  CD        17.0800   -0.1170   46.2140 C.3   123  ARG123      0.2205
     16  NE        17.2000   -0.4400   47.6220 N.pl3 123  ARG123     -0.0865
     17  CZ        16.3030   -0.1070   48.5480 C.cat 123  ARG123      0.5346
     18  NH1       15.1630    0.5090   48.2250 N.pl3 123  ARG123      0.1354
     19  NH2       16.5360   -0.4240   49.8010 N.pl3 123  ARG123      0.1354
     20  N         15.3480    3.0210   53.1760 N.3   126  THR126     -0.1203
     21  CA        15.7670    2.8970   54.5710 C.3   126  THR126      0.1994
     22  C         16.5520    1.6100   54.7600 C.2   126  THR126      0.2619
     23  O         16.5820    0.7430   53.8950 O.2   126  THR126     -0.2717
     24  CB        14.5730    2.8310   55.5160 C.3   126  THR126      0.1784
     25  OG1       13.8290    1.6400   55.2390 O.3   126  THR126     -0.2211
     26  CG2       13.7090    4.1020   55.3500 C.3   126  THR126      0.0376
     27  N         17.2080    1.5000   55.9080 N.am  127  SER127     -0.1937
     28  CA        18.0770    0.3530   56.1680 C.3   127  SER127      0.2055
     29  C         18.3570    0.2440   57.6680 C.2   127  SER127      0.2643
     30  O         18.0960    1.1770   58.4230 O.2   127  SER127     -0.2714
     31  CB        19.4340    0.5210   55.4120 C.3   127  SER127      0.2130
     32  OG        20.0970    1.7090   55.8410 O.3   127  SER127     -0.2179
     33  N         18.8710   -0.8970   58.0880 N.am  128  GLY128     -0.1954
     34  CA        19.4300   -0.9810   59.4460 C.3   128  GLY128      0.1869
     35  C         20.9110   -0.6530   59.3970 C.2   128  GLY128      0.2309
     36  O         21.6330   -1.1540   58.5120 O.2   128  GLY128     -0.2863
     37  N         13.7960  -10.2550   56.5680 N.3   198  PHE198     -0.1241
     38  CA        13.9950   -9.0560   57.3770 C.3   198  PHE198      0.1605
     39  C         14.3260   -9.4460   58.8000 C.2   198  PHE198      0.2264
     40  O         14.9300   -8.6390   59.5250 O.2   198  PHE198     -0.2867
     41  CB        12.6860   -8.2570   57.3520 C.3   198  PHE198      0.0534
     42  CG        12.6870   -6.9730   58.1450 C.ar  198  PHE198     -0.0203
     43  CD1       13.0460   -5.7670   57.5430 C.ar  198  PHE198     -0.0042
     44  CD2       12.2510   -6.9460   59.4870 C.ar  198  PHE198     -0.0042
     45  CE1       13.0030   -4.5590   58.2630 C.ar  198  PHE198     -0.0003
     46  CE2       12.1880   -5.7390   60.1920 C.ar  198  PHE198     -0.0003
     47  CZ        12.5740   -4.5340   59.5800 C.ar  198  PHE198     -0.0000
     48  N         18.3490  -10.9760   59.0350 N.3   202  GLN202     -0.1245
     49  CA        19.1270   -9.8370   59.5150 C.3   202  GLN202      0.1566
     50  C         19.5190   -9.9830   60.9950 C.2   202  GLN202      0.2260
     51  O         19.8690   -9.0210   61.6580 O.2   202  GLN202     -0.2867
     52  CB        18.3720   -8.5290   59.2680 C.3   202  GLN202      0.0367
     53  CG        17.9250   -8.4230   57.8060 C.3   202  GLN202      0.0905
     54  CD        17.4030   -7.0450   57.4000 C.2   202  GLN202      0.2608
     55  OE1       17.3110   -6.1160   58.1900 O.2   202  GLN202     -0.2717
     56  NE2       17.0670   -6.9250   56.1270 N.am  202  GLN202     -0.0878
     57  N         17.6580  -10.5980   63.5310 N.3   204  ARG204     -0.1245
     58  CA        16.6700  -10.0870   64.4980 C.3   204  ARG204      0.1563
     59  C         16.2580  -11.1420   65.5460 C.2   204  ARG204      0.2260
     60  O         16.1740  -12.3420   65.2170 O.2   204  ARG204     -0.2867
     61  CB        15.4270   -9.6010   63.7670 C.3   204  ARG204      0.0307
     62  CG        15.6500   -8.2580   63.0740 C.3   204  ARG204      0.0489
     63  CD        14.3230   -7.6220   62.6490 C.3   204  ARG204      0.2205
     64  NE        14.4510   -6.1630   62.6860 N.pl3 204  ARG204     -0.0865
     65  CZ        15.1140   -5.4380   61.7750 C.cat 204  ARG204      0.5346
     66  NH1       15.6630   -6.0120   60.6970 N.pl3 204  ARG204      0.1354
     67  NH2       15.2410   -4.1400   61.9520 N.pl3 204  ARG204      0.1354
     68  N         22.0220   -2.5490   56.1220 N.3   232  ILE232     -0.1231
     69  CA        21.3440   -3.7790   55.7330 C.3   232  ILE232      0.1692
     70  C         19.9750   -3.4080   55.1570 C.2   232  ILE232      0.2592
     71  O         19.1760   -2.6910   55.7830 O.2   232  ILE232     -0.2718
     72  CB        21.1110   -4.6920   56.9280 C.3   232  ILE232      0.0266
     73  CG1       22.4220   -4.8730   57.7670 C.3   232  ILE232      0.0019
     74  CG2       20.5870   -6.0140   56.4210 C.3   232  ILE232      0.0020
     75  CD1       22.2060   -5.6900   59.0110 C.3   232  ILE232      0.0001
     76  N         19.7260   -3.9090   53.9590 N.am  233  GLU233     -0.1966
     77  CA        18.4090   -3.7020   53.3050 C.3   233  GLU233      0.1733
     78  C         18.0610   -4.9170   52.4270 C.2   233  GLU233      0.2616
     79  O         18.5950   -6.0040   52.6650 O.2   233  GLU233     -0.2715
     80  CB        18.3340   -2.3520   52.5930 C.3   233  GLU233      0.0429
     81  CG        19.5120   -2.0660   51.6260 C.3   233  GLU233      0.1163
     82  CD        19.3800   -2.9100   50.3560 C.2   233  GLU233      0.3649
     83  OE1       18.5180   -2.5640   49.5070 O.co2 233  GLU233     -0.2457
     84  OE2       20.0760   -3.9190   50.2580 O.co2 233  GLU233     -0.2457
     85  N         17.1080   -4.7790   51.4990 N.am  234  MET234     -0.1963
     86  CA        16.5400   -5.9770   50.8700 C.3   234  MET234      0.1736
     87  C         16.4690   -5.9590   49.3440 C.2   234  MET234      0.2616
     88  O         15.8500   -6.8420   48.7610 O.2   234  MET234     -0.2715
     89  CB        15.1710   -6.3130   51.4920 C.3   234  MET234      0.0427
     90  CG        15.3230   -6.6860   52.9850 C.3   234  MET234      0.0599
     91  SD        13.7410   -7.0900   53.7560 S.3   234  MET234     -0.1393
     92  CE        13.4350   -8.7040   53.0460 C.3   234  MET234      0.0692
     93  N         17.1270   -4.9880   48.6990 N.am  235  GLU235     -0.1977
     94  CA        17.0640   -4.9340   47.2320 C.3   235  GLU235      0.1602
     95  C         18.3930   -4.7250   46.5020 C.2   235  GLU235      0.2287
     96  O         18.4400   -4.9250   45.2950 O.2   235  GLU235     -0.2864
     97  CB        16.0920   -3.8340   46.7810 C.3   235  GLU235      0.0415
     98  CG        14.6480   -4.0720   47.1110 C.3   235  GLU235      0.1163
     99  CD        14.2290   -3.5310   48.4680 C.2   235  GLU235      0.3649
    100  OE1       14.8430   -2.5510   48.9530 O.co2 235  GLU235     -0.2457
    101  OE2       13.2460   -4.0480   49.0400 O.co2 235  GLU235     -0.2457
    102  N         17.9260    3.6560   60.2410 N.3   257  LEU257     -0.1231
    103  CA        16.8860    4.0490   61.2060 C.3   257  LEU257      0.1693
    104  C         17.1900    3.6400   62.6300 C.2   257  LEU257      0.2591
    105  O         16.4800    4.0260   63.5540 O.2   257  LEU257     -0.2718
    106  CB        15.5120    3.5160   60.8100 C.3   257  LEU257      0.0284
    107  CG        15.0580    3.9380   59.4070 C.3   257  LEU257      0.0019
    108  CD1       13.6730    3.3800   59.1670 C.3   257  LEU257      0.0001
    109  CD2       15.0730    5.4680   59.2420 C.3   257  LEU257      0.0001
    110  N         18.2100    2.8110   62.7890 N.am  258  LEU258     -0.1980
    111  CA        18.5960    2.2910   64.1110 C.3   258  LEU258      0.1596
    112  C         19.9790    1.6970   63.9740 C.2   258  LEU258      0.2287
    113  O         20.4230    1.4190   62.8530 O.2   258  LEU258     -0.2864
    114  CB        17.5910    1.2370   64.6120 C.3   258  LEU258      0.0297
    115  CG        17.5920   -0.1830   64.0120 C.3   258  LEU258      0.0022
    116  CD1       16.4760   -1.0390   64.6420 C.3   258  LEU258      0.0001
    117  CD2       17.4140   -0.1890   62.4790 C.3   258  LEU258      0.0001
    118  N         21.7520   -1.6550   64.6570 N.3   260  ARG260     -0.1245
    119  CA        21.3520   -3.0310   64.9320 C.3   260  ARG260      0.1563
    120  C         22.2080   -3.7050   66.0050 C.2   260  ARG260      0.2260
    121  O         21.8370   -4.7630   66.5240 O.2   260  ARG260     -0.2867
    122  CB        21.3670   -3.8470   63.6310 C.3   260  ARG260      0.0307
    123  CG        20.2790   -3.4210   62.6720 C.3   260  ARG260      0.0489
    124  CD        18.8320   -3.7300   63.2280 C.3   260  ARG260      0.2205
    125  NE        18.7870   -5.0460   63.8750 N.pl3 260  ARG260     -0.0865
    126  CZ        19.0490   -6.2170   63.2620 C.cat 260  ARG260      0.5346
    127  NH1       19.3250   -6.2580   61.9570 N.pl3 260  ARG260      0.1354
    128  NH2       19.0620   -7.3560   63.9420 N.pl3 260  ARG260      0.1354
    129  N         16.4050   -3.9990   67.5450 N.3   264  ASP264     -0.1225
    130  CA        15.7900   -4.4790   66.3230 C.3   264  ASP264      0.1805
    131  C         14.5950   -3.6120   65.9430 C.2   264  ASP264      0.2598
    132  O         14.1950   -3.5450   64.7600 O.2   264  ASP264     -0.2718
    133  CB        15.3320   -5.9400   66.4650 C.3   264  ASP264      0.1424
    134  CG        16.4840   -6.8960   66.7120 C.2   264  ASP264      0.3668
    135  OD1       17.6000   -6.6530   66.1840 O.co2 264  ASP264     -0.2456
    136  OD2       16.2670   -7.9120   67.4050 O.co2 264  ASP264     -0.2456
    137  N         14.0120   -2.9710   66.9500 N.am  265  GLN265     -0.1965
    138  CA        12.8000   -2.1600   66.7570 C.3   265  GLN265      0.1733
    139  C         13.1990   -0.6680   66.8320 C.2   265  GLN265      0.2616
    140  O         14.1400   -0.2890   67.5500 O.2   265  GLN265     -0.2715
    141  CB        11.6600   -2.6250   67.7280 C.3   265  GLN265      0.0408
    142  CG        11.2610   -4.1400   67.4710 C.3   265  GLN265      0.0908
    143  CD         9.8950   -4.6100   68.0260 C.2   265  GLN265      0.2608
    144  OE1        9.2230   -3.8910   68.7990 O.2   265  GLN265     -0.2717
    145  NE2        9.4920   -5.8460   67.6400 N.am  265  GLN265     -0.0878
    146  N         12.5480    0.1700   66.0330 N.am  266  ILE266     -0.1977
    147  CA        12.8580    1.6050   66.0230 C.3   266  ILE266      0.1596
    148  C         12.3150    2.2450   67.2950 C.2   266  ILE266      0.2287
    149  O         11.1720    1.9830   67.6880 O.2   266  ILE266     -0.2864
    150  CB        12.2520    2.2990   64.7880 C.3   266  ILE266      0.0276
    151  CG1       12.9000    1.7800   63.4930 C.3   266  ILE266      0.0022
    152  CG2       12.3530    3.8320   64.8720 C.3   266  ILE266      0.0022
    153  CD1       12.0840    2.1570   62.2760 C.3   266  ILE266      0.0001
@<TRIPOS>BOND
     1     9    10    1
     2    10    13    1
     3    10    11    1
     4    13    14    1
     5    96    95    2
     6    11    12    2
     7    14    15    1
     8    15    16    1
     9    95    94    1
    10    97    98    1
    11    97    94    1
    12    98    99    1
    13    94    93    1
    14    16    17    2
    15    18    17    1
    16     1     2    1
    17     4     3    2
    18    99   100   ar
    19    99   101   ar
    20    17    19    1
    21     3     2    1
    22    93    87   am
    23    88    87    2
    24     2     5    1
    25    87    86    1
    26    83    82   ar
    27    84    82   ar
    28    82    81    1
    29     5     6    1
    30    86    89    1
    31    86    85    1
    32     6     7    1
    33    89    90    1
    34    85    78   am
    35    81    80    1
    36    78    79    2
    37    78    77    1
    38    80    77    1
    39    90    91    1
    40     7     8    1
    41    92    91    1
    42    20    21    1
    43    77    76    1
    44    23    22    2
    45    76    70   am
    46    21    22    1
    47    21    24    1
    48    22    27   am
    49    70    69    1
    50    70    71    2
    51    25    24    1
    52    26    24    1
    53    31    32    1
    54    31    28    1
    55    69    68    1
    56    69    72    1
    57    27    28    1
    58    56    54   am
    59    28    29    1
    60    74    72    1
    61    37    38    1
    62    72    73    1
    63    41    38    1
    64    41    42    1
    65    38    39    1
    66    54    53    1
    67    54    55    2
    68    43    42   ar
    69    43    45   ar
    70    29    33   am
    71    29    30    2
    72    73    75    1
    73    53    52    1
    74    33    34    1
    75    42    44   ar
    76    45    47   ar
    77    36    35    2
    78    39    40    2
    79    48    49    1
    80   108   107    1
    81   109   107    1
    82    52    49    1
    83    35    34    1
    84   107   106    1
    85    44    46   ar
    86    49    50    1
    87    47    46   ar
    88   102   103    1
    89    66    65    1
    90   106   103    1
    91    50    51    2
    92   103   104    1
    93    65    67    1
    94    65    64    2
    95   127   126    1
    96   153   151    1
    97   117   115    1
    98   104   110   am
    99   104   105    2
   100    63    64    1
   101    63    62    1
   102   123   124    1
   103   123   122    1
   104   110   111    1
   105   113   112    2
   106    62    61    1
   107   124   125    1
   108   126   125    2
   109   126   128    1
   110   151   150    1
   111    57    58    1
   112   122   119    1
   113    61    58    1
   114   112   111    1
   115   115   114    1
   116   115   116    1
   117   111   114    1
   118    58    59    1
   119   118   119    1
   120   132   131    2
   121   150   152    1
   122   150   147    1
   123   119   120    1
   124    60    59    2
   125   131   130    1
   126   131   137   am
   127   120   121    2
   128   147   146    1
   129   147   148    1
   130   146   139   am
   131   135   134   ar
   132   130   133    1
   133   130   129    1
   134   133   134    1
   135   134   136   ar
   136   138   139    1
   137   138   137    1
   138   138   141    1
   139   139   140    2
   140   148   149    2
   141   142   141    1
   142   142   143    1
   143   145   143   am
   144   143   144    2
