@<TRIPOS>MOLECULE
tmp/3p0hA00.pdb
 130 127 0 0 0
SMALL
GASTEIGER

@<TRIPOS>ATOM
      1  N         15.8540   67.9100   56.0850 N.3    37  TYR37      -0.1227
      2  CA        15.0830   68.0950   57.3030 C.3    37  TYR37       0.1736
      3  C         15.8070   67.5370   58.5130 C.2    37  TYR37       0.2595
      4  O         16.5300   66.5440   58.4200 O.2    37  TYR37      -0.2718
      5  CB        13.6900   67.4890   57.1350 C.3    37  TYR37       0.0548
      6  CG        13.1960   66.6590   58.2880 C.ar   37  TYR37      -0.0200
      7  CD1       12.5010   67.2310   59.3420 C.ar   37  TYR37      -0.0009
      8  CD2       13.4060   65.2920   58.3090 C.ar   37  TYR37      -0.0009
      9  CE1       12.0370   66.4550   60.3960 C.ar   37  TYR37       0.0417
     10  CE2       12.9550   64.5100   59.3500 C.ar   37  TYR37       0.0417
     11  CZ        12.2670   65.0880   60.3910 C.ar   37  TYR37       0.1957
     12  OH        11.8220   64.2800   61.4200 O.3    37  TYR37      -0.2866
     13  N         15.6360   68.2250   59.6340 N.am   38  ASP38      -0.1960
     14  CA        16.0950   67.7600   60.9300 C.3    38  ASP38       0.1840
     15  C         15.1060   68.3420   61.9350 C.2    38  ASP38       0.2623
     16  O         14.2640   69.1640   61.5690 O.2    38  ASP38      -0.2715
     17  CB        17.5340   68.2240   61.2070 C.3    38  ASP38       0.1450
     18  CG        18.2490   67.3680   62.2630 C.2    38  ASP38       0.3671
     19  OD1       17.5860   66.5710   62.9590 O.co2  38  ASP38      -0.2456
     20  OD2       19.4840   67.4940   62.4070 O.co2  38  ASP38      -0.2456
     21  N         15.1810   67.9040   63.1850 N.am   39  GLY39      -0.1940
     22  CA        14.2430   68.3630   64.2040 C.3    39  GLY39       0.2014
     23  C         14.8330   68.3100   65.5950 C.2    39  GLY39       0.2639
     24  O         15.8480   67.6460   65.8220 O.2    39  GLY39      -0.2714
     25  N         14.2000   69.0250   66.5250 N.am   40  PHE40      -0.1959
     26  CA        14.6570   69.0440   67.9130 C.3    40  PHE40       0.1771
     27  C         13.6150   69.5920   68.8790 C.2    40  PHE40       0.2619
     28  O         12.7700   70.4030   68.4930 O.2    40  PHE40      -0.2715
     29  CB        15.9570   69.8570   68.0410 C.3    40  PHE40       0.0574
     30  CG        15.8400   71.2840   67.5800 C.ar   40  PHE40      -0.0200
     31  CD1       15.5580   72.2990   68.4840 C.ar   40  PHE40      -0.0042
     32  CD2       16.0350   71.6190   66.2470 C.ar   40  PHE40      -0.0042
     33  CE1       15.4560   73.6220   68.0640 C.ar   40  PHE40      -0.0003
     34  CE2       15.9330   72.9420   65.8210 C.ar   40  PHE40      -0.0003
     35  CZ        15.6420   73.9390   66.7350 C.ar   40  PHE40      -0.0000
     36  N         13.6750   69.1150   70.1240 N.am   41  GLU41      -0.1977
     37  CA        13.0190   69.7710   71.2540 C.3    41  GLU41       0.1602
     38  C         14.0460   70.7220   71.8660 C.2    41  GLU41       0.2287
     39  O         15.1570   70.2930   72.1800 O.2    41  GLU41      -0.2864
     40  CB        12.5920   68.7610   72.3290 C.3    41  GLU41       0.0415
     41  CG        11.2970   67.9940   72.0640 C.3    41  GLU41       0.1163
     42  CD        11.0430   66.8850   73.0960 C.2    41  GLU41       0.3649
     43  OE1       11.7630   66.8310   74.1190 O.co2  41  GLU41      -0.2457
     44  OE2       10.1220   66.0610   72.8840 O.co2  41  GLU41      -0.2457
     45  N         12.4280   71.2110   62.0420 N.3    70  TRP70      -0.1241
     46  CA        11.1440   70.9300   62.6680 C.3    70  TRP70       0.1605
     47  C         11.3330   71.1110   64.1690 C.2    70  TRP70       0.2264
     48  O         11.9250   70.2620   64.8430 O.2    70  TRP70      -0.2867
     49  CB        10.6800   69.5170   62.2950 C.3    70  TRP70       0.0550
     50  CG         9.3790   69.0790   62.8890 C.ar   70  TRP70       0.0003
     51  CD1        9.2110   68.1730   63.8910 C.ar   70  TRP70       0.0946
     52  CD2        8.0680   69.5010   62.5070 C.ar   70  TRP70       0.0152
     53  NE1        7.8770   68.0100   64.1650 N.ar   70  TRP70      -0.2442
     54  CE2        7.1520   68.8150   63.3310 C.ar   70  TRP70       0.0810
     55  CE3        7.5760   70.3940   61.5520 C.ar   70  TRP70       0.0012
     56  CZ2        5.7700   68.9940   63.2310 C.ar   70  TRP70       0.0191
     57  CZ3        6.1960   70.5760   61.4530 C.ar   70  TRP70       0.0001
     58  CH2        5.3120   69.8780   62.2890 C.ar   70  TRP70       0.0015
     59  N         10.2420   70.9400   67.6750 N.3    72  ALA72      -0.1245
     60  CA         9.2550   70.0730   68.3250 C.3    72  ALA72       0.1562
     61  C          8.7240   70.6620   69.6340 C.2    72  ALA72       0.2260
     62  O          8.8700   70.0570   70.6960 O.2    72  ALA72      -0.2867
     63  CB         9.8590   68.6980   68.5700 C.3    72  ALA72       0.0290
     64  N          5.2420   69.4870   72.2620 N.3    75  PHE75      -0.1241
     65  CA         5.4020   68.6870   73.4800 C.3    75  PHE75       0.1605
     66  C          5.4280   69.5060   74.7820 C.2    75  PHE75       0.2264
     67  O          5.3530   68.9380   75.8760 O.2    75  PHE75      -0.2867
     68  CB         6.6690   67.8250   73.3890 C.3    75  PHE75       0.0534
     69  CG         6.5970   66.7460   72.3390 C.ar   75  PHE75      -0.0203
     70  CD1        5.7460   65.6580   72.5020 C.ar   75  PHE75      -0.0042
     71  CD2        7.3820   66.8130   71.1940 C.ar   75  PHE75      -0.0042
     72  CE1        5.6730   64.6550   71.5410 C.ar   75  PHE75      -0.0003
     73  CE2        7.3200   65.8120   70.2260 C.ar   75  PHE75      -0.0003
     74  CZ         6.4630   64.7310   70.4020 C.ar   75  PHE75      -0.0000
     75  N          7.2610   61.0750   64.7350 N.3   156  GLN156     -0.1245
     76  CA         8.5150   61.4410   64.0780 C.3   156  GLN156      0.1566
     77  C          8.5200   60.9910   62.6330 C.2   156  GLN156      0.2260
     78  O          8.9530   61.7300   61.7590 O.2   156  GLN156     -0.2867
     79  CB         9.7180   60.8470   64.8130 C.3   156  GLN156      0.0367
     80  CG        11.0550   61.3590   64.3110 C.3   156  GLN156      0.0905
     81  CD        12.2230   60.8910   65.1630 C.2   156  GLN156      0.2608
     82  OE1       12.0830   60.6770   66.3720 O.2   156  GLN156     -0.2717
     83  NE2       13.3870   60.7280   64.5350 N.am  156  GLN156     -0.0878
     84  N          6.2960   63.1570   60.4700 N.3   159  ASP159     -0.1239
     85  CA         6.8960   64.4710   60.2080 C.3   159  ASP159      0.1674
     86  C          7.5800   64.5010   58.8470 C.2   159  ASP159      0.2266
     87  O          7.4690   65.4750   58.1070 O.2   159  ASP159     -0.2867
     88  CB         7.9050   64.8500   61.3030 C.3   159  ASP159      0.1410
     89  CG         7.2670   64.9590   62.6880 C.2   159  ASP159      0.3668
     90  OD1        6.0350   65.1470   62.7780 O.co2 159  ASP159     -0.2456
     91  OD2        7.9970   64.8590   63.6980 O.co2 159  ASP159     -0.2456
     92  N         19.4290   63.7860   59.6680 N.3   170  LEU170     -0.1231
     93  CA        19.4230   63.7150   61.1350 C.3   170  LEU170      0.1693
     94  C         20.6440   62.9490   61.5950 C.2   170  LEU170      0.2592
     95  O         21.4110   62.4550   60.7780 O.2   170  LEU170     -0.2718
     96  CB        18.1700   63.0050   61.6530 C.3   170  LEU170      0.0284
     97  CG        16.8380   63.7030   61.3910 C.3   170  LEU170      0.0019
     98  CD1       16.3900   63.4630   59.9510 C.3   170  LEU170      0.0001
     99  CD2       15.7880   63.2280   62.3830 C.3   170  LEU170      0.0001
    100  N         20.8280   62.8450   62.9050 N.am  171  GLY171     -0.1957
    101  CA        21.9160   62.0470   63.4470 C.3   171  GLY171      0.1869
    102  C         21.7850   60.5780   63.0850 C.2   171  GLY171      0.2309
    103  O         20.7160   60.1030   62.6740 O.2   171  GLY171     -0.2863
    104  N         21.9810   58.3280   65.2680 N.3   173  ASP173     -0.1225
    105  CA        21.2140   57.7200   66.3590 C.3   173  ASP173      0.1805
    106  C         19.7270   57.5920   66.0380 C.2   173  ASP173      0.2597
    107  O         19.0580   56.7240   66.5860 O.2   173  ASP173     -0.2718
    108  CB        21.4120   58.4700   67.6840 C.3   173  ASP173      0.1424
    109  CG        20.9930   59.9230   67.6140 C.2   173  ASP173      0.3668
    110  OD1       20.6710   60.4850   68.6810 O.co2 173  ASP173     -0.2456
    111  OD2       20.9960   60.5080   66.5060 O.co2 173  ASP173     -0.2456
    112  N         19.2240   58.4410   65.1420 N.am  174  GLN174     -0.1979
    113  CA        17.8190   58.3990   64.7220 C.3   174  GLN174      0.1601
    114  C         17.6290   57.5660   63.4500 C.2   174  GLN174      0.2287
    115  O         16.6500   57.7420   62.7170 O.2   174  GLN174     -0.2864
    116  CB        17.2940   59.8210   64.4930 C.3   174  GLN174      0.0394
    117  CG        17.4110   60.7370   65.6970 C.3   174  GLN174      0.0908
    118  CD        16.5770   60.2710   66.8680 C.2   174  GLN174      0.2608
    119  OE1       15.4020   59.9380   66.7140 O.2   174  GLN174     -0.2717
    120  NE2       17.1780   60.2470   68.0510 N.am  174  GLN174     -0.0878
    121  N         24.2820   62.0640   59.8700 N.3   198  HIS198     -0.1241
    122  CA        25.5500   62.6780   60.2610 C.3   198  HIS198      0.1621
    123  C         26.1960   61.9850   61.4630 C.2   198  HIS198      0.2264
    124  O         25.5530   61.2370   62.1990 O.2   198  HIS198     -0.2867
    125  CB        25.3880   64.1870   60.5070 C.3   198  HIS198      0.0745
    126  CG        24.5010   64.5400   61.6610 C.ar  198  HIS198      0.0817
    127  ND1       24.8950   64.4000   62.9750 N.ar  198  HIS198     -0.2268
    128  CD2       23.2540   65.0670   61.6980 C.ar  198  HIS198      0.1154
    129  CE1       23.9190   64.8020   63.7720 C.ar  198  HIS198      0.1986
    130  NE2       22.9110   65.2100   63.0210 N.ar  198  HIS198     -0.2212
@<TRIPOS>BOND
     1     1     2    1
     2     5     2    1
     3     5     6    1
     4     2     3    1
     5    87    86    2
     6     6     8   ar
     7     6     7   ar
     8     8    10   ar
     9     4     3    2
    10     3    13   am
    11    86    85    1
    12     7     9   ar
    13    10    11   ar
    14    13    14    1
    15    92    93    1
    16   121   122    1
    17    98    97    1
    18    85    84    1
    19    85    88    1
    20   122   125    1
    21   122   123    1
    22    11     9   ar
    23    11    12    1
    24   125   126    1
    25    95    94    2
    26    14    17    1
    27    14    15    1
    28    93    94    1
    29    93    96    1
    30    17    18    1
    31    88    89    1
    32    97    96    1
    33    97    99    1
    34    57    55   ar
    35    57    58   ar
    36   123   124    2
    37    55    52   ar
    38    16    15    2
    39    94   100   am
    40   126   128   ar
    41   126   127   ar
    42   128   130   ar
    43    78    77    2
    44    15    21   am
    45    45    46    1
    46    18    20   ar
    47    18    19   ar
    48    58    56   ar
    49    49    46    1
    50    49    50    1
    51    52    50   ar
    52    52    54   ar
    53    77    76    1
    54    46    47    1
    55   103   102    2
    56    89    90   ar
    57    89    91   ar
    58   115   114    2
    59    50    51   ar
    60   100   101    1
    61   127   129   ar
    62   130   129   ar
    63   102   101    1
    64    21    22    1
    65    56    54   ar
    66    54    53   ar
    67   114   113    1
    68    51    53   ar
    69    76    75    1
    70    76    79    1
    71    47    48    2
    72    22    23    1
    73    80    79    1
    74    80    81    1
    75   116   113    1
    76   116   117    1
    77    83    81   am
    78   113   112    1
    79   112   106   am
    80    81    82    2
    81   104   105    1
    82    23    24    2
    83    23    25   am
    84   117   118    1
    85    34    32   ar
    86    34    35   ar
    87   106   105    1
    88   106   107    2
    89    32    30   ar
    90   105   108    1
    91   111   109   ar
    92    25    26    1
    93   119   118    2
    94    35    33   ar
    95   118   120   am
    96    30    29    1
    97    30    31   ar
    98   109   108    1
    99   109   110   ar
   100    59    60    1
   101    26    29    1
   102    26    27    1
   103    33    31   ar
   104    60    63    1
   105    60    61    1
   106    28    27    2
   107    27    36   am
   108    61    62    2
   109    36    37    1
   110    73    74   ar
   111    73    71   ar
   112    74    72   ar
   113    71    69   ar
   114    37    38    1
   115    37    40    1
   116    72    70   ar
   117    38    39    2
   118    41    40    1
   119    41    42    1
   120    64    65    1
   121    69    70   ar
   122    69    68    1
   123    44    42   ar
   124    42    43   ar
   125    68    65    1
   126    65    66    1
   127    66    67    2
