@<TRIPOS>MOLECULE
tmp/3p0iB00.pdb
 120 115 0 0 0
SMALL
GASTEIGER

@<TRIPOS>ATOM
      1  N          4.6440   81.6500   44.0630 N.3    37  TYR37      -0.1241
      2  CA         5.7740   82.0560   43.2520 C.3    37  TYR37       0.1605
      3  C          5.4360   83.2830   42.4280 C.2    37  TYR37       0.2264
      4  O          4.2690   83.5270   42.0980 O.2    37  TYR37      -0.2867
      5  CB         6.2420   80.8990   42.3770 C.3    37  TYR37       0.0534
      6  CG         6.2170   81.1360   40.8850 C.ar   37  TYR37      -0.0201
      7  CD1        7.3140   81.6460   40.2130 C.ar   37  TYR37      -0.0009
      8  CD2        5.1040   80.8150   40.1450 C.ar   37  TYR37      -0.0009
      9  CE1        7.2870   81.8360   38.8450 C.ar   37  TYR37       0.0417
     10  CE2        5.0690   81.0030   38.7850 C.ar   37  TYR37       0.0417
     11  CZ         6.1590   81.5090   38.1390 C.ar   37  TYR37       0.1957
     12  OH         6.0960   81.6930   36.7830 O.3    37  TYR37      -0.2866
     13  N          7.8330   86.1040   39.4980 N.3    39  GLY39      -0.1210
     14  CA         9.1170   86.3000   38.8360 C.3    39  GLY39       0.1956
     15  C          9.2180   87.6880   38.2630 C.2    39  GLY39       0.2612
     16  O          8.2170   88.3660   38.1100 O.2    39  GLY39      -0.2717
     17  N         10.4290   88.1210   37.9560 N.am   40  PHE40      -0.1962
     18  CA        10.6030   89.4310   37.3820 C.3    40  PHE40       0.1771
     19  C         11.8440   89.5450   36.4850 C.2    40  PHE40       0.2619
     20  O         12.8580   88.8570   36.6720 O.2    40  PHE40      -0.2715
     21  CB        10.6160   90.4830   38.4910 C.3    40  PHE40       0.0574
     22  CG        11.6540   90.2470   39.5440 C.ar   40  PHE40      -0.0200
     23  CD1       12.9090   90.8350   39.4390 C.ar   40  PHE40      -0.0042
     24  CD2       11.3810   89.4590   40.6430 C.ar   40  PHE40      -0.0042
     25  CE1       13.8720   90.6250   40.3940 C.ar   40  PHE40      -0.0003
     26  CE2       12.3400   89.2550   41.6070 C.ar   40  PHE40      -0.0003
     27  CZ        13.5950   89.8340   41.4760 C.ar   40  PHE40      -0.0000
     28  N         11.7120   90.4060   35.4770 N.am   41  GLU41      -0.1977
     29  CA        12.8190   90.8170   34.6200 C.3    41  GLU41       0.1602
     30  C         13.4480   92.0230   35.3270 C.2    41  GLU41       0.2287
     31  O         12.7730   93.0480   35.5060 O.2    41  GLU41      -0.2864
     32  CB        12.2830   91.2820   33.2490 C.3    41  GLU41       0.0415
     33  CG        11.3800   90.2950   32.4560 C.3    41  GLU41       0.1163
     34  CD        10.6500   90.9560   31.2510 C.2    41  GLU41       0.3649
     35  OE1       11.1770   91.9490   30.6670 O.co2  41  GLU41      -0.2457
     36  OE2        9.5460   90.4740   30.8940 O.co2  41  GLU41      -0.2457
     37  N         11.4250   83.9580   41.2860 N.3    70  TRP70      -0.1241
     38  CA        12.1960   83.5170   40.1350 C.3    70  TRP70       0.1605
     39  C         12.8380   84.7530   39.5480 C.2    70  TRP70       0.2264
     40  O         12.1660   85.5080   38.8600 O.2    70  TRP70      -0.2867
     41  CB        11.2360   82.8890   39.1320 C.3    70  TRP70       0.0550
     42  CG        11.8230   82.2840   37.9350 C.ar   70  TRP70       0.0003
     43  CD1       11.6160   82.6650   36.6600 C.ar   70  TRP70       0.0946
     44  CD2       12.6630   81.1430   37.8830 C.ar   70  TRP70       0.0152
     45  NE1       12.2930   81.8440   35.8030 N.ar   70  TRP70      -0.2442
     46  CE2       12.9500   80.8990   36.5350 C.ar   70  TRP70       0.0810
     47  CE3       13.2180   80.3080   38.8490 C.ar   70  TRP70       0.0012
     48  CZ2       13.7680   79.8580   36.1230 C.ar   70  TRP70       0.0191
     49  CZ3       14.0270   79.2730   38.4410 C.ar   70  TRP70       0.0001
     50  CH2       14.2940   79.0550   37.0900 C.ar   70  TRP70       0.0015
     51  N         14.3360   86.3640   36.9780 N.3    72  ALA72      -0.1245
     52  CA        14.3320   85.9000   35.6040 C.3    72  ALA72       0.1562
     53  C         15.2960   86.6800   34.7370 C.2    72  ALA72       0.2260
     54  O         14.8650   87.4940   33.9330 O.2    72  ALA72      -0.2867
     55  CB        12.9200   86.0230   35.0400 C.3    72  ALA72       0.0290
     56  N         14.6900   86.1000   30.8000 N.3    75  PHE75      -0.1241
     57  CA        13.3660   86.5750   30.3700 C.3    75  PHE75       0.1605
     58  C         13.3720   88.1000   30.0900 C.2    75  PHE75       0.2264
     59  O         12.7730   88.5690   29.1100 O.2    75  PHE75      -0.2867
     60  CB        12.2970   86.2070   31.4220 C.3    75  PHE75       0.0534
     61  CG        12.0470   84.7090   31.5500 C.ar   75  PHE75      -0.0203
     62  CD1       10.9130   84.1390   31.0000 C.ar   75  PHE75      -0.0042
     63  CD2       12.9650   83.8740   32.2210 C.ar   75  PHE75      -0.0042
     64  CE1       10.6870   82.7830   31.1210 C.ar   75  PHE75      -0.0003
     65  CE2       12.7410   82.5060   32.3430 C.ar   75  PHE75      -0.0003
     66  CZ        11.6010   81.9610   31.7980 C.ar   75  PHE75      -0.0000
     67  N          1.9130   89.3760   28.4440 N.3   144  ILE144     -0.1245
     68  CA         2.7090   89.1260   29.6600 C.3   144  ILE144      0.1561
     69  C          4.0700   89.8460   29.5380 C.2   144  ILE144      0.2260
     70  O          4.7240   90.1690   30.5340 O.2   144  ILE144     -0.2867
     71  CB         2.8800   87.5910   29.9450 C.3   144  ILE144      0.0252
     72  CG1        4.0620   86.9860   29.1650 C.3   144  ILE144      0.0019
     73  CG2        1.5820   86.8480   29.6370 C.3   144  ILE144      0.0019
     74  CD1        4.5050   85.6250   29.6790 C.3   144  ILE144      0.0001
     75  N          9.3550   82.7310   24.9890 N.3   158  TYR158     -0.1241
     76  CA         9.2700   83.3400   26.3310 C.3   158  TYR158      0.1605
     77  C          8.0920   82.7720   27.1310 C.2   158  TYR158      0.2264
     78  O          8.2340   82.4360   28.3120 O.2   158  TYR158     -0.2867
     79  CB         9.1880   84.8800   26.1950 C.3   158  TYR158      0.0534
     80  CG         9.1150   85.7000   27.4760 C.ar  158  TYR158     -0.0201
     81  CD1       10.0850   86.6470   27.7620 C.ar  158  TYR158     -0.0009
     82  CD2        8.0660   85.5670   28.3670 C.ar  158  TYR158     -0.0009
     83  CE1       10.0230   87.4080   28.8990 C.ar  158  TYR158      0.0417
     84  CE2        8.0110   86.3220   29.5060 C.ar  158  TYR158      0.0417
     85  CZ         8.9940   87.2390   29.7630 C.ar  158  TYR158      0.1957
     86  OH         8.9590   88.0060   30.8920 O.3   158  TYR158     -0.2866
     87  N          8.0590   80.5090   30.4940 N.3   161  GLN161     -0.1245
     88  CA         7.4200   80.9840   31.7080 C.3   161  GLN161      0.1566
     89  C          6.4510   79.9450   32.2020 C.2   161  GLN161      0.2260
     90  O          6.3610   79.7040   33.3960 O.2   161  GLN161     -0.2867
     91  CB         6.6960   82.3100   31.4970 C.3   161  GLN161      0.0367
     92  CG         5.9900   82.7860   32.7590 C.3   161  GLN161      0.0905
     93  CD         5.6950   84.2690   32.7780 C.2   161  GLN161      0.2608
     94  OE1        6.2940   85.0550   32.0430 O.2   161  GLN161     -0.2717
     95  NE2        4.7670   84.6600   33.6450 N.am  161  GLN161     -0.0878
     96  N          8.3810   77.2390   33.9870 N.3   164  ASP164     -0.1239
     97  CA         8.8210   77.6580   35.3240 C.3   164  ASP164      0.1674
     98  C          7.8320   77.2610   36.4200 C.2   164  ASP164      0.2266
     99  O          8.2280   76.9150   37.5280 O.2   164  ASP164     -0.2867
    100  CB         9.0130   79.1810   35.3660 C.3   164  ASP164      0.1410
    101  CG        10.1290   79.6750   34.4410 C.2   164  ASP164      0.3668
    102  OD1       10.8810   78.8560   33.9070 O.co2 164  ASP164     -0.2456
    103  OD2       10.2630   80.8920   34.2470 O.co2 164  ASP164     -0.2456
    104  N          1.2950   86.1990   40.5850 N.3   175  LEU175     -0.1245
    105  CA         1.8310   87.2500   39.7290 C.3   175  LEU175      0.1561
    106  C          0.7130   88.2250   39.3900 C.2   175  LEU175      0.2260
    107  O         -0.4370   88.0130   39.7460 O.2   175  LEU175     -0.2867
    108  CB         2.4290   86.6840   38.4400 C.3   175  LEU175      0.0270
    109  CG         3.2380   85.4020   38.5590 C.3   175  LEU175      0.0019
    110  CD1        2.2890   84.2340   38.5570 C.3   175  LEU175      0.0001
    111  CD2        4.2320   85.2640   37.4220 C.3   175  LEU175      0.0001
    112  N         -0.1310   88.5670   33.5680 N.3   179  GLN179     -0.1245
    113  CA         0.4520   87.2480   33.3260 C.3   179  GLN179      0.1566
    114  C         -0.6150   86.1450   33.2060 C.2   179  GLN179      0.2260
    115  O         -0.3220   85.0060   32.8240 O.2   179  GLN179     -0.2867
    116  CB         1.4730   86.9230   34.4430 C.3   179  GLN179      0.0367
    117  CG         2.5360   88.0010   34.6650 C.3   179  GLN179      0.0905
    118  CD         3.2870   88.3440   33.3780 C.2   179  GLN179      0.2608
    119  OE1        3.9450   87.4930   32.7770 O.2   179  GLN179     -0.2717
    120  NE2        3.1770   89.5910   32.9470 N.am  179  GLN179     -0.0878
@<TRIPOS>BOND
     1    75    76    1
     2    79    76    1
     3    79    80    1
     4    76    77    1
     5    77    78    2
     6    80    81   ar
     7    80    82   ar
     8    81    83   ar
     9    82    84   ar
    10    67    68    1
    11    83    85   ar
    12    59    58    2
    13    72    74    1
    14    72    71    1
    15    84    85   ar
    16    69    68    1
    17    69    70    2
    18    73    71    1
    19    68    71    1
    20    85    86    1
    21    58    57    1
    22    57    56    1
    23    57    60    1
    24    87    88    1
    25    35    34   ar
    26    36    34   ar
    27    62    64   ar
    28    62    61   ar
    29    64    66   ar
    30    34    33    1
    31    60    61    1
    32    91    88    1
    33    91    92    1
    34    61    63   ar
    35    88    89    1
    36    66    65   ar
    37    94    93    2
    38    89    90    2
    39    63    65   ar
    40    33    32    1
    41    92    93    1
    42   119   118    2
    43    93    95   am
    44   115   114    2
    45   120   118   am
    46   114   113    1
    47    32    29    1
    48   113   112    1
    49   113   116    1
    50   118   117    1
    51   102   101   ar
    52    54    53    2
    53    96    97    1
    54   103   101   ar
    55   101   100    1
    56   116   117    1
    57    29    30    1
    58    29    28    1
    59    53    52    1
    60    55    52    1
    61    97   100    1
    62    97    98    1
    63    30    31    2
    64    28    19   am
    65    52    51    1
    66    45    46   ar
    67    45    43   ar
    68    48    46   ar
    69    48    50   ar
    70    98    99    2
    71    19    20    2
    72    19    18    1
    73    46    44   ar
    74    43    42   ar
    75    12    11    1
    76    50    49   ar
    77    18    17    1
    78    18    21    1
    79   111   109    1
    80    44    42   ar
    81    44    47   ar
    82    42    41    1
    83    17    15   am
    84    16    15    2
    85    11    10   ar
    86    11     9   ar
    87    15    14    1
    88   108   109    1
    89   108   105    1
    90    49    47   ar
    91    21    22    1
    92   110   109    1
    93    10     8   ar
    94    14    13    1
    95     9     7   ar
    96    40    39    2
    97    41    38    1
    98   106   105    1
    99   106   107    2
   100    23    22   ar
   101    23    25   ar
   102    22    24   ar
   103    39    38    1
   104   105   104    1
   105    38    37    1
   106     8     6   ar
   107     7     6   ar
   108    25    27   ar
   109    24    26   ar
   110     6     5    1
   111    27    26   ar
   112     4     3    2
   113     5     2    1
   114     3     2    1
   115     2     1    1
