@<TRIPOS>MOLECULE
tmp/3p0jD00.pdb
 120 115 0 0 0
SMALL
GASTEIGER

@<TRIPOS>ATOM
      1  N          9.9760   15.9350    5.0800 N.3    38  TYR38      -0.1241
      2  CA        11.0100   16.6770    5.7810 C.3    38  TYR38       0.1605
      3  C         10.4330   17.9640    6.3460 C.2    38  TYR38       0.2264
      4  O          9.5040   18.5520    5.7790 O.2    38  TYR38      -0.2867
      5  CB        12.2360   16.9360    4.8860 C.3    38  TYR38       0.0534
      6  CG        12.4450   18.3800    4.4940 C.ar   38  TYR38      -0.0201
      7  CD1       13.4150   19.1620    5.1170 C.ar   38  TYR38      -0.0009
      8  CD2       11.6720   18.9650    3.4980 C.ar   38  TYR38      -0.0009
      9  CE1       13.6080   20.4950    4.7520 C.ar   38  TYR38       0.0417
     10  CE2       11.8500   20.2880    3.1320 C.ar   38  TYR38       0.0417
     11  CZ        12.8150   21.0510    3.7580 C.ar   38  TYR38       0.1957
     12  OH        12.9710   22.3650    3.3770 O.3    38  TYR38      -0.2866
     13  N         12.1180   21.4740    8.7470 N.3    40  GLY40      -0.1210
     14  CA        13.3550   22.0970    9.1740 C.3    40  GLY40       0.1956
     15  C         13.0940   23.2410   10.1190 C.2    40  GLY40       0.2612
     16  O         12.0260   23.8500   10.0960 O.2    40  GLY40      -0.2717
     17  N         14.0820   23.5270   10.9570 N.am   41  PHE41      -0.1962
     18  CA        13.9450   24.5540   11.9780 C.3    41  PHE41       0.1771
     19  C         15.3100   25.0280   12.4630 C.2    41  PHE41       0.2619
     20  O         16.2770   24.2580   12.5130 O.2    41  PHE41      -0.2715
     21  CB        13.1140   24.0280   13.1540 C.3    41  PHE41       0.0574
     22  CG        13.5830   22.7050   13.6720 C.ar   41  PHE41      -0.0200
     23  CD1       14.4190   22.6330   14.7880 C.ar   41  PHE41      -0.0042
     24  CD2       13.2130   21.5280   13.0350 C.ar   41  PHE41      -0.0042
     25  CE1       14.8660   21.4050   15.2680 C.ar   41  PHE41      -0.0003
     26  CE2       13.6590   20.3070   13.5010 C.ar   41  PHE41      -0.0003
     27  CZ        14.4890   20.2410   14.6160 C.ar   41  PHE41      -0.0000
     28  N         15.3550   26.3080   12.8210 N.am   42  GLU42      -0.1977
     29  CA        16.5580   26.9570   13.3270 C.3    42  GLU42       0.1602
     30  C         16.4250   27.0320   14.8340 C.2    42  GLU42       0.2287
     31  O         15.5080   27.6800   15.3320 O.2    42  GLU42      -0.2864
     32  CB        16.7360   28.3630   12.7310 C.3    42  GLU42       0.0415
     33  CG        15.4600   29.2070   12.6020 C.3    42  GLU42       0.1163
     34  CD        15.6520   30.4800   11.7820 C.2    42  GLU42       0.3649
     35  OE1       16.5270   30.5190   10.8880 O.co2  42  GLU42      -0.2457
     36  OE2       14.9030   31.4480   12.0260 O.co2  42  GLU42      -0.2457
     37  N         15.4470   18.5190    9.4710 N.3    72  TRP72      -0.1241
     38  CA        16.5630   19.3320    9.0260 C.3    72  TRP72       0.1605
     39  C         16.8050   20.3690   10.1080 C.2    72  TRP72       0.2264
     40  O         15.9970   21.2730   10.2900 O.2    72  TRP72      -0.2867
     41  CB        16.1940   19.9870    7.6950 C.3    72  TRP72       0.0550
     42  CG        17.2970   20.6730    6.9420 C.ar   72  TRP72       0.0003
     43  CD1       17.3480   21.9870    6.6040 C.ar   72  TRP72       0.0946
     44  CD2       18.4720   20.0710    6.3860 C.ar   72  TRP72       0.0152
     45  NE1       18.4850   22.2500    5.8880 N.ar   72  TRP72      -0.2442
     46  CE2       19.1950   21.0910    5.7420 C.ar   72  TRP72       0.0810
     47  CE3       18.9860   18.7720    6.3780 C.ar   72  TRP72       0.0012
     48  CZ2       20.4060   20.8560    5.0970 C.ar   72  TRP72       0.0191
     49  CZ3       20.1930   18.5380    5.7370 C.ar   72  TRP72       0.0001
     50  CH2       20.8880   19.5760    5.1050 C.ar   72  TRP72       0.0015
     51  N         18.3780   23.4150   10.9670 N.3    74  ALA74      -0.1245
     52  CA        18.9190   24.4990   10.1390 C.3    74  ALA74       0.1562
     53  C         19.8830   25.3670   10.9240 C.2    74  ALA74       0.2260
     54  O         19.6020   26.5330   11.1980 O.2    74  ALA74      -0.2867
     55  CB        17.7810   25.3500    9.5680 C.3    74  ALA74       0.0290
     56  N         21.0650   28.4160    9.0810 N.3    77  PHE77      -0.1241
     57  CA        19.9710   29.3080    8.6960 C.3    77  PHE77       0.1605
     58  C         19.6390   30.2880    9.8380 C.2    77  PHE77       0.2264
     59  O         19.4860   31.4930    9.6170 O.2    77  PHE77      -0.2867
     60  CB        18.7540   28.4810    8.2470 C.3    77  PHE77       0.0534
     61  CG        18.9970   27.6700    6.9710 C.ar   77  PHE77      -0.0203
     62  CD1       18.4740   28.0880    5.7510 C.ar   77  PHE77      -0.0042
     63  CD2       19.7530   26.4960    6.9940 C.ar   77  PHE77      -0.0042
     64  CE1       18.6970   27.3540    4.5950 C.ar   77  PHE77      -0.0003
     65  CE2       19.9780   25.7620    5.8340 C.ar   77  PHE77      -0.0003
     66  CZ        19.4500   26.1900    4.6400 C.ar   77  PHE77      -0.0000
     67  N          9.3910   33.5030    4.8900 N.3   150  ILE150     -0.1245
     68  CA        10.1680   32.3620    5.3790 C.3   150  ILE150      0.1561
     69  C         10.9030   32.7400    6.6640 C.2   150  ILE150      0.2260
     70  O         10.7200   32.1040    7.7020 O.2   150  ILE150     -0.2867
     71  CB        11.2040   31.8850    4.3280 C.3   150  ILE150      0.0252
     72  CG1       11.1960   30.3770    4.2400 C.3   150  ILE150      0.0019
     73  CG2       12.5740   32.4590    4.5760 C.3   150  ILE150      0.0019
     74  CD1        9.9380   29.8720    3.6200 C.3   150  ILE150      0.0001
     75  N         18.9590   33.1970    1.9670 N.3   165  TYR165     -0.1241
     76  CA        18.2650   32.2920    2.8840 C.3   165  TYR165      0.1605
     77  C         17.2250   31.4060    2.1810 C.2   165  TYR165      0.2264
     78  O         17.2680   30.1830    2.3240 O.2   165  TYR165     -0.2867
     79  CB        17.6360   33.1380    4.0080 C.3   165  TYR165      0.0534
     80  CG        17.0260   32.4060    5.1720 C.ar  165  TYR165     -0.0201
     81  CD1       17.6620   32.3930    6.4030 C.ar  165  TYR165     -0.0009
     82  CD2       15.7840   31.7780    5.0660 C.ar  165  TYR165     -0.0009
     83  CE1       17.1030   31.7490    7.4890 C.ar  165  TYR165      0.0417
     84  CE2       15.2110   31.1290    6.1520 C.ar  165  TYR165      0.0417
     85  CZ        15.8790   31.1170    7.3630 C.ar  165  TYR165      0.1957
     86  OH        15.3360   30.4810    8.4600 O.3   165  TYR165     -0.2866
     87  N         17.2430   27.2080    1.4760 N.3   169  GLN169     -0.1245
     88  CA        16.0800   26.4570    1.9080 C.3   169  GLN169      0.1566
     89  C         15.4790   25.7080    0.7370 C.2   169  GLN169      0.2260
     90  O         15.2590   24.5020    0.8220 O.2   169  GLN169     -0.2867
     91  CB        15.0280   27.3600    2.5440 C.3   169  GLN169      0.0367
     92  CG        13.8070   26.5850    3.0190 C.3   169  GLN169      0.0905
     93  CD        12.9680   27.3330    4.0300 C.2   169  GLN169      0.2608
     94  OE1       13.3420   28.4070    4.5090 O.2   169  GLN169     -0.2717
     95  NE2       11.8190   26.7610    4.3660 N.am  169  GLN169     -0.0878
     96  N         17.5250   22.7100   -0.1100 N.3   172  ASP172     -0.1239
     97  CA        17.4230   21.5940    0.8290 C.3   172  ASP172      0.1674
     98  C         16.3850   20.5790    0.3510 C.2   172  ASP172      0.2266
     99  O         16.5790   19.3700    0.4600 O.2   172  ASP172     -0.2867
    100  CB        17.0390   22.0970    2.2240 C.3   172  ASP172      0.1410
    101  CG        18.0100   23.1210    2.7700 C.2   172  ASP172      0.3668
    102  OD1       19.1620   23.1690    2.3110 O.co2 172  ASP172     -0.2456
    103  OD2       17.6190   23.8860    3.6650 O.co2 172  ASP172     -0.2456
    104  N          5.8460   21.4560    6.2860 N.3   183  LEU183     -0.1245
    105  CA         6.3430   22.6280    7.0110 C.3   183  LEU183      0.1561
    106  C          5.2120   23.6080    7.3210 C.2   183  LEU183      0.2260
    107  O          4.0650   23.3840    6.9440 O.2   183  LEU183     -0.2867
    108  CB         7.4560   23.3210    6.2060 C.3   183  LEU183      0.0270
    109  CG         8.7710   22.5370    6.0650 C.3   183  LEU183      0.0019
    110  CD1        8.7320   21.5600    4.8890 C.3   183  LEU183      0.0001
    111  CD2        9.9570   23.4820    5.9310 C.3   183  LEU183      0.0001
    112  N          5.8420   29.1010    5.8150 N.3   187  GLN187     -0.1245
    113  CA         6.9770   28.6910    4.9830 C.3   187  GLN187      0.1566
    114  C          6.6160   28.5230    3.5020 C.2   187  GLN187      0.2260
    115  O          7.5000   28.5670    2.6480 O.2   187  GLN187     -0.2867
    116  CB         7.5790   27.3790    5.4980 C.3   187  GLN187      0.0367
    117  CG         8.1380   27.4510    6.9110 C.3   187  GLN187      0.0905
    118  CD         9.2530   28.4730    7.0700 C.2   187  GLN187      0.2608
    119  OE1       10.0780   28.6580    6.1780 O.2   187  GLN187     -0.2717
    120  NE2        9.2800   29.1390    8.2130 N.am  187  GLN187     -0.0878
@<TRIPOS>BOND
     1    96    97    1
     2    98    99    2
     3    98    97    1
     4    89    90    2
     5    89    88    1
     6    97   100    1
     7    87    88    1
     8    88    91    1
     9    75    76    1
    10    77    78    2
    11    77    76    1
    12   100   101    1
    13   102   101   ar
    14    91    92    1
    15   115   114    2
    16   101   103   ar
    17    76    79    1
    18    92    93    1
    19    10     8   ar
    20    10    11   ar
    21    12    11    1
    22     8     6   ar
    23   114   113    1
    24    74    72    1
    25    11     9   ar
    26    79    80    1
    27    93    95   am
    28    93    94    2
    29    72    71    1
    30    71    73    1
    31    71    68    1
    32     6     5    1
    33     6     7   ar
    34    64    66   ar
    35    64    62   ar
    36    66    65   ar
    37     9     7   ar
    38     5     2    1
    39   110   109    1
    40    67    68    1
    41   113   116    1
    42   113   112    1
    43    82    80   ar
    44    82    84   ar
    45     1     2    1
    46    48    50   ar
    47    48    46   ar
    48    50    49   ar
    49    80    81   ar
    50    68    69    1
    51   116   117    1
    52    49    47   ar
    53    46    45   ar
    54    46    44   ar
    55    62    61   ar
    56     4     3    2
    57     2     3    1
    58    65    63   ar
    59    45    43   ar
    60   111   109    1
    61   109   108    1
    62    84    85   ar
    63   119   118    2
    64   108   105    1
    65   104   105    1
    66    47    44   ar
    67    44    42   ar
    68    81    83   ar
    69    43    42   ar
    70    69    70    2
    71   117   118    1
    72    42    41    1
    73   107   106    2
    74    61    63   ar
    75    61    60    1
    76   105   106    1
    77   118   120   am
    78    85    83   ar
    79    85    86    1
    80    41    38    1
    81    60    57    1
    82    57    56    1
    83    57    58    1
    84    13    14    1
    85    38    37    1
    86    38    39    1
    87    14    15    1
    88    55    52    1
    89    59    58    2
    90    16    15    2
    91    39    40    2
    92    15    17   am
    93    52    53    1
    94    52    51    1
    95    35    34   ar
    96    53    54    2
    97    17    18    1
    98    34    36   ar
    99    34    33    1
   100    18    19    1
   101    18    21    1
   102    19    20    2
   103    19    28   am
   104    33    32    1
   105    32    29    1
   106    28    29    1
   107    24    26   ar
   108    24    22   ar
   109    21    22    1
   110    29    30    1
   111    26    27   ar
   112    22    23   ar
   113    27    25   ar
   114    23    25   ar
   115    30    31    2
