@<TRIPOS>MOLECULE
tmp/3p0mA00.pdb
 187 179 0 0 0
SMALL
GASTEIGER

@<TRIPOS>ATOM
      1  N         27.4720   15.5000   -8.0200 N.3    36  LEU36      -0.1231
      2  CA        27.6910   14.0690   -8.2580 C.3    36  LEU36       0.1693
      3  C         26.4950   13.2100   -7.8400 C.2    36  LEU36       0.2593
      4  O         26.4200   12.0200   -8.1630 O.2    36  LEU36      -0.2718
      5  CB        28.9020   13.5850   -7.4560 C.3    36  LEU36       0.0284
      6  CG        30.2620   14.2480   -7.6730 C.3    36  LEU36       0.0019
      7  CD1       31.2680   13.7320   -6.6410 C.3    36  LEU36       0.0001
      8  CD2       30.7330   13.9750   -9.0830 C.3    36  LEU36       0.0001
      9  N         25.5810   13.8040   -7.0880 N.am   37  GLY37      -0.1942
     10  CA        24.4800   13.0560   -6.5270 C.3    37  GLY37       0.2014
     11  C         23.6640   13.9500   -5.6240 C.2    37  GLY37       0.2640
     12  O         24.1140   15.0200   -5.1850 O.2    37  GLY37      -0.2714
     13  N         22.4510   13.5060   -5.3460 N.am   38  THR38      -0.1936
     14  CA        21.5210   14.2810   -4.5520 C.3    38  THR38       0.2028
     15  C         20.8820   13.3480   -3.5340 C.2    38  THR38       0.2643
     16  O         20.9390   12.1220   -3.6680 O.2    38  THR38      -0.2714
     17  CB        20.4140   14.8970   -5.4320 C.3    38  THR38       0.1808
     18  OG1       19.7270   13.8480   -6.1100 O.3    38  THR38      -0.2208
     19  CG2       20.9970   15.8670   -6.4710 C.3    38  THR38       0.0379
     20  N         20.2820   13.9400   -2.5130 N.am   39  GLY39      -0.1939
     21  CA        19.6200   13.1940   -1.4650 C.3    39  GLY39       0.2014
     22  C         18.4310   14.0160   -1.0140 C.2    39  GLY39       0.2640
     23  O         18.2220   15.1180   -1.5090 O.2    39  GLY39      -0.2714
     24  N         17.6630   13.4890   -0.0680 N.am   40  SER40      -0.1935
     25  CA        16.4390   14.1430    0.3640 C.3    40  SER40       0.2055
     26  C         16.6800   15.5490    0.9160 C.2    40  SER40       0.2643
     27  O         15.8530   16.4430    0.7290 O.2    40  SER40      -0.2714
     28  CB        15.7050   13.2660    1.3810 C.3    40  SER40       0.2130
     29  OG        16.6330   12.5780    2.2040 O.3    40  SER40      -0.2179
     30  N         17.8150   15.7610    1.5760 N.am   41  PHE41      -0.1959
     31  CA        18.0590   17.0660    2.1800 C.3    41  PHE41       0.1771
     32  C         19.3880   17.7180    1.7860 C.2    41  PHE41       0.2620
     33  O         19.8800   18.6240    2.4620 O.2    41  PHE41      -0.2715
     34  CB        17.9170   16.9770    3.7030 C.3    41  PHE41       0.0574
     35  CG        18.5090   15.7270    4.3000 C.ar   41  PHE41      -0.0200
     36  CD1       17.6930   14.7140    4.7670 C.ar   41  PHE41      -0.0042
     37  CD2       19.8830   15.5710    4.3870 C.ar   41  PHE41      -0.0042
     38  CE1       18.2370   13.5610    5.3220 C.ar   41  PHE41      -0.0003
     39  CE2       20.4390   14.4300    4.9390 C.ar   41  PHE41      -0.0003
     40  CZ        19.6160   13.4200    5.4040 C.ar   41  PHE41      -0.0000
     41  N         19.9680   17.2890    0.6730 N.am   42  GLY42      -0.1940
     42  CA        21.1930   17.9300    0.2380 C.3    42  GLY42       0.2014
     43  C         21.7260   17.3510   -1.0490 C.2    42  GLY42       0.2639
     44  O         21.0150   16.6490   -1.7610 O.2    42  GLY42      -0.2714
     45  N         22.9890   17.6400   -1.3390 N.am   43  ARG43      -0.1963
     46  CA        23.6190   17.1850   -2.5720 C.3    43  ARG43       0.1729
     47  C         25.0800   16.8890   -2.2910 C.2    43  ARG43       0.2616
     48  O         25.6300   17.3740   -1.3050 O.2    43  ARG43      -0.2715
     49  CB        23.4890   18.2400   -3.6790 C.3    43  ARG43       0.0348
     50  CG        24.1100   19.5970   -3.3720 C.3    43  ARG43       0.0492
     51  CD        23.9220   20.5730   -4.5420 C.3    43  ARG43       0.2205
     52  NE        22.5220   20.6520   -4.9530 N.pl3  43  ARG43      -0.0865
     53  CZ        22.1040   20.7410   -6.2150 C.cat  43  ARG43       0.5346
     54  NH1       22.9780   20.7880   -7.2170 N.pl3  43  ARG43       0.1354
     55  NH2       20.8020   20.7930   -6.4780 N.pl3  43  ARG43       0.1354
     56  N         25.6950   16.0750   -3.1460 N.am   44  VAL44      -0.1977
     57  CA        27.1170   15.8470   -3.0620 C.3    44  VAL44       0.1596
     58  C         27.7360   16.4610   -4.3030 C.2    44  VAL44       0.2287
     59  O         27.2860   16.2280   -5.4210 O.2    44  VAL44      -0.2864
     60  CB        27.4600   14.3570   -2.9990 C.3    44  VAL44       0.0276
     61  CG1       28.9860   14.1840   -2.9610 C.3    44  VAL44       0.0022
     62  CG2       26.8130   13.7230   -1.7730 C.3    44  VAL44       0.0022
     63  N         34.6270   14.8410   -2.6240 N.3    57  ALA57      -0.1245
     64  CA        33.1840   14.8850   -2.7140 C.3    57  ALA57       0.1562
     65  C         32.6830   15.5960   -1.4700 C.2    57  ALA57       0.2260
     66  O         32.9260   15.1520   -0.3500 O.2    57  ALA57      -0.2867
     67  CB        32.5870   13.4680   -2.8070 C.3    57  ALA57       0.0290
     68  N         29.5500   16.6040    0.5780 N.3    59  LYS59      -0.1245
     69  CA        28.1320   16.4070    0.8660 C.3    59  LYS59       0.1561
     70  C         27.6370   17.6580    1.5960 C.2    59  LYS59       0.2260
     71  O         28.1200   17.9970    2.6700 O.2    59  LYS59      -0.2867
     72  CB        27.9520   15.1520    1.7420 C.3    59  LYS59       0.0271
     73  CG        26.4970   14.7020    2.0180 C.3    59  LYS59       0.0035
     74  CD        26.4910   13.2880    2.6650 C.3    59  LYS59       0.0206
     75  CE        25.0930   12.8720    3.1360 C.3    59  LYS59       0.1093
     76  NZ        24.9940   11.4050    3.4970 N.3    59  LYS59      -0.1314
     77  N         24.4800   19.4710    3.3320 N.3    61  LEU61      -0.1245
     78  CA        23.1520   19.2260    3.8750 C.3    61  LEU61       0.1561
     79  C         22.5230   20.5380    4.3520 C.2    61  LEU61       0.2260
     80  O         23.0880   21.2610    5.1710 O.2    61  LEU61      -0.2867
     81  CB        23.1990   18.1920    5.0180 C.3    61  LEU61       0.0270
     82  CG        24.0160   16.9060    4.7760 C.3    61  LEU61       0.0019
     83  CD1       23.9460   15.9840    5.9930 C.3    61  LEU61       0.0001
     84  CD2       23.5050   16.1730    3.5480 C.3    61  LEU61       0.0001
     85  N         34.6250    4.8370    2.6720 N.3    91  VAL91      -0.1245
     86  CA        35.0330    6.1550    2.1920 C.3    91  VAL91       0.1561
     87  C         35.4980    7.0450    3.3550 C.2    91  VAL91       0.2260
     88  O         34.8700    7.0640    4.4120 O.2    91  VAL91      -0.2867
     89  CB        33.9140    6.8470    1.3750 C.3    91  VAL91       0.0252
     90  CG1       32.8720    7.4650    2.2950 C.3    91  VAL91       0.0019
     91  CG2       34.5140    7.9170    0.4940 C.3    91  VAL91       0.0019
     92  N         34.5750   14.4710    1.7040 N.3   107  MET107     -0.1230
     93  CA        35.0320   13.0960    1.7250 C.3   107  MET107      0.1702
     94  C         35.9380   12.7870    0.5450 C.2   107  MET107      0.2592
     95  O         35.9630   13.5320   -0.4310 O.2   107  MET107     -0.2718
     96  CB        33.8170   12.1670    1.6830 C.3   107  MET107      0.0401
     97  CG        32.9440   12.2320    2.9430 C.3   107  MET107      0.0596
     98  SD        31.4010   11.3670    2.6460 S.3   107  MET107     -0.1393
     99  CE        30.5200   12.5750    1.6620 C.3   107  MET107      0.0692
    100  N         36.6750   11.6820    0.6330 N.am  108  GLU108     -0.1966
    101  CA        37.4550   11.2250   -0.5060 C.3   108  GLU108      0.1733
    102  C         36.5270   11.1040   -1.7170 C.2   108  GLU108      0.2616
    103  O         35.3890   10.6400   -1.5970 O.2   108  GLU108     -0.2715
    104  CB        38.1120    9.8750   -0.1930 C.3   108  GLU108      0.0429
    105  CG        38.9550    9.3260   -1.3030 C.3   108  GLU108      0.1163
    106  CD        39.7120    8.0700   -0.9970 C.2   108  GLU108      0.3649
    107  OE1       39.5530    7.5140    0.0680 O.co2 108  GLU108     -0.2457
    108  OE2       40.3840    7.4790   -1.8560 O.co2 108  GLU108     -0.2457
    109  N         37.0210   11.5340   -2.8700 N.am  109  TYR109     -0.1960
    110  CA        36.3090   11.4080   -4.1370 C.3   109  TYR109      0.1771
    111  C         36.6260   10.0560   -4.7770 C.2   109  TYR109      0.2619
    112  O         37.7930    9.6770   -4.9360 O.2   109  TYR109     -0.2715
    113  CB        36.7120   12.5520   -5.0760 C.3   109  TYR109      0.0574
    114  CG        36.1800   12.4100   -6.4790 C.ar  109  TYR109     -0.0198
    115  CD1       34.8440   12.1350   -6.6950 C.ar  109  TYR109     -0.0009
    116  CD2       37.0110   12.5590   -7.5850 C.ar  109  TYR109     -0.0009
    117  CE1       34.3350   12.0050   -7.9640 C.ar  109  TYR109      0.0417
    118  CE2       36.5060   12.4320   -8.8740 C.ar  109  TYR109      0.0417
    119  CZ        35.1620   12.1520   -9.0490 C.ar  109  TYR109      0.1957
    120  OH        34.6100   12.0090  -10.3020 O.3   109  TYR109     -0.2866
    121  N         35.5780    9.3210   -5.1230 N.am  110  VAL110     -0.1977
    122  CA        35.7200    7.9850   -5.6780 C.3   110  VAL110      0.1596
    123  C         35.2460    8.0490   -7.1190 C.2   110  VAL110      0.2287
    124  O         34.0450    8.0470   -7.3770 O.2   110  VAL110     -0.2864
    125  CB        34.8920    6.9690   -4.8720 C.3   110  VAL110      0.0276
    126  CG1       35.1330    5.5550   -5.3750 C.3   110  VAL110      0.0022
    127  CG2       35.2390    7.0670   -3.3950 C.3   110  VAL110      0.0022
    128  N         29.1120    4.7620   -9.1900 N.3   114  GLU114     -0.1245
    129  CA        28.3650    3.8260   -8.3670 C.3   114  GLU114      0.1567
    130  C         28.3210    2.4250   -8.9680 C.2   114  GLU114      0.2260
    131  O         28.2550    2.2660  -10.1920 O.2   114  GLU114     -0.2867
    132  CB        26.9440    4.3670   -8.1610 C.3   114  GLU114      0.0388
    133  CG        26.9120    5.6990   -7.4080 C.3   114  GLU114      0.1160
    134  CD        25.5480    6.3500   -7.4600 C.2   114  GLU114      0.3649
    135  OE1       24.6120    5.6720   -7.9310 O.co2 114  GLU114     -0.2457
    136  OE2       25.4120    7.5280   -7.0440 O.co2 114  GLU114     -0.2457
    137  N         23.6270    1.6040   -5.0220 N.3   157  GLU157     -0.1231
    138  CA        23.6820    3.0760   -5.0760 C.3   157  GLU157      0.1699
    139  C         24.6850    3.6830   -4.0890 C.2   157  GLU157      0.2592
    140  O         25.1440    4.8170   -4.2730 O.2   157  GLU157     -0.2718
    141  CB        22.3030    3.6860   -4.7800 C.3   157  GLU157      0.0402
    142  CG        21.2190    3.4180   -5.8300 C.3   157  GLU157      0.1161
    143  CD        20.4010    2.1590   -5.5420 C.2   157  GLU157      0.3649
    144  OE1       20.9770    1.1300   -5.1480 O.co2 157  GLU157     -0.2457
    145  OE2       19.1700    2.1930   -5.7170 O.co2 157  GLU157     -0.2457
    146  N         25.0040    2.9490   -3.0290 N.am  158  ASN158     -0.1974
    147  CA        25.8950    3.4780   -1.9850 C.3   158  ASN158      0.1688
    148  C         27.3000    2.8790   -2.0300 C.2   158  ASN158      0.2292
    149  O         28.1060    3.1030   -1.1350 O.2   158  ASN158     -0.2864
    150  CB        25.2860    3.2630   -0.5890 C.3   158  ASN158      0.1181
    151  CG        24.0900    4.1750   -0.3170 C.2   158  ASN158      0.2629
    152  OD1       23.8660    5.1570   -1.0250 O.2   158  ASN158     -0.2716
    153  ND2       23.3360    3.8630    0.7300 N.am  158  ASN158     -0.0877
    154  N         30.6480    2.7520   -4.1620 N.3   160  LEU160     -0.1245
    155  CA        31.3880    3.3670   -5.2560 C.3   160  LEU160      0.1561
    156  C         32.5400    2.4660   -5.6690 C.2   160  LEU160      0.2260
    157  O         33.0710    1.7170   -4.8510 O.2   160  LEU160     -0.2867
    158  CB        31.9220    4.7310   -4.8310 C.3   160  LEU160      0.0270
    159  CG        30.9970    5.9450   -4.9190 C.3   160  LEU160      0.0019
    160  CD1       29.5240    5.5950   -4.7140 C.3   160  LEU160      0.0001
    161  CD2       31.4520    6.9710   -3.9120 C.3   160  LEU160      0.0001
    162  N         29.7210    4.2340    0.8960 N.3   170  THR170     -0.1203
    163  CA        29.4160    5.6210    1.2330 C.3   170  THR170      0.1994
    164  C         28.0670    5.6950    1.9510 C.2   170  THR170      0.2617
    165  O         27.4210    4.6770    2.1430 O.2   170  THR170     -0.2717
    166  CB        29.3480    6.4960   -0.0290 C.3   170  THR170      0.1784
    167  OG1       28.2370    6.0800   -0.8330 O.3   170  THR170     -0.2211
    168  CG2       30.6170    6.3450   -0.8380 C.3   170  THR170      0.0376
    169  N         27.6520    6.9100    2.3010 N.am  171  ASP171     -0.1973
    170  CA        26.3450    7.1870    2.9170 C.3   171  ASP171      0.1709
    171  C         26.1130    6.4830    4.2330 C.2   171  ASP171      0.2293
    172  O         25.4730    5.4210    4.2880 O.2   171  ASP171     -0.2864
    173  CB        25.1580    6.8970    1.9880 C.3   171  ASP171      0.1436
    174  CG        23.8540    7.5520    2.4910 C.2   171  ASP171      0.3671
    175  OD1       22.8400    7.5210    1.7700 O.co2 171  ASP171     -0.2456
    176  OD2       23.8480    8.1110    3.6130 O.co2 171  ASP171     -0.2456
    177  N         29.7140    9.3200  -13.6290 N.3   313  PHE313     -0.1241
    178  CA        28.5410    9.7520  -12.8800 C.3   313  PHE313      0.1605
    179  C         27.5020   10.3570  -13.8100 C.2   313  PHE313      0.2264
    180  O         27.8270   10.9050  -14.8590 O.2   313  PHE313     -0.2867
    181  CB        28.9300   10.7900  -11.8390 C.3   313  PHE313      0.0534
    182  CG        29.8360   10.2620  -10.7620 C.ar  313  PHE313     -0.0203
    183  CD1       29.3130    9.8040   -9.5680 C.ar  313  PHE313     -0.0042
    184  CD2       31.2100   10.2340  -10.9470 C.ar  313  PHE313     -0.0042
    185  CE1       30.1510    9.3180   -8.5700 C.ar  313  PHE313     -0.0003
    186  CE2       32.0440    9.7510   -9.9630 C.ar  313  PHE313     -0.0003
    187  CZ        31.5160    9.2900   -8.7740 C.ar  313  PHE313     -0.0000
@<TRIPOS>BOND
     1   180   179    2
     2   179   178    1
     3   177   178    1
     4   178   181    1
     5   181   182    1
     6   184   182   ar
     7   184   186   ar
     8   182   183   ar
     9   120   119    1
    10   131   130    2
    11   186   187   ar
    12   183   185   ar
    13   128   129    1
    14     8     6    1
    15   119   118   ar
    16   119   117   ar
    17   130   129    1
    18   118   116   ar
    19   187   185   ar
    20   129   132    1
    21     2     1    1
    22     2     3    1
    23     2     5    1
    24     4     3    2
    25   132   133    1
    26   117   115   ar
    27   135   134   ar
    28     3     9   am
    29     6     5    1
    30     6     7    1
    31   116   114   ar
    32   134   133    1
    33   134   136   ar
    34   124   123    2
    35    54    53    1
    36   123   122    1
    37     9    10    1
    38   115   114   ar
    39    10    11    1
    40   114   113    1
    41    55    53    1
    42    19    17    1
    43    53    52    2
    44    18    17    1
    45   142   143    1
    46   142   141    1
    47   145   143   ar
    48   122   121    1
    49   122   125    1
    50   156   155    1
    51   156   157    2
    52    11    13   am
    53    11    12    2
    54   143   144   ar
    55    17    14    1
    56    59    58    2
    57   126   125    1
    58    13    14    1
    59   155   158    1
    60   155   154    1
    61   121   111   am
    62   138   137    1
    63   138   141    1
    64   138   139    1
    65   113   110    1
    66    52    51    1
    67   112   111    2
    68   159   158    1
    69   159   160    1
    70   159   161    1
    71   125   127    1
    72   111   110    1
    73    14    15    1
    74    51    50    1
    75    58    57    1
    76   140   139    2
    77   110   109    1
    78   139   146   am
    79    49    50    1
    80    49    46    1
    81    16    15    2
    82    15    20   am
    83    56    57    1
    84    56    47   am
    85    57    60    1
    86   146   147    1
    87    60    61    1
    88    60    62    1
    89   109   102   am
    90    67    64    1
    91    64    63    1
    92    64    65    1
    93    46    47    1
    94    46    45    1
    95    20    21    1
    96    47    48    2
    97   148   147    1
    98   148   149    2
    99   147   150    1
   100   108   106   ar
   101    44    43    2
   102   102   103    2
   103   102   101    1
   104    23    22    2
   105    65    66    2
   106    21    22    1
   107    45    43   am
   108   105   106    1
   109   105   104    1
   110    43    42    1
   111   152   151    2
   112    22    24   am
   113   106   107   ar
   114   168   166    1
   115   167   166    1
   116   150   151    1
   117   101   104    1
   118   101   100    1
   119    95    94    2
   120   151   153   am
   121    24    25    1
   122   166   163    1
   123    42    41    1
   124    25    26    1
   125    25    28    1
   126    91    89    1
   127    94   100   am
   128    94    93    1
   129    68    69    1
   130    41    32   am
   131    27    26    2
   132    69    70    1
   133    69    72    1
   134   162   163    1
   135    26    30   am
   136   163   164    1
   137    89    86    1
   138    89    90    1
   139    28    29    1
   140    30    31    1
   141    70    71    2
   142    99    98    1
   143    96    93    1
   144    96    97    1
   145    92    93    1
   146    72    73    1
   147   175   174   ar
   148    32    31    1
   149    32    33    2
   150   164   165    2
   151   164   169   am
   152   173   174    1
   153   173   170    1
   154    73    74    1
   155    31    34    1
   156    86    85    1
   157    86    87    1
   158   169   170    1
   159   174   176   ar
   160    98    97    1
   161    74    75    1
   162   170   171    1
   163    75    76    1
   164    77    78    1
   165    87    88    2
   166    84    82    1
   167    34    35    1
   168    78    79    1
   169    78    81    1
   170   171   172    2
   171    35    37   ar
   172    35    36   ar
   173    79    80    2
   174    37    39   ar
   175    36    38   ar
   176    82    81    1
   177    82    83    1
   178    39    40   ar
   179    38    40   ar
