@<TRIPOS>MOLECULE
tmp/3p0nB00.pdb
 141 142 0 0 0
SMALL
GASTEIGER

@<TRIPOS>ATOM
      1  N          4.8520  -40.6760   -8.4480 N.3    79  PHE79      -0.1227
      2  CA         5.1060  -39.6820   -9.4940 C.3    79  PHE79       0.1736
      3  C          5.2190  -40.3170  -10.8870 C.2    79  PHE79       0.2595
      4  O          5.6700  -41.4880  -11.0330 O.2    79  PHE79      -0.2718
      5  CB         6.3370  -38.8320   -9.1760 C.3    79  PHE79       0.0547
      6  CG         6.1580  -37.9850   -7.9420 C.ar   79  PHE79      -0.0202
      7  CD1        5.3480  -36.8490   -7.9790 C.ar   79  PHE79      -0.0042
      8  CD2        6.7300  -38.3750   -6.7430 C.ar   79  PHE79      -0.0042
      9  CE1        5.1400  -36.1090   -6.8520 C.ar   79  PHE79      -0.0003
     10  CE2        6.5490  -37.6150   -5.5790 C.ar   79  PHE79      -0.0003
     11  CZ         5.7530  -36.4720   -5.6350 C.ar   79  PHE79      -0.0000
     12  N          4.8510  -39.5240  -11.9040 N.am   80  HIS80      -0.1961
     13  CA         5.0680  -39.9230  -13.2900 C.3    80  HIS80       0.1787
     14  C          5.3460  -38.6990  -14.1360 C.2    80  HIS80       0.2621
     15  O          4.5270  -37.7430  -14.1600 O.2    80  HIS80      -0.2715
     16  CB         3.8870  -40.6500  -13.8880 C.3    80  HIS80       0.0785
     17  CG         4.1330  -41.2090  -15.2640 C.ar   80  HIS80       0.0821
     18  ND1        4.7760  -42.4200  -15.4910 N.ar   80  HIS80      -0.2267
     19  CD2        3.7620  -40.7500  -16.4970 C.ar   80  HIS80       0.1154
     20  CE1        4.8340  -42.6490  -16.7930 C.ar   80  HIS80       0.1986
     21  NE2        4.2450  -41.6500  -17.4330 N.ar   80  HIS80      -0.2212
     22  N          6.4830  -38.7300  -14.8000 N.am   81  GLY81      -0.1940
     23  CA         6.9060  -37.7050  -15.7240 C.3    81  GLY81       0.2014
     24  C          6.7980  -38.2540  -17.1290 C.2    81  GLY81       0.2640
     25  O          7.1470  -39.4150  -17.3650 O.2    81  GLY81      -0.2714
     26  N          6.2880  -37.4570  -18.0790 N.am   82  SER82      -0.1936
     27  CA         6.2170  -37.9340  -19.4370 C.3    82  SER82       0.2040
     28  C          6.0040  -36.8030  -20.4400 C.2    82  SER82       0.2485
     29  O          5.2650  -35.8830  -20.1430 O.2    82  SER82      -0.2729
     30  CB         5.0470  -38.8880  -19.5780 C.3    82  SER82       0.2129
     31  OG         4.7820  -39.2340  -20.9260 O.3    82  SER82      -0.2179
     32  N          6.5910  -36.9280  -21.6460 N.am   83  PRO83      -0.2726
     33  CA         6.1670  -36.0210  -22.7310 C.3    83  PRO83       0.1402
     34  C          4.7080  -36.1820  -23.1580 C.2    83  PRO83       0.2269
     35  O          4.1860  -35.3160  -23.8650 O.2    83  PRO83      -0.2865
     36  CB         7.0750  -36.3920  -23.9000 C.3    83  PRO83       0.0296
     37  CG         8.0470  -37.4190  -23.3630 C.3    83  PRO83       0.0237
     38  CD         7.5250  -37.9710  -22.1210 C.3    83  PRO83       0.0939
     39  N          2.2570  -45.2440  -23.3820 N.3    97  HIS97      -0.1226
     40  CA         2.9730  -44.6180  -22.2440 C.3    97  HIS97       0.1752
     41  C          3.9710  -45.5760  -21.5710 C.2    97  HIS97       0.2596
     42  O          4.6230  -45.2190  -20.5570 O.2    97  HIS97      -0.2718
     43  CB         1.9340  -44.0380  -21.2740 C.3    97  HIS97       0.0759
     44  CG         0.9140  -43.1960  -21.9720 C.ar   97  HIS97       0.0818
     45  ND1       -0.4430  -43.3870  -21.8270 N.ar   97  HIS97      -0.2268
     46  CD2        1.0570  -42.2320  -22.9060 C.ar   97  HIS97       0.1154
     47  CE1       -1.0910  -42.5410  -22.6130 C.ar   97  HIS97       0.1986
     48  NE2       -0.2040  -41.8410  -23.2890 N.ar   97  HIS97      -0.2212
     49  N          4.1010  -46.7700  -22.1620 N.am   98  ALA98      -0.1966
     50  CA         5.0310  -47.7880  -21.6740 C.3    98  ALA98       0.1728
     51  C          6.4630  -47.4600  -22.0900 C.2    98  ALA98       0.2616
     52  O          6.6910  -46.7140  -23.0580 O.2    98  ALA98      -0.2715
     53  CB         4.6420  -49.1610  -22.1580 C.3    98  ALA98       0.0334
     54  N          7.4030  -48.0080  -21.3280 N.am   99  TYR99      -0.1974
     55  CA         8.8210  -47.8450  -21.5530 C.3    99  TYR99       0.1639
     56  C          9.3540  -49.1670  -22.0830 C.2    99  TYR99       0.2290
     57  O          9.6670  -50.0820  -21.3140 O.2    99  TYR99      -0.2864
     58  CB         9.4890  -47.4820  -20.2390 C.3    99  TYR99       0.0560
     59  CG        10.9630  -47.2080  -20.2910 C.ar   99  TYR99      -0.0198
     60  CD1       11.6870  -47.1680  -19.1180 C.ar   99  TYR99      -0.0009
     61  CD2       11.6380  -46.9850  -21.4970 C.ar   99  TYR99      -0.0009
     62  CE1       13.0300  -46.8890  -19.1110 C.ar   99  TYR99       0.0417
     63  CE2       13.0110  -46.7070  -21.5000 C.ar   99  TYR99       0.0417
     64  CZ        13.6920  -46.6910  -20.3210 C.ar   99  TYR99       0.1957
     65  OH        15.0310  -46.4110  -20.2930 O.3    99  TYR99      -0.2866
     66  N          6.1110  -46.9330  -15.9150 N.3   109  TYR109     -0.1227
     67  CA         6.9790  -46.6920  -14.7650 C.3   109  TYR109      0.1736
     68  C          6.5680  -45.4910  -13.9150 C.2   109  TYR109      0.2595
     69  O          6.2940  -44.4380  -14.4720 O.2   109  TYR109     -0.2718
     70  CB         8.4030  -46.4170  -15.2660 C.3   109  TYR109      0.0548
     71  CG         9.1010  -47.6560  -15.7390 C.ar  109  TYR109     -0.0200
     72  CD1       10.3010  -48.0450  -15.1680 C.ar  109  TYR109     -0.0009
     73  CD2        8.5360  -48.4640  -16.7220 C.ar  109  TYR109     -0.0009
     74  CE1       10.9470  -49.1940  -15.5930 C.ar  109  TYR109      0.0417
     75  CE2        9.1970  -49.6420  -17.1630 C.ar  109  TYR109      0.0417
     76  CZ        10.3890  -49.9910  -16.5820 C.ar  109  TYR109      0.1957
     77  OH        11.0300  -51.1740  -16.9790 O.3   109  TYR109     -0.2866
     78  N          6.6420  -45.6440  -12.5880 N.am  110  PHE110     -0.1962
     79  CA         6.3080  -44.6280  -11.6160 C.3   110  PHE110      0.1771
     80  C          7.4370  -44.5780  -10.6070 C.2   110  PHE110      0.2619
     81  O          8.1850  -45.5650  -10.4500 O.2   110  PHE110     -0.2715
     82  CB         4.9760  -44.9530  -10.9520 C.3   110  PHE110      0.0574
     83  CG         3.8260  -44.9350  -11.8640 C.ar  110  PHE110     -0.0200
     84  CD1        3.0620  -43.7760  -12.0190 C.ar  110  PHE110     -0.0042
     85  CD2        3.5050  -46.0810  -12.6420 C.ar  110  PHE110     -0.0042
     86  CE1        1.9830  -43.7750  -12.9010 C.ar  110  PHE110     -0.0003
     87  CE2        2.4650  -46.0760  -13.5080 C.ar  110  PHE110     -0.0003
     88  CZ         1.6860  -44.9340  -13.6560 C.ar  110  PHE110     -0.0000
     89  N          7.6410  -43.4400   -9.9710 N.am  111  ALA111     -0.1977
     90  CA         8.7160  -43.2950   -8.9930 C.3   111  ALA111      0.1597
     91  C          8.2560  -42.7080   -7.6700 C.2   111  ALA111      0.2287
     92  O          7.3880  -41.8090   -7.6140 O.2   111  ALA111     -0.2864
     93  CB         9.8040  -42.4240   -9.5470 C.3   111  ALA111      0.0319
     94  N         13.2960  -38.3570   -9.8450 N.3   116  LYS116     -0.1231
     95  CA        13.4590  -39.4570  -10.8250 C.3   116  LYS116      0.1693
     96  C         12.4480  -39.2290  -11.9720 C.2   116  LYS116      0.2592
     97  O         12.8140  -39.2340  -13.1380 O.2   116  LYS116     -0.2718
     98  CB        13.2450  -40.8230  -10.1760 C.3   116  LYS116      0.0285
     99  CG        13.0460  -41.9950  -11.1230 C.3   116  LYS116      0.0035
    100  CD        14.1770  -42.2400  -12.1330 C.3   116  LYS116      0.0206
    101  CE        15.5210  -42.3410  -11.5290 C.3   116  LYS116      0.1093
    102  NZ        16.5730  -42.7000  -12.6090 N.3   116  LYS116     -0.1314
    103  N         11.1800  -38.9890  -11.6200 N.am  117  SER117     -0.1952
    104  CA        10.1590  -38.6910  -12.6170 C.3   117  SER117      0.1924
    105  C         10.5000  -37.4260  -13.4310 C.2   117  SER117      0.2314
    106  O         10.1950  -37.3410  -14.6420 O.2   117  SER117     -0.2863
    107  CB         8.7930  -38.5770  -11.9510 C.3   117  SER117      0.2116
    108  OG         8.3380  -39.8460  -11.5420 O.3   117  SER117     -0.2180
    109  N         12.1590  -37.5890  -16.8930 N.3   120  TYR120     -0.1241
    110  CA        11.4080  -38.0770  -18.0250 C.3   120  TYR120      0.1605
    111  C         10.4230  -37.0330  -18.6010 C.2   120  TYR120      0.2264
    112  O          9.7210  -37.3070  -19.5860 O.2   120  TYR120     -0.2867
    113  CB        10.6430  -39.3400  -17.6570 C.3   120  TYR120      0.0534
    114  CG        11.5810  -40.4980  -17.4030 C.ar  120  TYR120     -0.0201
    115  CD1       12.0560  -41.2750  -18.4620 C.ar  120  TYR120     -0.0009
    116  CD2       12.0440  -40.7710  -16.1300 C.ar  120  TYR120     -0.0009
    117  CE1       12.9460  -42.3030  -18.2380 C.ar  120  TYR120      0.0417
    118  CE2       12.9530  -41.7660  -15.9190 C.ar  120  TYR120      0.0417
    119  CZ        13.4070  -42.5190  -16.9680 C.ar  120  TYR120      0.1957
    120  OH        14.2800  -43.5660  -16.7070 O.3   120  TYR120     -0.2866
    121  N         11.2590  -36.5160  -22.0120 N.3   123  GLY123     -0.1210
    122  CA        11.4700  -37.7900  -22.7010 C.3   123  GLY123      0.1956
    123  C         12.5190  -38.6350  -22.0270 C.2   123  GLY123      0.2611
    124  O         13.0890  -38.2390  -21.0290 O.2   123  GLY123     -0.2717
    125  N         12.7580  -39.8250  -22.5810 N.am  124  ILE124     -0.1979
    126  CA        13.7600  -40.7390  -22.0490 C.3   124  ILE124      0.1595
    127  C         15.1490  -40.0890  -22.0530 C.2   124  ILE124      0.2287
    128  O         15.5870  -39.4840  -23.0220 O.2   124  ILE124     -0.2864
    129  CB        13.6840  -42.1060  -22.7820 C.3   124  ILE124      0.0276
    130  CG1       12.3410  -42.7920  -22.4190 C.3   124  ILE124      0.0022
    131  CG2       14.8900  -42.9680  -22.3930 C.3   124  ILE124      0.0022
    132  CD1       11.8780  -43.7780  -23.4260 C.3   124  ILE124      0.0001
    133  N         11.2350  -47.6260   -7.7630 N.3   185  GLU185     -0.1245
    134  CA        10.4370  -47.4130   -8.9900 C.3   185  GLU185      0.1567
    135  C          9.4630  -48.5400   -9.1020 C.2   185  GLU185      0.2260
    136  O          9.7110  -49.6200   -8.5540 O.2   185  GLU185     -0.2867
    137  CB        11.3890  -47.2720  -10.1950 C.3   185  GLU185      0.0388
    138  CG        12.3740  -46.1430   -9.8290 C.3   185  GLU185      0.1160
    139  CD        13.6330  -45.9780  -10.6340 C.2   185  GLU185      0.3649
    140  OE1       14.6950  -45.5330   -9.9840 O.co2 185  GLU185     -0.2457
    141  OE2       13.5330  -46.2170  -11.8630 O.co2 185  GLU185     -0.2457
@<TRIPOS>BOND
     1    36    37    1
     2    36    33    1
     3    35    34    2
     4   132   130    1
     5    39    40    1
     6    37    38    1
     7    48    46   ar
     8    48    47   ar
     9    34    33    1
    10    52    51    2
    11   128   127    2
    12    46    44   ar
    13   129   130    1
    14   129   131    1
    15   129   126    1
    16    33    32    1
    17   122   123    1
    18   122   121    1
    19    47    45   ar
    20   125   126    1
    21   125   123   am
    22    40    41    1
    23    40    43    1
    24    49    50    1
    25    49    41   am
    26    53    50    1
    27    38    32    1
    28    51    50    1
    29    51    54   am
    30    56    55    1
    31    56    57    2
    32   127   126    1
    33   123   124    2
    34    44    45   ar
    35    44    43    1
    36    32    28   am
    37    41    42    2
    38    55    54    1
    39    55    58    1
    40    63    61   ar
    41    63    64   ar
    42    61    59   ar
    43    31    30    1
    44    28    29    2
    45    28    27    1
    46    64    65    1
    47    64    62   ar
    48    59    58    1
    49    59    60   ar
    50   112   111    2
    51    30    27    1
    52    27    26    1
    53    60    62   ar
    54   111   110    1
    55   115   117   ar
    56   115   114   ar
    57   117   119   ar
    58    26    24   am
    59   110   113    1
    60   110   109    1
    61   113   114    1
    62    21    20   ar
    63    21    19   ar
    64   114   116   ar
    65    25    24    2
    66    75    73   ar
    67    75    76   ar
    68    24    23    1
    69    77    76    1
    70   119   120    1
    71   119   118   ar
    72    20    18   ar
    73    73    71   ar
    74    76    74   ar
    75    19    17   ar
    76   116   118   ar
    77    66    67    1
    78    71    70    1
    79    71    72   ar
    80    23    22    1
    81    74    72   ar
    82    18    17   ar
    83    70    67    1
    84    17    16    1
    85    22    14   am
    86    67    68    1
    87   106   105    2
    88    69    68    2
    89    15    14    2
    90    14    13    1
    91    68    78   am
    92    16    13    1
    93    88    87   ar
    94    88    86   ar
    95    87    85   ar
    96   105   104    1
    97    13    12    1
    98    97    96    2
    99    86    84   ar
   100    85    83   ar
   101   104   107    1
   102   104   103    1
   103   102   101    1
   104    78    79    1
   105   100   101    1
   106   100    99    1
   107    84    83   ar
   108    96   103   am
   109    96    95    1
   110   107   108    1
   111    12     3   am
   112    83    82    1
   113   141   139   ar
   114    79    82    1
   115    79    80    1
   116    99    98    1
   117     4     3    2
   118     3     2    1
   119    95    98    1
   120    95    94    1
   121   139   140   ar
   122   139   138    1
   123    80    81    2
   124    80    89   am
   125   137   138    1
   126   137   134    1
   127    89    90    1
   128    93    90    1
   129     2     5    1
   130     2     1    1
   131     5     6    1
   132   135   134    1
   133   135   136    2
   134    90    91    1
   135   134   133    1
   136     7     6   ar
   137     7     9   ar
   138     6     8   ar
   139    91    92    2
   140     9    11   ar
   141     8    10   ar
   142    11    10   ar
