@<TRIPOS>MOLECULE
tmp/3p0pB00.pdb
 171 173 0 0 0
SMALL
GASTEIGER

@<TRIPOS>ATOM
      1  N          4.5350  -40.6240   -8.4770 N.3    79  PHE79      -0.1227
      2  CA         4.8130  -39.5910   -9.4970 C.3    79  PHE79       0.1736
      3  C          4.9730  -40.1850  -10.8700 C.2    79  PHE79       0.2595
      4  O          5.4740  -41.3100  -11.0160 O.2    79  PHE79      -0.2718
      5  CB         6.0850  -38.8050   -9.1590 C.3    79  PHE79       0.0547
      6  CG         5.9620  -38.0070   -7.8960 C.ar   79  PHE79      -0.0202
      7  CD1        5.3170  -36.7740   -7.8940 C.ar   79  PHE79      -0.0042
      8  CD2        6.4610  -38.4950   -6.6980 C.ar   79  PHE79      -0.0042
      9  CE1        5.1640  -36.0480   -6.7050 C.ar   79  PHE79      -0.0003
     10  CE2        6.3330  -37.7520   -5.5140 C.ar   79  PHE79      -0.0003
     11  CZ         5.6800  -36.5370   -5.5280 C.ar   79  PHE79      -0.0000
     12  N          4.5690  -39.4200  -11.8800 N.am   80  HIS80      -0.1961
     13  CA         4.7090  -39.8270  -13.2740 C.3    80  HIS80       0.1787
     14  C          5.1030  -38.6290  -14.1070 C.2    80  HIS80       0.2621
     15  O          4.3240  -37.6910  -14.2500 O.2    80  HIS80      -0.2715
     16  CB         3.4380  -40.5020  -13.8330 C.3    80  HIS80       0.0785
     17  CG         3.6250  -41.1080  -15.1950 C.ar   80  HIS80       0.0821
     18  ND1        4.2210  -42.3600  -15.3600 N.ar   80  HIS80      -0.2267
     19  CD2        3.2780  -40.6260  -16.4120 C.ar   80  HIS80       0.1154
     20  CE1        4.2210  -42.5910  -16.6660 C.ar   80  HIS80       0.1986
     21  NE2        3.6740  -41.5760  -17.3430 N.ar   80  HIS80      -0.2212
     22  N          6.3440  -38.6590  -14.5800 N.am   81  GLY81      -0.1940
     23  CA         6.9320  -37.6800  -15.4850 C.3    81  GLY81       0.2014
     24  C          6.9560  -38.3160  -16.8520 C.2    81  GLY81       0.2640
     25  O          7.3520  -39.4820  -16.9720 O.2    81  GLY81      -0.2714
     26  N          6.4550  -37.5950  -17.8670 N.am   82  SER82      -0.1936
     27  CA         6.3170  -38.1270  -19.2160 C.3    82  SER82       0.2040
     28  C          5.9920  -37.0310  -20.2170 C.2    82  SER82       0.2485
     29  O          5.1770  -36.1610  -19.9140 O.2    82  SER82      -0.2729
     30  CB         5.1940  -39.1660  -19.2380 C.3    82  SER82       0.2129
     31  OG         4.8150  -39.5150  -20.5550 O.3    82  SER82      -0.2179
     32  N          6.5120  -37.0910  -21.4560 N.am   83  PRO83      -0.2715
     33  CA         6.1150  -36.0580  -22.4450 C.3    83  PRO83       0.1536
     34  C          4.6380  -36.2010  -22.9330 C.2    83  PRO83       0.2598
     35  O          4.1060  -35.2930  -23.5570 O.2    83  PRO83      -0.2715
     36  CB         7.1370  -36.2150  -23.5750 C.3    83  PRO83       0.0310
     37  CG         7.7330  -37.5810  -23.4040 C.3    83  PRO83       0.0237
     38  CD         7.4790  -38.0670  -22.0050 C.3    83  PRO83       0.0939
     39  N          3.9500  -37.2880  -22.5580 N.am   84  PHE84      -0.1974
     40  CA         2.5520  -37.5520  -22.9200 C.3    84  PHE84       0.1639
     41  C          1.5770  -37.2150  -21.7570 C.2    84  PHE84       0.2290
     42  O          0.4510  -37.7230  -21.7450 O.2    84  PHE84      -0.2864
     43  CB         2.3630  -39.0310  -23.3680 C.3    84  PHE84       0.0560
     44  CG         3.5260  -39.6280  -24.1230 C.ar   84  PHE84      -0.0200
     45  CD1        3.7370  -39.3260  -25.4620 C.ar   84  PHE84      -0.0042
     46  CD2        4.4450  -40.4550  -23.4790 C.ar   84  PHE84      -0.0042
     47  CE1        4.8510  -39.8430  -26.1440 C.ar   84  PHE84      -0.0003
     48  CE2        5.5520  -40.9710  -24.1630 C.ar   84  PHE84      -0.0003
     49  CZ         5.7400  -40.6700  -25.4930 C.ar   84  PHE84      -0.0000
     50  N          0.3610  -47.0490  -25.3250 N.3    96  ARG96      -0.1231
     51  CA         1.2240  -46.0280  -25.9380 C.3    96  ARG96       0.1694
     52  C          1.8130  -45.0420  -24.8550 C.2    96  ARG96       0.2592
     53  O          2.0420  -43.8600  -25.1250 O.2    96  ARG96      -0.2718
     54  CB         0.5310  -45.2990  -27.1260 C.3    96  ARG96       0.0321
     55  CG        -0.7890  -44.5880  -26.8430 C.3    96  ARG96       0.0489
     56  CD        -1.8110  -44.7490  -27.9660 C.3    96  ARG96       0.2205
     57  NE        -2.3130  -46.1250  -28.0970 N.pl3  96  ARG96      -0.0865
     58  CZ        -3.1350  -46.5490  -29.0590 C.cat  96  ARG96       0.5346
     59  NH1       -3.5670  -45.7090  -29.9940 N.pl3  96  ARG96       0.1354
     60  NH2       -3.5320  -47.8150  -29.0900 N.pl3  96  ARG96       0.1354
     61  N          2.0910  -45.5760  -23.6470 N.am   97  HIS97      -0.1962
     62  CA         2.7150  -44.9060  -22.4900 C.3    97  HIS97       0.1787
     63  C          3.6860  -45.8840  -21.8230 C.2    97  HIS97       0.2620
     64  O          4.3720  -45.5280  -20.8610 O.2    97  HIS97      -0.2715
     65  CB         1.6700  -44.3980  -21.4670 C.3    97  HIS97       0.0785
     66  CG         0.7390  -43.3710  -22.0140 C.ar   97  HIS97       0.0821
     67  ND1       -0.6200  -43.5970  -22.0770 N.ar   97  HIS97      -0.2267
     68  CD2        1.0070  -42.1570  -22.5440 C.ar   97  HIS97       0.1154
     69  CE1       -1.1370  -42.5120  -22.6280 C.ar   97  HIS97       0.1986
     70  NE2       -0.1950  -41.6220  -22.9320 N.ar   97  HIS97      -0.2212
     71  N          3.7020  -47.1340  -22.3300 N.am   98  ALA98      -0.1963
     72  CA         4.5430  -48.2200  -21.8610 C.3    98  ALA98       0.1728
     73  C          5.9360  -48.0980  -22.4520 C.2    98  ALA98       0.2616
     74  O          6.1060  -48.0860  -23.6820 O.2    98  ALA98      -0.2715
     75  CB         3.9230  -49.5570  -22.2230 C.3    98  ALA98       0.0334
     76  N          6.9280  -47.9560  -21.5510 N.am   99  TYR99      -0.1960
     77  CA         8.3680  -47.8300  -21.8170 C.3    99  TYR99       0.1771
     78  C          8.9190  -49.2020  -22.2340 C.2    99  TYR99       0.2619
     79  O          9.2600  -50.0230  -21.3830 O.2    99  TYR99      -0.2715
     80  CB         9.0390  -47.2990  -20.5350 C.3    99  TYR99       0.0574
     81  CG        10.5200  -46.9770  -20.5480 C.ar   99  TYR99      -0.0198
     82  CD1       11.2200  -46.8070  -19.3590 C.ar   99  TYR99      -0.0009
     83  CD2       11.1940  -46.7240  -21.7390 C.ar   99  TYR99      -0.0009
     84  CE1       12.5640  -46.4550  -19.3530 C.ar   99  TYR99       0.0417
     85  CE2       12.5460  -46.3900  -21.7450 C.ar   99  TYR99       0.0417
     86  CZ        13.2250  -46.2550  -20.5470 C.ar   99  TYR99       0.1957
     87  OH        14.5590  -45.9480  -20.5170 O.3    99  TYR99      -0.2866
     88  N          8.9730  -49.4340  -23.5610 N.am  100  ILE100     -0.1977
     89  CA         9.4110  -50.6630  -24.2400 C.3   100  ILE100      0.1596
     90  C         10.7340  -51.1900  -23.6760 C.2   100  ILE100      0.2287
     91  O         10.8030  -52.3650  -23.2960 O.2   100  ILE100     -0.2864
     92  CB         9.4950  -50.4330  -25.7830 C.3   100  ILE100      0.0276
     93  CG1        8.1080  -50.1470  -26.4330 C.3   100  ILE100      0.0022
     94  CG2       10.2470  -51.5410  -26.5240 C.3   100  ILE100      0.0022
     95  CD1        6.8430  -50.9180  -25.8830 C.3   100  ILE100      0.0001
     96  N          5.7510  -46.8720  -16.0180 N.3   109  TYR109     -0.1227
     97  CA         6.6840  -46.5320  -14.9270 C.3   109  TYR109      0.1736
     98  C          6.2660  -45.3470  -14.0750 C.2   109  TYR109      0.2595
     99  O          5.8170  -44.3220  -14.5960 O.2   109  TYR109     -0.2718
    100  CB         8.0840  -46.2550  -15.4740 C.3   109  TYR109      0.0548
    101  CG         8.8200  -47.5110  -15.8640 C.ar  109  TYR109     -0.0200
    102  CD1        9.9520  -47.9210  -15.1710 C.ar  109  TYR109     -0.0009
    103  CD2        8.3720  -48.3060  -16.9140 C.ar  109  TYR109     -0.0009
    104  CE1       10.6220  -49.0990  -15.5140 C.ar  109  TYR109      0.0417
    105  CE2        9.0220  -49.4880  -17.2580 C.ar  109  TYR109      0.0417
    106  CZ        10.1530  -49.8740  -16.5650 C.ar  109  TYR109      0.1957
    107  OH        10.7670  -51.0430  -16.9140 O.3   109  TYR109     -0.2866
    108  N          6.4360  -45.5170  -12.7370 N.am  110  PHE110     -0.1962
    109  CA         6.1190  -44.5400  -11.7000 C.3   110  PHE110      0.1771
    110  C          7.2410  -44.4650  -10.7050 C.2   110  PHE110      0.2619
    111  O          7.8750  -45.4830  -10.4460 O.2   110  PHE110     -0.2715
    112  CB         4.8010  -44.9150  -10.9910 C.3   110  PHE110      0.0574
    113  CG         3.5950  -44.7930  -11.8840 C.ar  110  PHE110     -0.0200
    114  CD1        2.8320  -43.6290  -11.8940 C.ar  110  PHE110     -0.0042
    115  CD2        3.2210  -45.8390  -12.7210 C.ar  110  PHE110     -0.0042
    116  CE1        1.7260  -43.5090  -12.7280 C.ar  110  PHE110     -0.0003
    117  CE2        2.1060  -45.7180  -13.5650 C.ar  110  PHE110     -0.0003
    118  CZ         1.3840  -44.5420  -13.5790 C.ar  110  PHE110     -0.0000
    119  N          7.4590  -43.2710  -10.1050 N.am  111  ALA111     -0.1977
    120  CA         8.5270  -43.0410   -9.1170 C.3   111  ALA111      0.1597
    121  C          8.0310  -42.4700   -7.7700 C.2   111  ALA111      0.2287
    122  O          7.0430  -41.7380   -7.7060 O.2   111  ALA111     -0.2864
    123  CB         9.5610  -42.1060   -9.7060 C.3   111  ALA111      0.0319
    124  N         13.1820  -38.1480   -9.7230 N.3   116  LYS116     -0.1231
    125  CA        13.2960  -39.2520  -10.6780 C.3   116  LYS116      0.1693
    126  C         12.3270  -39.0120  -11.8540 C.2   116  LYS116      0.2592
    127  O         12.7390  -39.0740  -13.0120 O.2   116  LYS116     -0.2718
    128  CB        13.0410  -40.6150   -9.9870 C.3   116  LYS116      0.0285
    129  CG        12.8950  -41.8680  -10.8870 C.3   116  LYS116      0.0035
    130  CD        13.9730  -42.0370  -11.9520 C.3   116  LYS116      0.0206
    131  CE        15.3340  -42.4360  -11.4450 C.3   116  LYS116      0.1093
    132  NZ        16.3360  -42.4090  -12.5260 N.3   116  LYS116     -0.1314
    133  N         11.0580  -38.6920  -11.5490 N.am  117  SER117     -0.1952
    134  CA        10.0140  -38.4150  -12.5420 C.3   117  SER117      0.1924
    135  C         10.3410  -37.1890  -13.4320 C.2   117  SER117      0.2314
    136  O         10.0340  -37.2120  -14.6260 O.2   117  SER117     -0.2863
    137  CB         8.6880  -38.2200  -11.8430 C.3   117  SER117      0.2116
    138  OG         8.2570  -39.5080  -11.4650 O.3   117  SER117     -0.2180
    139  N         12.0680  -37.4270  -16.9850 N.3   120  TYR120     -0.1241
    140  CA        11.2450  -37.8910  -18.1060 C.3   120  TYR120      0.1605
    141  C         10.2240  -36.8330  -18.6160 C.2   120  TYR120      0.2264
    142  O          9.5180  -37.0830  -19.5970 O.2   120  TYR120     -0.2867
    143  CB        10.5310  -39.1760  -17.6990 C.3   120  TYR120      0.0534
    144  CG        11.4880  -40.3210  -17.4340 C.ar  120  TYR120     -0.0201
    145  CD1       11.7990  -41.2420  -18.4330 C.ar  120  TYR120     -0.0009
    146  CD2       12.0430  -40.5170  -16.1680 C.ar  120  TYR120     -0.0009
    147  CE1       12.6410  -42.3260  -18.1810 C.ar  120  TYR120      0.0417
    148  CE2       12.9370  -41.5660  -15.9210 C.ar  120  TYR120      0.0417
    149  CZ        13.2330  -42.4660  -16.9320 C.ar  120  TYR120      0.1957
    150  OH        14.0770  -43.5180  -16.6930 O.3   120  TYR120     -0.2866
    151  N         11.2430  -36.3200  -21.9760 N.3   123  GLY123     -0.1210
    152  CA        11.5770  -37.6060  -22.5820 C.3   123  GLY123      0.1956
    153  C         12.5940  -38.4330  -21.8250 C.2   123  GLY123      0.2611
    154  O         12.9840  -38.0790  -20.7210 O.2   123  GLY123     -0.2717
    155  N         13.0420  -39.5530  -22.4120 N.am  124  ILE124     -0.1979
    156  CA        14.0490  -40.4360  -21.8120 C.3   124  ILE124      0.1595
    157  C         15.3840  -39.6930  -21.8530 C.2   124  ILE124      0.2287
    158  O         15.6920  -39.0340  -22.8660 O.2   124  ILE124     -0.2864
    159  CB        14.0890  -41.8100  -22.5520 C.3   124  ILE124      0.0276
    160  CG1       12.7900  -42.6180  -22.2970 C.3   124  ILE124      0.0022
    161  CG2       15.3300  -42.6300  -22.1550 C.3   124  ILE124      0.0022
    162  CD1       12.2990  -43.3950  -23.4880 C.3   124  ILE124      0.0001
    163  N         10.8550  -47.5800   -7.7240 N.3   183  GLU183     -0.1245
    164  CA        10.1640  -47.3950   -8.9950 C.3   183  GLU183      0.1567
    165  C          9.0760  -48.4570   -9.1260 C.2   183  GLU183      0.2260
    166  O          9.2670  -49.5910   -8.6930 O.2   183  GLU183     -0.2867
    167  CB        11.1410  -47.4730  -10.1710 C.3   183  GLU183      0.0388
    168  CG        11.9240  -46.1920  -10.3960 C.3   183  GLU183      0.1160
    169  CD        12.8870  -46.2540  -11.5590 C.2   183  GLU183      0.3649
    170  OE1       13.9910  -45.6730  -11.4430 O.co2 183  GLU183     -0.2457
    171  OE2       12.5530  -46.9110  -12.5730 O.co2 183  GLU183     -0.2457
@<TRIPOS>BOND
     1    59    58    1
     2    60    58    1
     3    58    57    2
     4    57    56    1
     5    56    55    1
     6    54    55    1
     7    54    51    1
     8    94    92    1
     9    93    95    1
    10    93    92    1
    11    47    49   ar
    12    47    45   ar
    13    51    50    1
    14    51    52    1
    15    92    89    1
    16    49    48   ar
    17    45    44   ar
    18    53    52    2
    19    52    61   am
    20    89    90    1
    21    89    88    1
    22    48    46   ar
    23    44    46   ar
    24    44    43    1
    25    74    73    2
    26    90    91    2
    27    61    62    1
    28    36    37    1
    29    36    33    1
    30    88    78   am
    31    35    34    2
    32   162   160    1
    33    37    38    1
    34    43    40    1
    35    34    39   am
    36    34    33    1
    37    70    69   ar
    38    70    68   ar
    39    40    39    1
    40    40    41    1
    41   158   157    2
    42    69    67   ar
    43   152   151    1
    44   152   153    1
    45   159   160    1
    46   159   161    1
    47   159   156    1
    48    68    66   ar
    49    62    63    1
    50    62    65    1
    51    73    72    1
    52    73    76   am
    53    33    32    1
    54   155   153   am
    55   155   156    1
    56    71    72    1
    57    71    63   am
    58    78    77    1
    59    78    79    2
    60    75    72    1
    61    67    66   ar
    62    66    65    1
    63    38    32    1
    64   157   156    1
    65   153   154    2
    66    63    64    2
    67    77    76    1
    68    77    80    1
    69    41    42    2
    70    85    83   ar
    71    85    86   ar
    72    83    81   ar
    73    32    28   am
    74    31    30    1
    75    81    80    1
    76    81    82   ar
    77    86    87    1
    78    86    84   ar
    79    28    29    2
    80    28    27    1
    81   142   141    2
    82    82    84   ar
    83    30    27    1
    84    27    26    1
    85   141   140    1
    86   145   147   ar
    87   145   144   ar
    88   147   149   ar
    89   140   143    1
    90   140   139    1
    91    26    24   am
    92   143   144    1
    93   144   146   ar
    94    21    20   ar
    95    21    19   ar
    96   105   103   ar
    97   105   106   ar
    98    25    24    2
    99   149   150    1
   100   149   148   ar
   101   107   106    1
   102   103   101   ar
   103    24    23    1
   104    20    18   ar
   105   106   104   ar
   106    19    17   ar
   107   146   148   ar
   108    96    97    1
   109   101   100    1
   110   101   102   ar
   111   104   102   ar
   112    23    22    1
   113   100    97    1
   114    18    17   ar
   115    17    16    1
   116    97    98    1
   117   136   135    2
   118    99    98    2
   119    22    14   am
   120    15    14    2
   121    14    13    1
   122    98   108   am
   123    16    13    1
   124   118   117   ar
   125   118   116   ar
   126   117   115   ar
   127   135   134    1
   128    13    12    1
   129   127   126    2
   130   108   109    1
   131   116   114   ar
   132   115   113   ar
   133   171   169   ar
   134   134   137    1
   135   134   133    1
   136   132   131    1
   137   130   131    1
   138   130   129    1
   139   114   113   ar
   140   113   112    1
   141    12     3   am
   142   126   133   am
   143   126   125    1
   144   137   138    1
   145   109   112    1
   146   109   110    1
   147   169   170   ar
   148   169   168    1
   149     4     3    2
   150   129   128    1
   151     3     2    1
   152   110   111    2
   153   110   119   am
   154   125   128    1
   155   125   124    1
   156   168   167    1
   157   167   164    1
   158   119   120    1
   159   123   120    1
   160     2     5    1
   161     2     1    1
   162     5     6    1
   163   165   164    1
   164   165   166    2
   165   120   121    1
   166   164   163    1
   167     6     7   ar
   168     6     8   ar
   169     7     9   ar
   170   121   122    2
   171     9    11   ar
   172     8    10   ar
   173    11    10   ar
