@<TRIPOS>MOLECULE
tmp/3p0qB00.pdb
 163 165 0 0 0
SMALL
GASTEIGER

@<TRIPOS>ATOM
      1  N          4.7710  -40.4240   -8.3870 N.3    79  PHE79      -0.1227
      2  CA         5.0240  -39.5100   -9.5130 C.3    79  PHE79       0.1736
      3  C          5.1640  -40.1890  -10.8830 C.2    79  PHE79       0.2595
      4  O          5.6930  -41.3300  -11.0120 O.2    79  PHE79      -0.2718
      5  CB         6.2190  -38.6060   -9.2230 C.3    79  PHE79       0.0547
      6  CG         6.0330  -37.7870   -7.9990 C.ar   79  PHE79      -0.0202
      7  CD1        5.1850  -36.6760   -8.0250 C.ar   79  PHE79      -0.0042
      8  CD2        6.6360  -38.1440   -6.7850 C.ar   79  PHE79      -0.0042
      9  CE1        5.0070  -35.9390   -6.9310 C.ar   79  PHE79      -0.0003
     10  CE2        6.4470  -37.4060   -5.6900 C.ar   79  PHE79      -0.0003
     11  CZ         5.6280  -36.2810   -5.7450 C.ar   79  PHE79      -0.0000
     12  N          4.7500  -39.4570  -11.9180 N.am   80  HIS80      -0.1961
     13  CA         4.9850  -39.8760  -13.2880 C.3    80  HIS80       0.1787
     14  C          5.4010  -38.6730  -14.1330 C.2    80  HIS80       0.2621
     15  O          4.6920  -37.6490  -14.1170 O.2    80  HIS80      -0.2715
     16  CB         3.7230  -40.4800  -13.8880 C.3    80  HIS80       0.0785
     17  CG         3.9160  -41.0000  -15.2790 C.ar   80  HIS80       0.0821
     18  ND1        4.4430  -42.2590  -15.5480 N.ar   80  HIS80      -0.2267
     19  CD2        3.6450  -40.4410  -16.4860 C.ar   80  HIS80       0.1154
     20  CE1        4.5120  -42.4310  -16.8580 C.ar   80  HIS80       0.1986
     21  NE2        4.0290  -41.3490  -17.4550 N.ar   80  HIS80      -0.2212
     22  N          6.5080  -38.8100  -14.8620 N.am   81  GLY81      -0.1940
     23  CA         7.0410  -37.7610  -15.7120 C.3    81  GLY81       0.2014
     24  C          6.9750  -38.2300  -17.1520 C.2    81  GLY81       0.2640
     25  O          7.3630  -39.3750  -17.4380 O.2    81  GLY81      -0.2714
     26  N          6.4550  -37.3880  -18.0530 N.am   82  SER82      -0.1936
     27  CA         6.3280  -37.7670  -19.4500 C.3    82  SER82       0.2040
     28  C          6.0360  -36.5700  -20.3390 C.2    82  SER82       0.2485
     29  O          5.2920  -35.6710  -19.9210 O.2    82  SER82      -0.2729
     30  CB         5.1640  -38.7780  -19.5940 C.3    82  SER82       0.2129
     31  OG         4.6900  -38.8850  -20.9330 O.3    82  SER82      -0.2179
     32  N          6.5300  -36.5940  -21.5790 N.am   83  PRO83      -0.2715
     33  CA         6.0740  -35.5950  -22.5480 C.3    83  PRO83       0.1536
     34  C          4.6250  -35.7730  -23.0070 C.2    83  PRO83       0.2598
     35  O          4.1290  -34.9290  -23.7390 O.2    83  PRO83      -0.2715
     36  CB         7.0350  -35.7650  -23.7330 C.3    83  PRO83       0.0310
     37  CG         7.6430  -37.1260  -23.5760 C.3    83  PRO83       0.0237
     38  CD         7.5140  -37.5500  -22.1500 C.3    83  PRO83       0.0939
     39  N          3.9350  -36.8250  -22.5850 N.am   84  PHE84      -0.1974
     40  CA         2.5580  -37.0800  -23.0140 C.3    84  PHE84       0.1639
     41  C          1.5240  -36.7750  -21.9210 C.2    84  PHE84       0.2290
     42  O          0.4060  -37.3000  -21.9590 O.2    84  PHE84      -0.2864
     43  CB         2.4330  -38.5410  -23.4410 C.3    84  PHE84       0.0560
     44  CG         3.5430  -38.9970  -24.3740 C.ar   84  PHE84      -0.0200
     45  CD1        3.8100  -38.2980  -25.5410 C.ar   84  PHE84      -0.0042
     46  CD2        4.3070  -40.1300  -24.0790 C.ar   84  PHE84      -0.0042
     47  CE1        4.8390  -38.7170  -26.4150 C.ar   84  PHE84      -0.0003
     48  CE2        5.3400  -40.5580  -24.9440 C.ar   84  PHE84      -0.0003
     49  CZ         5.5950  -39.8420  -26.1170 C.ar   84  PHE84      -0.0000
     50  N          0.7630  -46.7230  -25.1590 N.3    96  ARG96      -0.1231
     51  CA         1.5500  -45.6040  -25.7180 C.3    96  ARG96       0.1694
     52  C          2.4040  -44.9080  -24.6620 C.2    96  ARG96       0.2592
     53  O          3.4180  -44.2880  -24.9930 O.2    96  ARG96      -0.2718
     54  CB         0.6500  -44.5580  -26.3580 C.3    96  ARG96       0.0321
     55  CG        -0.0670  -45.0320  -27.6120 C.3    96  ARG96       0.0489
     56  CD        -0.9640  -43.9130  -28.1490 C.3    96  ARG96       0.2205
     57  NE        -2.0570  -43.6080  -27.2200 N.pl3  96  ARG96      -0.0865
     58  CZ        -3.3590  -43.5840  -27.5290 C.cat  96  ARG96       0.5346
     59  NH1       -4.2560  -43.2970  -26.5790 N.pl3  96  ARG96       0.1354
     60  NH2       -3.7890  -43.8190  -28.7690 N.pl3  96  ARG96       0.1354
     61  N          1.9990  -45.0110  -23.3930 N.am   97  HIS97      -0.1962
     62  CA         2.7470  -44.3640  -22.2760 C.3    97  HIS97       0.1787
     63  C          3.7900  -45.2830  -21.6030 C.2    97  HIS97       0.2620
     64  O          4.4800  -44.8950  -20.6360 O.2    97  HIS97      -0.2715
     65  CB         1.7440  -43.7130  -21.3170 C.3    97  HIS97       0.0785
     66  CG         0.7230  -42.9000  -22.0530 C.ar   97  HIS97       0.0821
     67  ND1       -0.6340  -43.1110  -21.9310 N.ar   97  HIS97      -0.2267
     68  CD2        0.8680  -41.9620  -23.0200 C.ar   97  HIS97       0.1154
     69  CE1       -1.2810  -42.3090  -22.7580 C.ar   97  HIS97       0.1986
     70  NE2       -0.3950  -41.6010  -23.4300 N.ar   97  HIS97      -0.2212
     71  N          3.9620  -46.4700  -22.1940 N.am   98  ALA98      -0.1963
     72  CA         4.9270  -47.4410  -21.7190 C.3    98  ALA98       0.1728
     73  C          6.3200  -47.0380  -22.1670 C.2    98  ALA98       0.2616
     74  O          6.5090  -46.3630  -23.1890 O.2    98  ALA98      -0.2715
     75  CB         4.5840  -48.8600  -22.2040 C.3    98  ALA98       0.0334
     76  N          7.2980  -47.4600  -21.3830 N.am   99  TYR99      -0.1974
     77  CA         8.6780  -47.2230  -21.6780 C.3    99  TYR99       0.1639
     78  C          9.2230  -48.5810  -22.0590 C.2    99  TYR99       0.2290
     79  O          9.5140  -49.4180  -21.1690 O.2    99  TYR99      -0.2864
     80  CB         9.3550  -46.6630  -20.4300 C.3    99  TYR99       0.0560
     81  CG        10.8310  -46.4940  -20.5080 C.ar   99  TYR99      -0.0198
     82  CD1       11.5790  -46.4530  -19.3440 C.ar   99  TYR99      -0.0009
     83  CD2       11.5010  -46.3830  -21.7360 C.ar   99  TYR99      -0.0009
     84  CE1       12.9280  -46.2740  -19.3750 C.ar   99  TYR99       0.0417
     85  CE2       12.8760  -46.2180  -21.7780 C.ar   99  TYR99       0.0417
     86  CZ        13.5810  -46.1710  -20.6000 C.ar   99  TYR99       0.1957
     87  OH        14.9250  -45.9970  -20.5790 O.3    99  TYR99      -0.2866
     88  N          5.9940  -46.6660  -15.8920 N.3   109  TYR109     -0.1227
     89  CA         6.8860  -46.4430  -14.7690 C.3   109  TYR109      0.1736
     90  C          6.4630  -45.2690  -13.9010 C.2   109  TYR109      0.2595
     91  O          6.0500  -44.2490  -14.4350 O.2   109  TYR109     -0.2718
     92  CB         8.2650  -46.1440  -15.3060 C.3   109  TYR109      0.0548
     93  CG         8.9590  -47.3810  -15.8100 C.ar  109  TYR109     -0.0200
     94  CD1       10.1300  -47.8200  -15.2140 C.ar  109  TYR109     -0.0009
     95  CD2        8.4570  -48.1020  -16.8790 C.ar  109  TYR109     -0.0009
     96  CE1       10.7760  -48.9820  -15.6660 C.ar  109  TYR109      0.0417
     97  CE2        9.1210  -49.2810  -17.3510 C.ar  109  TYR109      0.0417
     98  CZ        10.2650  -49.7040  -16.7260 C.ar  109  TYR109      0.1957
     99  OH        10.9440  -50.8660  -17.1470 O.3   109  TYR109     -0.2866
    100  N          6.6090  -45.4250  -12.5870 N.am  110  PHE110     -0.1962
    101  CA         6.2470  -44.4350  -11.5850 C.3   110  PHE110      0.1771
    102  C          7.4040  -44.3840  -10.6130 C.2   110  PHE110      0.2619
    103  O          8.1910  -45.3550  -10.4920 O.2   110  PHE110     -0.2715
    104  CB         4.9410  -44.8140  -10.8920 C.3   110  PHE110      0.0574
    105  CG         3.7640  -44.7860  -11.8010 C.ar  110  PHE110     -0.0200
    106  CD1        3.0570  -43.6180  -11.9880 C.ar  110  PHE110     -0.0042
    107  CD2        3.3720  -45.9360  -12.5010 C.ar  110  PHE110     -0.0042
    108  CE1        1.9740  -43.5590  -12.8190 C.ar  110  PHE110     -0.0003
    109  CE2        2.3100  -45.8890  -13.3940 C.ar  110  PHE110     -0.0003
    110  CZ         1.5920  -44.6860  -13.5530 C.ar  110  PHE110     -0.0000
    111  N          7.5460  -43.2660   -9.9090 N.am  111  ALA111     -0.1977
    112  CA         8.6560  -43.0870   -8.9760 C.3   111  ALA111      0.1597
    113  C          8.1950  -42.4880   -7.6480 C.2   111  ALA111      0.2287
    114  O          7.2980  -41.6330   -7.6110 O.2   111  ALA111     -0.2864
    115  CB         9.7430  -42.1780   -9.6210 C.3   111  ALA111      0.0319
    116  N         13.1950  -38.1430   -9.9040 N.3   116  LYS116     -0.1231
    117  CA        13.3830  -39.2470  -10.8730 C.3   116  LYS116      0.1693
    118  C         12.3620  -39.0140  -12.0100 C.2   116  LYS116      0.2592
    119  O         12.7080  -39.0270  -13.1650 O.2   116  LYS116     -0.2718
    120  CB        13.1470  -40.6110  -10.1900 C.3   116  LYS116      0.0285
    121  CG        13.0010  -41.8290  -11.1120 C.3   116  LYS116      0.0035
    122  CD        14.1360  -41.9600  -12.1370 C.3   116  LYS116      0.0206
    123  CE        15.4400  -42.2400  -11.5040 C.3   116  LYS116      0.1093
    124  NZ        16.5010  -42.5360  -12.6010 N.3   116  LYS116     -0.1314
    125  N         11.1060  -38.7900  -11.6510 N.am  117  SER117     -0.1952
    126  CA        10.0910  -38.4560  -12.6570 C.3   117  SER117      0.1924
    127  C         10.4860  -37.2020  -13.4540 C.2   117  SER117      0.2314
    128  O         10.2430  -37.1560  -14.6620 O.2   117  SER117     -0.2863
    129  CB         8.7040  -38.3060  -11.9930 C.3   117  SER117      0.2116
    130  OG         8.2570  -39.5310  -11.4710 O.3   117  SER117     -0.2180
    131  N         12.2450  -37.4370  -16.8690 N.3   120  TYR120     -0.1241
    132  CA        11.5060  -37.9770  -18.0110 C.3   120  TYR120      0.1605
    133  C         10.5290  -36.9720  -18.6420 C.2   120  TYR120      0.2264
    134  O          9.8880  -37.2690  -19.6570 O.2   120  TYR120     -0.2867
    135  CB        10.7420  -39.2510  -17.6510 C.3   120  TYR120      0.0534
    136  CG        11.6770  -40.4030  -17.3940 C.ar  120  TYR120     -0.0201
    137  CD1       12.0980  -41.2200  -18.4430 C.ar  120  TYR120     -0.0009
    138  CD2       12.2420  -40.5900  -16.1470 C.ar  120  TYR120     -0.0009
    139  CE1       13.0170  -42.2640  -18.2320 C.ar  120  TYR120      0.0417
    140  CE2       13.1830  -41.6040  -15.9290 C.ar  120  TYR120      0.0417
    141  CZ        13.5550  -42.4440  -16.9800 C.ar  120  TYR120      0.1957
    142  OH        14.4730  -43.4560  -16.7770 O.3   120  TYR120     -0.2866
    143  N         11.3910  -36.3150  -22.0820 N.3   123  GLY123     -0.1210
    144  CA        11.6020  -37.5690  -22.8160 C.3   123  GLY123      0.1956
    145  C         12.5960  -38.4810  -22.1060 C.2   123  GLY123      0.2611
    146  O         13.1140  -38.1210  -21.0680 O.2   123  GLY123     -0.2717
    147  N         12.8450  -39.6670  -22.6560 N.am  124  ILE124     -0.1979
    148  CA        13.8780  -40.5750  -22.1260 C.3   124  ILE124      0.1595
    149  C         15.2320  -39.8570  -22.0240 C.2   124  ILE124      0.2287
    150  O         15.6910  -39.2120  -22.9700 O.2   124  ILE124     -0.2864
    151  CB        13.9930  -41.8430  -22.9910 C.3   124  ILE124      0.0276
    152  CG1       12.6530  -42.5890  -23.1070 C.3   124  ILE124      0.0022
    153  CG2       15.0720  -42.7810  -22.4580 C.3   124  ILE124      0.0022
    154  CD1       11.9580  -42.9700  -21.8180 C.3   124  ILE124      0.0001
    155  N         11.2350  -47.3250   -7.7560 N.3   185  GLU185     -0.1245
    156  CA        10.4430  -47.1800   -8.9450 C.3   185  GLU185      0.1567
    157  C          9.4760  -48.3590   -9.0410 C.2   185  GLU185      0.2260
    158  O          9.7290  -49.4290   -8.4660 O.2   185  GLU185     -0.2867
    159  CB        11.3660  -46.9870  -10.1570 C.3   185  GLU185      0.0388
    160  CG        12.3750  -45.8190   -9.8160 C.3   185  GLU185      0.1160
    161  CD        13.6880  -45.7280  -10.6100 C.2   185  GLU185      0.3649
    162  OE1       14.7830  -45.5510   -9.9140 O.co2 185  GLU185     -0.2457
    163  OE2       13.5780  -45.6890  -11.8790 O.co2 185  GLU185     -0.2457
@<TRIPOS>BOND
     1    60    58    1
     2    56    55    1
     3    56    57    1
     4    55    54    1
     5    58    57    2
     6    58    59    1
     7    47    49   ar
     8    47    45   ar
     9    54    51    1
    10    49    48   ar
    11    51    50    1
    12    51    52    1
    13    45    44   ar
    14    53    52    2
    15    48    46   ar
    16    52    61   am
    17    44    46   ar
    18    44    43    1
    19    35    34    2
    20    36    37    1
    21    36    33    1
    22    37    38    1
    23    43    40    1
    24    70    68   ar
    25    70    69   ar
    26    61    62    1
    27    74    73    2
    28   152   151    1
    29   152   154    1
    30    68    66   ar
    31    40    39    1
    32    40    41    1
    33    34    39   am
    34    34    33    1
    35   151   153    1
    36   151   148    1
    37   150   149    2
    38   144   145    1
    39   144   143    1
    40    69    67   ar
    41   147   148    1
    42   147   145   am
    43    33    32    1
    44    62    63    1
    45    62    65    1
    46    75    72    1
    47    71    72    1
    48    71    63   am
    49    73    72    1
    50    73    76   am
    51    38    32    1
    52   148   149    1
    53   145   146    2
    54    78    77    1
    55    78    79    2
    56    66    67   ar
    57    66    65    1
    58    42    41    2
    59    85    83   ar
    60    85    86   ar
    61    83    81   ar
    62    77    76    1
    63    77    80    1
    64    63    64    2
    65    32    28   am
    66    31    30    1
    67    86    87    1
    68    86    84   ar
    69    81    80    1
    70    81    82   ar
    71    28    29    2
    72    28    27    1
    73   134   133    2
    74    30    27    1
    75    27    26    1
    76    84    82   ar
    77   133   132    1
    78   137   139   ar
    79   137   136   ar
    80   139   141   ar
    81    26    24   am
    82   132   135    1
    83   132   131    1
    84   135   136    1
    85    21    20   ar
    86    21    19   ar
    87    25    24    2
    88   136   138   ar
    89    97    95   ar
    90    97    98   ar
    91    24    23    1
    92    99    98    1
    93   141   142    1
    94   141   140   ar
    95    95    93   ar
    96    20    18   ar
    97    98    96   ar
    98    19    17   ar
    99   138   140   ar
   100    88    89    1
   101    93    92    1
   102    93    94   ar
   103    23    22    1
   104    96    94   ar
   105    18    17   ar
   106    92    89    1
   107    17    16    1
   108    22    14   am
   109    89    90    1
   110   128   127    2
   111    91    90    2
   112    14    15    2
   113    14    13    1
   114    90   100   am
   115    16    13    1
   116   110   109   ar
   117   110   108   ar
   118   127   126    1
   119   109   107   ar
   120    13    12    1
   121   119   118    2
   122   108   106   ar
   123   126   129    1
   124   126   125    1
   125   124   123    1
   126   100   101    1
   127   107   105   ar
   128   122   123    1
   129   122   121    1
   130   118   125   am
   131   118   117    1
   132   129   130    1
   133   106   105   ar
   134    12     3   am
   135   163   161   ar
   136   105   104    1
   137   101   104    1
   138   101   102    1
   139   121   120    1
   140     4     3    2
   141     3     2    1
   142   117   120    1
   143   117   116    1
   144   102   103    2
   145   102   111   am
   146   161   162   ar
   147   161   160    1
   148   159   160    1
   149   159   156    1
   150   111   112    1
   151   115   112    1
   152     2     5    1
   153     2     1    1
   154     5     6    1
   155   157   156    1
   156   157   158    2
   157   112   113    1
   158   156   155    1
   159     7     6   ar
   160     7     9   ar
   161     6     8   ar
   162   113   114    2
   163     9    11   ar
   164     8    10   ar
   165    11    10   ar
