@<TRIPOS>MOLECULE
tmp/3p0xB00.pdb
 169 161 0 0 0
SMALL
GASTEIGER

@<TRIPOS>ATOM
      1  N         79.9500  151.6040   44.0220 N.3    80  TYR80      -0.1241
      2  CA        79.0860  150.9800   45.0260 C.3    80  TYR80       0.1605
      3  C         77.6370  151.0970   44.6040 C.2    80  TYR80       0.2264
      4  O         77.2120  152.1330   44.0970 O.2    80  TYR80      -0.2867
      5  CB        79.2920  151.6290   46.3880 C.3    80  TYR80       0.0534
      6  CG        78.4240  151.0450   47.4860 C.ar   80  TYR80      -0.0201
      7  CD1       78.6170  149.7380   47.9380 C.ar   80  TYR80      -0.0009
      8  CD2       77.4310  151.8010   48.0890 C.ar   80  TYR80      -0.0009
      9  CE1       77.8330  149.2050   48.9490 C.ar   80  TYR80       0.0417
     10  CE2       76.6240  151.2670   49.1060 C.ar   80  TYR80       0.0417
     11  CZ        76.8190  149.9820   49.5090 C.ar   80  TYR80       0.1957
     12  OH        76.0240  149.4970   50.4960 O.3    80  TYR80      -0.2866
     13  N         74.0150  150.9070   46.2180 N.3    82  SER82      -0.1202
     14  CA        73.3700  151.0370   47.5220 C.3    82  SER82       0.2020
     15  C         71.9630  150.5200   47.4550 C.2    82  SER82       0.2619
     16  O         71.2050  150.9500   46.5820 O.2    82  SER82      -0.2717
     17  CB        73.3150  152.5170   47.9490 C.3    82  SER82       0.2103
     18  OG        72.3450  152.7070   48.9670 O.3    82  SER82      -0.2182
     19  N         71.6070  149.6360   48.3900 N.am   83  GLY83      -0.1942
     20  CA        70.2250  149.1730   48.5420 C.3    83  GLY83       0.2014
     21  C         69.2710  150.2890   48.9910 C.2    83  GLY83       0.2638
     22  O         68.1290  150.3760   48.5470 O.2    83  GLY83      -0.2714
     23  N         69.7490  151.1220   49.9070 N.am   84  TRP84      -0.1973
     24  CA        69.0450  152.3310   50.3410 C.3    84  TRP84       0.1640
     25  C         68.6260  153.1380   49.1110 C.2    84  TRP84       0.2290
     26  O         67.4820  153.5510   49.0030 O.2    84  TRP84      -0.2864
     27  CB        69.9670  153.1450   51.2530 C.3    84  TRP84       0.0576
     28  CG        69.2800  154.2090   52.0570 C.ar   84  TRP84       0.0006
     29  CD1       68.9800  154.1730   53.3920 C.ar   84  TRP84       0.0946
     30  CD2       68.7960  155.4770   51.5740 C.ar   84  TRP84       0.0152
     31  NE1       68.3130  155.3230   53.7560 N.ar   84  TRP84      -0.2442
     32  CE2       68.1980  156.1360   52.6570 C.ar   84  TRP84       0.0810
     33  CE3       68.7880  156.0980   50.3200 C.ar   84  TRP84       0.0012
     34  CZ2       67.6260  157.3890   52.5260 C.ar   84  TRP84       0.0191
     35  CZ3       68.2290  157.3310   50.1970 C.ar   84  TRP84       0.0001
     36  CH2       67.6500  157.9670   51.2840 C.ar   84  TRP84       0.0015
     37  N         64.5200  152.2850   53.6720 N.3    99  ASP99      -0.1239
     38  CA        65.5060  151.2160   53.5250 C.3    99  ASP99       0.1674
     39  C         65.1710  149.9980   54.3910 C.2    99  ASP99       0.2266
     40  O         65.8670  149.6950   55.3640 O.2    99  ASP99      -0.2867
     41  CB        66.8850  151.7640   53.8770 C.3    99  ASP99       0.1410
     42  CG        68.0070  150.8050   53.5480 C.2    99  ASP99       0.3668
     43  OD1       67.8530  149.9670   52.6400 O.co2  99  ASP99      -0.2456
     44  OD2       69.0600  150.9110   54.1970 O.co2  99  ASP99      -0.2456
     45  N         74.8850  145.6930   47.1580 N.3   145  ASP145     -0.1239
     46  CA        74.1420  145.4090   48.3750 C.3   145  ASP145      0.1674
     47  C         73.0560  144.3370   48.1310 C.2   145  ASP145      0.2266
     48  O         72.0870  144.5710   47.4020 O.2   145  ASP145     -0.2867
     49  CB        73.5100  146.7530   48.8390 C.3   145  ASP145      0.1410
     50  CG        72.8510  146.6870   50.2170 C.2   145  ASP145      0.3668
     51  OD1       72.7130  145.5890   50.7900 O.co2 145  ASP145     -0.2456
     52  OD2       72.4600  147.7580   50.7480 O.co2 145  ASP145     -0.2456
     53  N         77.4660  142.2760   49.1960 N.3   172  HIS172     -0.1241
     54  CA        77.4190  142.1880   50.6430 C.3   172  HIS172      0.1621
     55  C         76.0960  141.7190   51.2320 C.2   172  HIS172      0.2264
     56  O         75.0130  142.0030   50.7090 O.2   172  HIS172     -0.2867
     57  CB        77.9130  143.4590   51.2990 C.3   172  HIS172      0.0745
     58  CG        77.0280  144.6470   51.1290 C.ar  172  HIS172      0.0817
     59  ND1       75.9350  144.8730   51.9320 N.ar  172  HIS172     -0.2268
     60  CD2       77.1540  145.7420   50.3450 C.ar  172  HIS172      0.1154
     61  CE1       75.3980  146.0340   51.6180 C.ar  172  HIS172      0.1986
     62  NE2       76.1200  146.5860   50.6600 N.ar  172  HIS172     -0.2212
     63  N         74.2000  141.1570   55.1090 N.3   174  GLU174     -0.1245
     64  CA        74.2270  141.5350   56.5210 C.3   174  GLU174      0.1567
     65  C         73.4260  140.5890   57.4240 C.2   174  GLU174      0.2260
     66  O         72.5040  139.9280   56.9760 O.2   174  GLU174     -0.2867
     67  CB        73.7130  142.9580   56.6990 C.3   174  GLU174      0.0388
     68  CG        72.1740  143.1170   56.5200 C.3   174  GLU174      0.1160
     69  CD        71.7850  144.4360   55.8520 C.2   174  GLU174      0.3649
     70  OE1       72.6690  145.0780   55.2370 O.co2 174  GLU174     -0.2457
     71  OE2       70.5950  144.8240   55.9220 O.co2 174  GLU174     -0.2457
     72  N         64.2730  144.1690   58.2320 N.3   181  LYS181     -0.1245
     73  CA        65.4850  144.8530   57.8030 C.3   181  LYS181      0.1561
     74  C         65.3400  146.3740   57.9070 C.2   181  LYS181      0.2260
     75  O         64.2920  146.9290   57.5870 O.2   181  LYS181     -0.2867
     76  CB        65.8230  144.4480   56.3600 C.3   181  LYS181      0.0271
     77  CG        67.1570  145.0090   55.7970 C.3   181  LYS181      0.0035
     78  CD        66.9950  146.3980   55.1660 C.3   181  LYS181      0.0206
     79  CE        68.2880  146.8940   54.4670 C.3   181  LYS181      0.1093
     80  NZ        69.4040  147.2450   55.4230 N.3   181  LYS181     -0.1314
     81  N         67.7780  150.2290   57.5410 N.3   183  CYS183     -0.1221
     82  CA        69.0530  150.9110   57.3420 C.3   183  CYS183      0.1808
     83  C         69.9040  150.6790   58.5910 C.2   183  CYS183      0.2602
     84  O         69.3860  150.6790   59.7170 O.2   183  CYS183     -0.2717
     85  CB        68.8460  152.3990   57.1160 C.3   183  CYS183      0.0970
     86  SG        70.3800  153.3190   57.0160 S.3   183  CYS183     -0.0800
     87  N         71.1980  150.4640   58.3760 N.am  184  GLY184     -0.1942
     88  CA        72.1340  150.2240   59.4690 C.3   184  GLY184      0.2014
     89  C         72.1770  151.3300   60.5030 C.2   184  GLY184      0.2638
     90  O         72.5810  151.0850   61.6450 O.2   184  GLY184     -0.2714
     91  N         71.7510  152.5370   60.1210 N.am  185  HIS185     -0.1973
     92  CA        71.7820  153.6940   61.0410 C.3   185  HIS185      0.1656
     93  C         70.4200  154.1420   61.5670 C.2   185  HIS185      0.2291
     94  O         70.2970  155.2560   62.0730 O.2   185  HIS185     -0.2864
     95  CB        72.5280  154.8560   60.3740 C.3   185  HIS185      0.0771
     96  CG        73.8910  154.4640   59.9280 C.ar  185  HIS185      0.0820
     97  ND1       74.2200  154.2840   58.6060 N.ar  185  HIS185     -0.2267
     98  CD2       74.9740  154.0900   60.6430 C.ar  185  HIS185      0.1154
     99  CE1       75.4700  153.8680   58.5240 C.ar  185  HIS185      0.1986
    100  NE2       75.9500  153.7410   59.7470 N.ar  185  HIS185     -0.2212
    101  N         78.5940  141.6340   56.4920 N.3   220  ARG220     -0.1245
    102  CA        78.3670  142.8080   57.3080 C.3   220  ARG220      0.1563
    103  C         77.7020  142.4230   58.6420 C.2   220  ARG220      0.2260
    104  O         76.8380  141.5200   58.6750 O.2   220  ARG220     -0.2867
    105  CB        77.5060  143.8110   56.5460 C.3   220  ARG220      0.0307
    106  CG        76.8020  144.8140   57.4190 C.3   220  ARG220      0.0489
    107  CD        76.0990  145.8370   56.5790 C.3   220  ARG220      0.2205
    108  NE        74.9520  146.4040   57.2870 N.pl3 220  ARG220     -0.0865
    109  CZ        74.2360  147.4300   56.8400 C.cat 220  ARG220      0.5346
    110  NH1       74.5410  148.0030   55.6790 N.pl3 220  ARG220      0.1354
    111  NH2       73.2090  147.8820   57.5580 N.pl3 220  ARG220      0.1354
    112  N         82.7310  143.7150   57.3030 N.3   277  TRP277     -0.1241
    113  CA        82.2560  145.0860   57.5290 C.3   277  TRP277      0.1605
    114  C         81.4320  145.1870   58.8110 C.2   277  TRP277      0.2264
    115  O         80.4830  144.4180   59.0150 O.2   277  TRP277     -0.2867
    116  CB        81.4640  145.4970   56.3040 C.3   277  TRP277      0.0550
    117  CG        80.5850  146.6980   56.3680 C.ar  277  TRP277      0.0003
    118  CD1       80.6160  147.7180   57.2600 C.ar  277  TRP277      0.0946
    119  CD2       79.5610  147.0150   55.4290 C.ar  277  TRP277      0.0152
    120  NE1       79.6400  148.6340   56.9640 N.ar  277  TRP277     -0.2442
    121  CE2       78.9920  148.2340   55.8250 C.ar  277  TRP277      0.0810
    122  CE3       79.0780  146.3850   54.2810 C.ar  277  TRP277      0.0012
    123  CZ2       77.9560  148.8470   55.1070 C.ar  277  TRP277      0.0191
    124  CZ3       78.0470  146.9820   53.5740 C.ar  277  TRP277      0.0001
    125  CH2       77.4880  148.1970   53.9950 C.ar  277  TRP277      0.0015
    126  N         79.0490  147.9060   60.7110 N.3   279  GLU279     -0.1245
    127  CA        78.3440  149.1950   60.6790 C.3   279  GLU279      0.1567
    128  C         78.6120  149.9650   61.9580 C.2   279  GLU279      0.2260
    129  O         78.5640  149.3800   63.0460 O.2   279  GLU279     -0.2867
    130  CB        76.8290  149.0080   60.5560 C.3   279  GLU279      0.0388
    131  CG        76.3440  148.7570   59.1540 C.3   279  GLU279      0.1160
    132  CD        76.2760  150.0160   58.3020 C.2   279  GLU279      0.3649
    133  OE1       77.3400  150.4770   57.8560 O.co2 279  GLU279     -0.2457
    134  OE2       75.1520  150.5210   58.0750 O.co2 279  GLU279     -0.2457
    135  N         81.9190  151.8020   55.8020 N.3   307  ASN307     -0.1240
    136  CA        80.9020  152.7160   55.2840 C.3   307  ASN307      0.1653
    137  C         81.1240  154.1170   55.8320 C.2   307  ASN307      0.2266
    138  O         80.8420  154.3800   56.9870 O.2   307  ASN307     -0.2867
    139  CB        79.5050  152.2140   55.6720 C.3   307  ASN307      0.1155
    140  CG        78.3720  153.1690   55.2570 C.2   307  ASN307      0.2627
    141  OD1       78.5690  154.1670   54.5390 O.2   307  ASN307     -0.2716
    142  ND2       77.1630  152.8470   55.7130 N.am  307  ASN307     -0.0877
    143  N         79.4870  156.9840   56.1120 N.3   309  SER309     -0.1217
    144  CA        78.0700  157.2400   55.9200 C.3   309  SER309      0.1889
    145  C         77.6410  158.7000   55.9370 C.2   309  SER309      0.2288
    146  O         77.9720  159.4420   56.8640 O.2   309  SER309     -0.2866
    147  CB        77.2490  156.5240   56.9780 C.3   309  SER309      0.2089
    148  OG        75.8720  156.7180   56.6800 O.3   309  SER309     -0.2183
    149  N         74.7270  159.2940   56.7550 N.3   311  SER311     -0.1217
    150  CA        73.8560  159.2780   57.9370 C.3   311  SER311      0.1889
    151  C         74.6050  159.8350   59.1450 C.2   311  SER311      0.2288
    152  O         74.0530  159.8800   60.2370 O.2   311  SER311     -0.2866
    153  CB        73.3360  157.8640   58.2310 C.3   311  SER311      0.2089
    154  OG        72.6170  157.2990   57.1190 O.3   311  SER311     -0.2183
    155  N         77.9810  155.3380   50.8940 N.3   341  THR341     -0.1203
    156  CA        76.7430  154.7220   50.4620 C.3   341  THR341      0.1994
    157  C         75.7710  155.6420   49.7180 C.2   341  THR341      0.2617
    158  O         75.3280  155.2870   48.6430 O.2   341  THR341     -0.2717
    159  CB        75.9970  154.1160   51.6510 C.3   341  THR341      0.1784
    160  OG1       75.8780  155.1040   52.6800 O.3   341  THR341     -0.2211
    161  CG2       76.7340  152.8660   52.2040 C.3   341  THR341      0.0376
    162  N         75.4300  156.8020   50.2780 N.am  342  LEU342     -0.1979
    163  CA        74.2970  157.5750   49.7620 C.3   342  LEU342      0.1596
    164  C         74.6700  158.8020   48.9200 C.2   342  LEU342      0.2287
    165  O         73.8320  159.6830   48.6920 O.2   342  LEU342     -0.2864
    166  CB        73.3540  157.9580   50.9030 C.3   342  LEU342      0.0297
    167  CG        72.8500  156.8100   51.7930 C.3   342  LEU342      0.0022
    168  CD1       71.7170  157.2890   52.6920 C.3   342  LEU342      0.0001
    169  CD2       72.3830  155.6400   50.9500 C.3   342  LEU342      0.0001
@<TRIPOS>BOND
     1     1     2    1
     2     4     3    2
     3     3     2    1
     4     2     5    1
     5    13    14    1
     6     5     6    1
     7    16    15    2
     8    45    46    1
     9    48    47    2
    10    15    14    1
    11    15    19   am
    12     6     7   ar
    13     6     8   ar
    14    14    17    1
    15     7     9   ar
    16    17    18    1
    17     8    10   ar
    18    47    46    1
    19    46    49    1
    20    19    20    1
    21    20    21    1
    22    22    21    2
    23   158   157    2
    24   165   164    2
    25    49    50    1
    26   164   163    1
    27     9    11   ar
    28    21    23   am
    29    26    25    2
    30    10    11   ar
    31    25    24    1
    32    53    54    1
    33    11    12    1
    34   157   162   am
    35   157   156    1
    36   163   162    1
    37   163   166    1
    38    23    24    1
    39    35    33   ar
    40    35    36   ar
    41    50    52   ar
    42    50    51   ar
    43    33    30   ar
    44    24    27    1
    45    60    62   ar
    46    60    58   ar
    47   156   155    1
    48   156   159    1
    49    54    55    1
    50    54    57    1
    51    62    61   ar
    52    56    55    2
    53   166   167    1
    54   169   167    1
    55    58    57    1
    56    58    59   ar
    57    27    28    1
    58    36    34   ar
    59    30    28   ar
    60    30    32   ar
    61    61    59   ar
    62   159   161    1
    63   159   160    1
    64   167   168    1
    65    28    29   ar
    66    34    32   ar
    67    43    42   ar
    68    32    31   ar
    69    29    31   ar
    70    38    37    1
    71    38    41    1
    72    38    39    1
    73    42    41    1
    74    42    44   ar
    75   124   125   ar
    76   124   122   ar
    77   125   123   ar
    78   122   119   ar
    79    39    40    2
    80    79    78    1
    81    79    80    1
    82   141   140    2
    83   123   121   ar
    84    63    64    1
    85    78    77    1
    86    70    69   ar
    87   140   139    1
    88   140   142   am
    89   136   139    1
    90   136   135    1
    91   136   137    1
    92   119   121   ar
    93   119   117   ar
    94   110   109    1
    95    77    76    1
    96   121   120   ar
    97   137   138    2
    98    69    71   ar
    99    69    68    1
   100   144   145    1
   101   144   143    1
   102   144   147    1
   103   145   146    2
   104   116   117    1
   105   116   113    1
   106    76    73    1
   107   117   118   ar
   108   101   102    1
   109    68    67    1
   110    64    67    1
   111    64    65    1
   112   105   102    1
   113   105   106    1
   114   107   108    1
   115   107   106    1
   116   148   147    1
   117   149   150    1
   118   109   108    2
   119   109   111    1
   120   120   118   ar
   121    66    65    2
   122    86    85    1
   123    85    82    1
   124   154   153    1
   125   112   113    1
   126   102   103    1
   127    82    81    1
   128    82    83    1
   129   113   114    1
   130    75    74    2
   131    73    74    1
   132    73    72    1
   133   133   132   ar
   134   150   153    1
   135   150   151    1
   136   134   132   ar
   137   132   131    1
   138    87    83   am
   139    87    88    1
   140    99    97   ar
   141    99   100   ar
   142    83    84    2
   143    97    96   ar
   144   103   104    2
   145   114   115    2
   146   151   152    2
   147   131   130    1
   148    88    89    1
   149   100    98   ar
   150    96    95    1
   151    96    98   ar
   152    91    89   am
   153    91    92    1
   154    95    92    1
   155    89    90    2
   156   130   127    1
   157   127   126    1
   158   127   128    1
   159    92    93    1
   160    93    94    2
   161   128   129    2
