@<TRIPOS>MOLECULE
tmp/3p10A00.pdb
 72 69 0 0 0
SMALL
GASTEIGER

@<TRIPOS>ATOM
      1  N         19.8770  -30.3410   -3.2540 N.3   102  ALA102     -0.1231
      2  CA        19.5240  -29.0790   -2.5770 C.3   102  ALA102      0.1694
      3  C         20.5130  -28.7610   -1.4600 C.2   102  ALA102      0.2591
      4  O         20.8260  -29.6130   -0.6350 O.2   102  ALA102     -0.2718
      5  CB        18.0980  -29.1850   -1.9890 C.3   102  ALA102      0.0304
      6  N         21.0130  -27.5140   -1.4320 N.am  103  GLN103     -0.1979
      7  CA        21.8710  -27.0690   -0.3370 C.3   103  GLN103      0.1601
      8  C         21.0830  -27.0660    0.9860 C.2   103  GLN103      0.2287
      9  O         21.6140  -27.4020    2.0510 O.2   103  GLN103     -0.2864
     10  CB        22.4050  -25.6560   -0.6840 C.3   103  GLN103      0.0394
     11  CG        23.5310  -25.1240    0.2380 C.3   103  GLN103      0.0908
     12  CD        23.0500  -24.4180    1.5040 C.2   103  GLN103      0.2608
     13  OE1       21.9660  -23.8090    1.5540 O.2   103  GLN103     -0.2717
     14  NE2       23.8880  -24.4630    2.5300 N.am  103  GLN103     -0.0878
     15  N         16.5070  -26.6910    2.3870 N.3   105  PRO105     -0.2102
     16  CA        16.6100  -27.1270    3.7870 C.3   105  PRO105      0.1504
     17  C         17.0010  -28.6060    3.8770 C.2   105  PRO105      0.2576
     18  O         17.2340  -29.2610    2.8170 O.2   105  PRO105     -0.2718
     19  CB        15.1810  -26.9140    4.3200 C.3   105  PRO105      0.0282
     20  CG        14.3040  -27.1440    3.0880 C.3   105  PRO105      0.0208
     21  CD        15.1040  -26.6420    1.9040 C.3   105  PRO105      0.0893
     22  N         17.1210  -29.1110    5.1090 N.am  106  LYS106     -0.1966
     23  CA        17.3620  -30.5410    5.3250 C.3   106  LYS106      0.1728
     24  C         16.1360  -31.2960    4.8770 C.2   106  LYS106      0.2616
     25  O         15.0110  -31.0270    5.3410 O.2   106  LYS106     -0.2715
     26  CB        17.6310  -30.8510    6.8120 C.3   106  LYS106      0.0311
     27  CG        18.7160  -29.9950    7.4150 C.3   106  LYS106      0.0038
     28  CD        20.1040  -30.5180    7.1100 C.3   106  LYS106      0.0206
     29  CE        21.1280  -29.7910    8.0040 C.3   106  LYS106      0.1093
     30  NZ        22.5030  -30.1990    7.5960 N.3   106  LYS106     -0.1314
     31  N         16.3600  -32.2530    3.9810 N.am  107  LEU107     -0.1963
     32  CA        15.2680  -33.0180    3.3870 C.3   107  LEU107      0.1728
     33  C         15.0090  -34.3280    4.0820 C.2   107  LEU107      0.2616
     34  O         13.9170  -34.9040    3.9430 O.2   107  LEU107     -0.2715
     35  CB        15.5580  -33.2680    1.9080 C.3   107  LEU107      0.0311
     36  CG        15.6360  -31.9470    1.1240 C.3   107  LEU107      0.0022
     37  CD1       16.1710  -32.2250   -0.3080 C.3   107  LEU107      0.0001
     38  CD2       14.3130  -31.1160    1.1090 C.3   107  LEU107      0.0001
     39  N         16.0070  -34.8300    4.8190 N.am  108  ALA108     -0.1977
     40  CA        15.8730  -36.1680    5.4480 C.3   108  ALA108      0.1597
     41  C         14.5740  -36.4150    6.2240 C.2   108  ALA108      0.2287
     42  O         13.9780  -37.5030    6.0430 O.2   108  ALA108     -0.2864
     43  CB        17.1050  -36.5040    6.3210 C.3   108  ALA108      0.0319
     44  N         11.7160  -37.2410    3.5630 N.3   111  ILE111     -0.1245
     45  CA        11.9170  -38.1470    2.4610 C.3   111  ILE111      0.1561
     46  C         10.9530  -39.3250    2.5090 C.2   111  ILE111      0.2260
     47  O         10.4220  -39.7050    1.5130 O.2   111  ILE111     -0.2867
     48  CB        13.3910  -38.6280    2.4070 C.3   111  ILE111      0.0252
     49  CG1       14.3000  -37.4680    1.9910 C.3   111  ILE111      0.0019
     50  CG2       13.5250  -39.8870    1.5160 C.3   111  ILE111      0.0019
     51  CD1       14.6160  -37.3760    0.5420 C.3   111  ILE111      0.0001
     52  N         18.5710  -37.9280   -1.3400 N.3   133  ALA133     -0.1231
     53  CA        18.8900  -36.5060   -1.3220 C.3   133  ALA133      0.1694
     54  C         20.3960  -36.2730   -1.2750 C.2   133  ALA133      0.2592
     55  O         21.1650  -37.0950   -0.7180 O.2   133  ALA133     -0.2718
     56  CB        18.1630  -35.8050   -0.1570 C.3   133  ALA133      0.0304
     57  N         20.8240  -35.1540   -1.8560 N.am  134  LYS134     -0.1966
     58  CA        22.2490  -34.8340   -1.9830 C.3   134  LYS134      0.1728
     59  C         22.3860  -33.3390   -1.7890 C.2   134  LYS134      0.2616
     60  O         21.5000  -32.5760   -2.1830 O.2   134  LYS134     -0.2715
     61  CB        22.7830  -35.1340   -3.4110 C.3   134  LYS134      0.0311
     62  CG        22.8910  -36.6200   -3.7860 C.3   134  LYS134      0.0038
     63  CD        24.0040  -37.3260   -3.0010 C.3   134  LYS134      0.0206
     64  CE        25.3870  -36.7990   -3.3800 C.3   134  LYS134      0.1093
     65  NZ        26.3460  -37.6940   -2.6570 N.3   134  LYS134     -0.1314
     66  N         23.5260  -32.9030   -1.2450 N.am  135  THR135     -0.1951
     67  CA        23.8850  -31.5040   -1.4730 C.3   135  THR135      0.1897
     68  C         24.7300  -31.5380   -2.7600 C.2   135  THR135      0.2313
     69  O         25.0650  -32.6280   -3.2840 O.2   135  THR135     -0.2863
     70  CB        24.7350  -30.9160   -0.3150 C.3   135  THR135      0.1794
     71  OG1       26.0520  -31.4950   -0.3450 O.3   135  THR135     -0.2208
     72  CG2       24.0650  -31.1570    1.0190 C.3   135  THR135      0.0378
@<TRIPOS>BOND
     1    62    61    1
     2    62    63    1
     3    61    58    1
     4    64    63    1
     5    64    65    1
     6    69    68    2
     7     1     2    1
     8    68    67    1
     9     2     5    1
    10     2     3    1
    11    60    59    2
    12    58    57    1
    13    58    59    1
    14    57    54   am
    15    59    66   am
    16    67    66    1
    17    67    70    1
    18     3     6   am
    19     3     4    2
    20     6     7    1
    21    52    53    1
    22    53    54    1
    23    53    56    1
    24    54    55    2
    25    10     7    1
    26    10    11    1
    27    71    70    1
    28     7     8    1
    29    70    72    1
    30    37    36    1
    31    11    12    1
    32    51    49    1
    33     8     9    2
    34    38    36    1
    35    36    35    1
    36    12    13    2
    37    12    14   am
    38    47    46    2
    39    50    48    1
    40    21    15    1
    41    21    20    1
    42    35    32    1
    43    49    48    1
    44    15    16    1
    45    48    45    1
    46    45    46    1
    47    45    44    1
    48    18    17    2
    49    20    19    1
    50    32    31    1
    51    32    33    1
    52    16    17    1
    53    16    19    1
    54    17    22   am
    55    34    33    2
    56    31    24   am
    57    33    39   am
    58    39    40    1
    59    24    23    1
    60    24    25    2
    61    22    23    1
    62    23    26    1
    63    40    41    1
    64    40    43    1
    65    42    41    2
    66    26    27    1
    67    28    27    1
    68    28    29    1
    69    30    29    1
