@<TRIPOS>MOLECULE
tmp/3p10A01.pdb
 103 99 0 0 0
SMALL
GASTEIGER

@<TRIPOS>ATOM
      1  N          1.9800  -33.3800  -22.5660 N.3    62  HIS62      -0.1226
      2  CA         0.7720  -33.8730  -21.9110 C.3    62  HIS62       0.1752
      3  C         -0.0260  -32.8650  -21.1140 C.2    62  HIS62       0.2596
      4  O         -1.2440  -32.9760  -21.0790 O.2    62  HIS62      -0.2718
      5  CB         1.1280  -35.1000  -21.0460 C.3    62  HIS62       0.0759
      6  CG         1.3720  -36.3090  -21.8740 C.ar   62  HIS62       0.0818
      7  ND1        0.3610  -37.1720  -22.2330 N.ar   62  HIS62      -0.2268
      8  CD2        2.4930  -36.7580  -22.4910 C.ar   62  HIS62       0.1154
      9  CE1        0.8480  -38.1140  -23.0180 C.ar   62  HIS62       0.1986
     10  NE2        2.1430  -37.8790  -23.1980 N.ar   62  HIS62      -0.2212
     11  N          0.6490  -31.8660  -20.5370 N.am   63  PHE63      -0.1962
     12  CA         0.0020  -30.9290  -19.6070 C.3    63  PHE63       0.1771
     13  C          0.4260  -29.5370  -20.0200 C.2    63  PHE63       0.2620
     14  O          1.4060  -29.0200  -19.5310 O.2    63  PHE63      -0.2715
     15  CB         0.4100  -31.2530  -18.1540 C.3    63  PHE63       0.0574
     16  CG         0.1260  -32.6920  -17.7590 C.ar   63  PHE63      -0.0200
     17  CD1       -1.1580  -33.2130  -17.8570 C.ar   63  PHE63      -0.0042
     18  CD2        1.1450  -33.5200  -17.2870 C.ar   63  PHE63      -0.0042
     19  CE1       -1.4270  -34.5490  -17.5050 C.ar   63  PHE63      -0.0003
     20  CE2        0.8950  -34.8690  -16.9460 C.ar   63  PHE63      -0.0003
     21  CZ        -0.4020  -35.3760  -17.0360 C.ar   63  PHE63      -0.0000
     22  N         -0.3270  -28.9680  -20.9540 N.am   64  SER64      -0.1950
     23  CA        -0.0040  -27.6500  -21.5330 C.3    64  SER64       0.1924
     24  C          0.1640  -26.5860  -20.4340 C.2    64  SER64       0.2314
     25  O         -0.7640  -26.3680  -19.6550 O.2    64  SER64      -0.2863
     26  CB        -1.1270  -27.2450  -22.4910 C.3    64  SER64       0.2116
     27  OG        -0.9710  -25.9060  -22.9360 O.3    64  SER64      -0.2180
     28  N         -2.6440  -23.8600  -20.2640 N.3    67  ASP67      -0.1239
     29  CA        -3.9780  -24.2240  -19.7800 C.3    67  ASP67       0.1674
     30  C         -4.1520  -23.5590  -18.3970 C.2    67  ASP67       0.2266
     31  O         -3.2370  -23.6070  -17.5790 O.2    67  ASP67      -0.2867
     32  CB        -4.0970  -25.7490  -19.6660 C.3    67  ASP67       0.1410
     33  CG        -5.5260  -26.2270  -19.3870 C.2    67  ASP67       0.3668
     34  OD1       -6.1460  -25.8440  -18.3680 O.co2  67  ASP67      -0.2456
     35  OD2       -6.0270  -27.0510  -20.1770 O.co2  67  ASP67      -0.2456
     36  N         -5.7040  -24.5310  -15.8930 N.3    69  ARG69      -0.1231
     37  CA        -5.5720  -25.5550  -14.8470 C.3    69  ARG69       0.1694
     38  C         -4.1230  -25.7960  -14.4530 C.2    69  ARG69       0.2592
     39  O         -3.8460  -26.3090  -13.3640 O.2    69  ARG69      -0.2718
     40  CB        -6.2190  -26.8840  -15.2660 C.3    69  ARG69       0.0321
     41  CG        -7.7290  -26.9450  -15.0830 C.3    69  ARG69       0.0489
     42  CD        -8.2320  -28.4000  -15.1350 C.3    69  ARG69       0.2205
     43  NE        -7.9310  -29.0490  -16.4090 N.pl3  69  ARG69      -0.0865
     44  CZ        -7.9550  -30.3650  -16.6210 C.cat  69  ARG69       0.5346
     45  NH1       -8.2550  -31.2130  -15.6430 N.pl3  69  ARG69       0.1354
     46  NH2       -7.6650  -30.8400  -17.8250 N.pl3  69  ARG69       0.1354
     47  N         -3.1840  -25.4230  -15.3210 N.am   70  PHE70      -0.1976
     48  CA        -1.7850  -25.6350  -14.9830 C.3    70  PHE70       0.1639
     49  C         -1.3280  -24.6700  -13.8970 C.2    70  PHE70       0.2290
     50  O         -0.4290  -24.9890  -13.1270 O.2    70  PHE70      -0.2864
     51  CB        -0.8930  -25.4870  -16.2270 C.3    70  PHE70       0.0560
     52  CG         0.4970  -26.0360  -16.0440 C.ar   70  PHE70      -0.0200
     53  CD1        1.5550  -25.1840  -15.7290 C.ar   70  PHE70      -0.0042
     54  CD2        0.7530  -27.4020  -16.1930 C.ar   70  PHE70      -0.0042
     55  CE1        2.8560  -25.6910  -15.5420 C.ar   70  PHE70      -0.0003
     56  CE2        2.0530  -27.9160  -16.0170 C.ar   70  PHE70      -0.0003
     57  CZ         3.0980  -27.0550  -15.7030 C.ar   70  PHE70      -0.0000
     58  N         -1.0810  -25.8650  -10.3970 N.3    73  ALA73      -0.1231
     59  CA        -1.4600  -27.2970  -10.4640 C.3    73  ALA73       0.1694
     60  C         -0.7490  -28.1670   -9.4370 C.2    73  ALA73       0.2592
     61  O          0.4420  -28.0170   -9.2000 O.2    73  ALA73      -0.2718
     62  CB        -1.1970  -27.8490  -11.8560 C.3    73  ALA73       0.0304
     63  N         -1.5190  -29.0770   -8.8530 N.am   74  ASP74      -0.1974
     64  CA        -1.0160  -30.1170   -7.9400 C.3    74  ASP74       0.1709
     65  C         -0.2530  -31.1310   -8.7980 C.2    74  ASP74       0.2293
     66  O         -0.8350  -31.8740   -9.6140 O.2    74  ASP74      -0.2864
     67  CB        -2.2170  -30.7360   -7.2100 C.3    74  ASP74       0.1436
     68  CG        -1.8340  -31.8420   -6.2370 C.2    74  ASP74       0.3671
     69  OD1       -0.6670  -32.2760   -6.2140 O.co2  74  ASP74      -0.2456
     70  OD2       -2.7630  -32.3130   -5.5250 O.co2  74  ASP74      -0.2456
     71  N         -1.5120  -34.6310   -8.8260 N.3    77  ALA77      -0.1231
     72  CA        -2.6020  -34.9190   -9.7800 C.3    77  ALA77       0.1694
     73  C         -2.0290  -35.1220  -11.1870 C.2    77  ALA77       0.2591
     74  O         -2.4650  -36.0300  -11.9240 O.2    77  ALA77      -0.2718
     75  CB        -3.6470  -33.7940   -9.7410 C.3    77  ALA77       0.0304
     76  N         -1.0190  -34.3360  -11.5370 N.am   78  LEU78      -0.1980
     77  CA        -0.3130  -34.5580  -12.8170 C.3    78  LEU78       0.1596
     78  C          0.3480  -35.9450  -12.8690 C.2    78  LEU78       0.2287
     79  O          0.2330  -36.6890  -13.8690 O.2    78  LEU78      -0.2864
     80  CB         0.7220  -33.4560  -13.0860 C.3    78  LEU78       0.0297
     81  CG         0.1730  -32.0120  -13.1550 C.3    78  LEU78       0.0022
     82  CD1        1.3150  -31.1270  -13.5420 C.3    78  LEU78       0.0001
     83  CD2       -0.9880  -31.8870  -14.1290 C.3    78  LEU78       0.0001
     84  N         -2.2330  -38.6470  -13.3710 N.3    81  GLU81      -0.1245
     85  CA        -2.7290  -38.6910  -14.7370 C.3    81  GLU81       0.1567
     86  C         -1.6890  -39.2930  -15.7010 C.2    81  GLU81       0.2260
     87  O         -2.0330  -40.0540  -16.6120 O.2    81  GLU81      -0.2867
     88  CB        -3.2140  -37.3120  -15.2100 C.3    81  GLU81       0.0388
     89  CG        -3.7350  -37.2850  -16.7010 C.3    81  GLU81       0.1160
     90  CD        -4.8900  -38.2620  -16.9940 C.2    81  GLU81       0.3649
     91  OE1       -5.6430  -38.6570  -16.0730 O.co2  81  GLU81      -0.2457
     92  OE2       -5.0590  -38.6210  -18.1810 O.co2  81  GLU81      -0.2457
     93  N         -2.1280  -42.5880  -18.0710 N.3    85  ARG85      -0.1245
     94  CA        -1.8160  -42.6630  -19.5210 C.3    85  ARG85       0.1563
     95  C         -0.8070  -43.7870  -19.8370 C.2    85  ARG85       0.2260
     96  O         -0.9240  -44.4820  -20.8510 O.2    85  ARG85      -0.2867
     97  CB        -1.3450  -41.3060  -20.0450 C.3    85  ARG85       0.0307
     98  CG        -2.4710  -40.2710  -19.9270 C.3    85  ARG85       0.0489
     99  CD        -2.0790  -38.9030  -20.4540 C.3    85  ARG85       0.2205
    100  NE        -3.1360  -37.9530  -20.1450 N.pl3  85  ARG85      -0.0865
    101  CZ        -3.1120  -36.6620  -20.4340 C.cat  85  ARG85       0.5346
    102  NH1       -2.0760  -36.1450  -21.1160 N.pl3  85  ARG85       0.1354
    103  NH2       -4.1400  -35.8780  -20.0730 N.pl3  85  ARG85       0.1354
@<TRIPOS>BOND
     1    10     9   ar
     2    10     8   ar
     3     9     7   ar
     4    27    26    1
     5     1     2    1
     6    26    23    1
     7     8     6   ar
     8     7     6   ar
     9     2     3    1
    10     2     5    1
    11     6     5    1
    12    23    22    1
    13    23    24    1
    14   102   101    1
    15     3     4    2
    16     3    11   am
    17    22    13   am
    18    96    95    2
    19    11    12    1
    20    99   100    1
    21    99    98    1
    22   101   100    2
    23   101   103    1
    24    24    25    2
    25    28    29    1
    26    35    33   ar
    27    97    98    1
    28    97    94    1
    29    13    12    1
    30    13    14    2
    31    95    94    1
    32    29    32    1
    33    29    30    1
    34    32    33    1
    35    12    15    1
    36    94    93    1
    37    33    34   ar
    38    30    31    2
    39    92    90   ar
    40    15    16    1
    41    17    16   ar
    42    17    19   ar
    43    46    44    1
    44    16    18   ar
    45    19    21   ar
    46    18    20   ar
    47    21    20   ar
    48    90    89    1
    49    90    91   ar
    50    89    88    1
    51    44    43    2
    52    44    45    1
    53    87    86    2
    54    43    42    1
    55    51    52    1
    56    51    48    1
    57    54    52   ar
    58    54    56   ar
    59    52    53   ar
    60    56    57   ar
    61    36    37    1
    62    53    55   ar
    63    57    55   ar
    64    86    85    1
    65    47    48    1
    66    47    38   am
    67    40    41    1
    68    40    37    1
    69    88    85    1
    70    42    41    1
    71    48    49    1
    72    37    38    1
    73    85    84    1
    74    38    39    2
    75    83    81    1
    76    49    50    2
    77    79    78    2
    78    82    81    1
    79    81    80    1
    80    80    77    1
    81    78    77    1
    82    77    76    1
    83    74    73    2
    84    62    59    1
    85    76    73   am
    86    73    72    1
    87    59    58    1
    88    59    60    1
    89    72    75    1
    90    72    71    1
    91    66    65    2
    92    60    61    2
    93    60    63   am
    94    63    64    1
    95    65    64    1
    96    64    67    1
    97    67    68    1
    98    68    69   ar
    99    68    70   ar
