@<TRIPOS>MOLECULE
tmp/3p1cB00.pdb
 85 81 0 0 0
SMALL
GASTEIGER

@<TRIPOS>ATOM
      1  N         -7.4730  -20.8320    5.5080 N.3    26  PRO26      -0.2102
      2  CA        -7.2710  -19.6830    6.3900 C.3    26  PRO26       0.1504
      3  C         -6.3620  -18.5900    5.8280 C.2    26  PRO26       0.2575
      4  O         -6.2510  -17.4970    6.4250 O.2    26  PRO26      -0.2718
      5  CB        -6.6450  -20.2940    7.6820 C.3    26  PRO26       0.0282
      6  CG        -6.8800  -21.7760    7.5700 C.3    26  PRO26       0.0208
      7  CD        -6.9000  -22.0600    6.0620 C.3    26  PRO26       0.0893
      8  N         -5.7670  -18.8730    4.6680 N.am   27  PHE27      -0.1977
      9  CA        -4.8740  -17.9570    3.9660 C.3    27  PHE27       0.1639
     10  C         -5.5180  -17.2990    2.7480 C.2    27  PHE27       0.2290
     11  O         -4.8930  -16.4600    2.1180 O.2    27  PHE27      -0.2864
     12  CB        -3.6050  -18.7300    3.5420 C.3    27  PHE27       0.0560
     13  CG        -2.8450  -19.3300    4.7220 C.ar   27  PHE27      -0.0200
     14  CD1       -1.8990  -18.6070    5.4000 C.ar   27  PHE27      -0.0042
     15  CD2       -3.0810  -20.6390    5.1140 C.ar   27  PHE27      -0.0042
     16  CE1       -1.1960  -19.1800    6.4890 C.ar   27  PHE27      -0.0003
     17  CE2       -2.3570  -21.2270    6.1650 C.ar   27  PHE27      -0.0003
     18  CZ        -1.4490  -20.4800    6.8670 C.ar   27  PHE27      -0.0000
     19  N         -6.6960  -11.7120    7.5380 N.3    31  VAL31      -0.1245
     20  CA        -7.1320  -12.0790    8.8740 C.3    31  VAL31       0.1561
     21  C         -7.9020  -10.8980    9.4170 C.2    31  VAL31       0.2260
     22  O         -7.3890   -9.7830    9.4290 O.2    31  VAL31      -0.2867
     23  CB        -5.9430  -12.4510    9.8090 C.3    31  VAL31       0.0252
     24  CG1       -6.4280  -12.6970   11.2180 C.3    31  VAL31       0.0019
     25  CG2       -5.2030  -13.6970    9.2970 C.3    31  VAL31       0.0019
     26  N        -12.9280  -12.8940   14.0410 N.3    36  LEU36      -0.1245
     27  CA       -12.5440  -14.2110   14.5090 C.3    36  LEU36       0.1561
     28  C        -12.3410  -14.2790   16.0340 C.2    36  LEU36       0.2260
     29  O        -12.1500  -15.3710   16.5790 O.2    36  LEU36      -0.2867
     30  CB       -11.2680  -14.6830   13.8000 C.3    36  LEU36       0.0270
     31  CG       -11.2180  -14.6800   12.2540 C.3    36  LEU36       0.0019
     32  CD1       -9.9450  -15.3800   11.7680 C.3    36  LEU36       0.0001
     33  CD2      -12.4530  -15.3120   11.5960 C.3    36  LEU36       0.0001
     34  N         -9.6960  -13.1910   17.7520 N.3    38  ILE38      -0.1245
     35  CA        -8.2930  -13.4200   18.0730 C.3    38  ILE38       0.1561
     36  C         -7.7250  -12.0010   18.1550 C.2    38  ILE38       0.2260
     37  O         -7.0010  -11.5410   17.2560 O.2    38  ILE38      -0.2867
     38  CB        -7.5410  -14.3070   17.0150 C.3    38  ILE38       0.0252
     39  CG1       -7.9080  -13.9250   15.5770 C.3    38  ILE38       0.0019
     40  CG2       -7.8490  -15.7820   17.2490 C.3    38  ILE38       0.0019
     41  CD1       -6.8990  -14.3510   14.5340 C.3    38  ILE38       0.0001
     42  N         -3.8830  -10.6210   17.4120 N.3    41  TYR41      -0.1241
     43  CA        -3.2150  -10.9220   16.1360 C.3    41  TYR41       0.1605
     44  C         -2.2630   -9.8140   15.6190 C.2    41  TYR41       0.2264
     45  O         -1.0730  -10.0890   15.3840 O.2    41  TYR41      -0.2867
     46  CB        -4.2680  -11.2790   15.0660 C.3    41  TYR41       0.0534
     47  CG        -3.6580  -11.7150   13.7630 C.ar   41  TYR41      -0.0201
     48  CD1       -3.1500  -13.0070   13.6180 C.ar   41  TYR41      -0.0009
     49  CD2       -3.5680  -10.8420   12.6840 C.ar   41  TYR41      -0.0009
     50  CE1       -2.5730  -13.4290   12.4190 C.ar   41  TYR41       0.0417
     51  CE2       -2.9940  -11.2530   11.4740 C.ar   41  TYR41       0.0417
     52  CZ        -2.5050  -12.5540   11.3490 C.ar   41  TYR41       0.1957
     53  OH        -1.9110  -12.9460   10.1800 O.3    41  TYR41      -0.2866
     54  N          2.1900  -16.8210    9.9640 N.3    80  ALA80      -0.1245
     55  CA         1.3440  -17.9080   10.5100 C.3    80  ALA80       0.1562
     56  C          2.1340  -18.7890   11.4800 C.2    80  ALA80       0.2260
     57  O          1.6370  -19.1770   12.5080 O.2    80  ALA80      -0.2867
     58  CB         0.7070  -18.7420    9.3670 C.3    80  ALA80       0.0290
     59  N          2.3500  -16.4570   14.6940 N.3    83  TYR83      -0.1227
     60  CA         1.1540  -16.2830   15.5290 C.3    83  TYR83       0.1736
     61  C          0.6010  -17.5700   16.1780 C.2    83  TYR83       0.2595
     62  O          0.1670  -17.5500   17.3380 O.2    83  TYR83      -0.2718
     63  CB         0.0170  -15.5980   14.7370 C.3    83  TYR83       0.0548
     64  CG        -1.2120  -15.3620   15.6220 C.ar   83  TYR83      -0.0200
     65  CD1       -1.1810  -14.4060   16.6220 C.ar   83  TYR83      -0.0009
     66  CD2       -2.3820  -16.1340   15.4890 C.ar   83  TYR83      -0.0009
     67  CE1       -2.3130  -14.2120   17.5090 C.ar   83  TYR83       0.0417
     68  CE2       -3.4950  -15.9400   16.3440 C.ar   83  TYR83       0.0417
     69  CZ        -3.4500  -14.9740   17.3400 C.ar   83  TYR83       0.1957
     70  OH        -4.5450  -14.8280   18.1540 O.3    83  TYR83      -0.2866
     71  N          0.5920  -18.6690   15.4330 N.am   84  ASN84      -0.1974
     72  CA        -0.0770  -19.9030   15.8580 C.3    84  ASN84       0.1688
     73  C          0.8990  -20.8240   16.5850 C.2    84  ASN84       0.2292
     74  O          2.0870  -20.8450   16.2580 O.2    84  ASN84      -0.2864
     75  CB        -0.6420  -20.6270   14.6390 C.3    84  ASN84       0.1181
     76  CG        -1.6090  -19.7800   13.8700 C.2    84  ASN84       0.2629
     77  OD1       -2.7440  -19.6150   14.2930 O.2    84  ASN84      -0.2716
     78  ND2       -1.1370  -19.1670   12.7530 N.am   84  ASN84      -0.0877
     79  N         -3.5690  -24.3670   12.1050 N.3    90  VAL90      -0.1245
     80  CA        -3.1140  -23.4260   11.1060 C.3    90  VAL90       0.1561
     81  C         -1.5690  -23.4410   10.9090 C.2    90  VAL90       0.2260
     82  O         -1.0620  -23.2910    9.7990 O.2    90  VAL90      -0.2867
     83  CB        -3.6620  -22.0200   11.4220 C.3    90  VAL90       0.0252
     84  CG1       -3.0900  -21.0050   10.4350 C.3    90  VAL90       0.0019
     85  CG2       -5.2400  -22.0450   11.4460 C.3    90  VAL90       0.0019
@<TRIPOS>BOND
     1    11    10    2
     2    10     9    1
     3    12     9    1
     4    12    13    1
     5     9     8    1
     6     8     3   am
     7    13    15   ar
     8    13    14   ar
     9    15    17   ar
    10    14    16   ar
    11     1     7    1
    12     1     2    1
    13     3     2    1
    14     3     4    2
    15     7     6    1
    16    17    18   ar
    17     2     5    1
    18    16    18   ar
    19    19    20    1
    20     6     5    1
    21    20    21    1
    22    20    23    1
    23    25    23    1
    24    58    55    1
    25    21    22    2
    26    82    81    2
    27    23    24    1
    28    54    55    1
    29    53    52    1
    30    84    83    1
    31    55    56    1
    32    81    80    1
    33    80    83    1
    34    80    79    1
    35    52    51   ar
    36    52    50   ar
    37    83    85    1
    38    51    49   ar
    39    56    57    2
    40    33    31    1
    41    32    31    1
    42    31    30    1
    43    50    48   ar
    44    49    47   ar
    45    78    76   am
    46    48    47   ar
    47    47    46    1
    48    30    27    1
    49    76    77    2
    50    76    75    1
    51    26    27    1
    52    27    28    1
    53    41    39    1
    54    75    72    1
    55    59    60    1
    56    63    60    1
    57    63    64    1
    58    46    43    1
    59    45    44    2
    60    71    72    1
    61    71    61   am
    62    66    64   ar
    63    66    68   ar
    64    60    61    1
    65    39    38    1
    66    44    43    1
    67    64    65   ar
    68    72    73    1
    69    28    29    2
    70    43    42    1
    71    61    62    2
    72    74    73    2
    73    68    69   ar
    74    65    67   ar
    75    38    40    1
    76    38    35    1
    77    37    36    2
    78    69    67   ar
    79    69    70    1
    80    34    35    1
    81    35    36    1
