@<TRIPOS>MOLECULE
tmp/3p1dA00.pdb
 85 81 0 0 0
SMALL
GASTEIGER

@<TRIPOS>ATOM
      1  N        -15.7770   24.2050   -6.9790 N.3    28  PRO28      -0.2102
      2  CA       -16.0890   24.3610   -5.5590 C.3    28  PRO28       0.1504
      3  C        -16.9110   23.2440   -4.9370 C.2    28  PRO28       0.2575
      4  O        -17.0890   23.2550   -3.7250 O.2    28  PRO28      -0.2718
      5  CB       -16.8670   25.6580   -5.4850 C.3    28  PRO28       0.0282
      6  CG       -16.8880   26.2570   -6.8530 C.3    28  PRO28       0.0208
      7  CD       -16.3760   25.2670   -7.8190 C.3    28  PRO28       0.0893
      8  N        -17.3600   22.2990   -5.7480 N.am   29  PHE29      -0.1977
      9  CA       -18.2690   21.2310   -5.3230 C.3    29  PHE29       0.1639
     10  C        -17.6020   19.8780   -5.3950 C.2    29  PHE29       0.2290
     11  O        -18.2230   18.8720   -5.0990 O.2    29  PHE29      -0.2864
     12  CB       -19.5140   21.2390   -6.2290 C.3    29  PHE29       0.0560
     13  CG       -20.2260   22.5210   -6.1910 C.ar   29  PHE29      -0.0200
     14  CD1      -21.0420   22.8200   -5.1110 C.ar   29  PHE29      -0.0042
     15  CD2      -19.9960   23.4860   -7.1560 C.ar   29  PHE29      -0.0042
     16  CE1      -21.6800   24.1000   -5.0100 C.ar   29  PHE29      -0.0003
     17  CE2      -20.6230   24.7280   -7.0680 C.ar   29  PHE29      -0.0003
     18  CZ       -21.4630   25.0300   -5.9930 C.ar   29  PHE29      -0.0000
     19  N        -17.0980   21.2680    1.7480 N.3    33  VAL33      -0.1245
     20  CA       -16.8010   22.5240    2.4200 C.3    33  VAL33       0.1561
     21  C        -16.1740   22.1380    3.7650 C.2    33  VAL33       0.2260
     22  O        -16.7260   21.3190    4.4950 O.2    33  VAL33      -0.2867
     23  CB       -18.0750   23.3920    2.6220 C.3    33  VAL33       0.0252
     24  CG1      -17.7750   24.6950    3.4360 C.3    33  VAL33       0.0019
     25  CG2      -18.7340   23.7380    1.2690 C.3    33  VAL33       0.0019
     26  N        -11.6820   27.1050    6.0300 N.3    38  LEU38      -0.1245
     27  CA       -12.1090   28.3770    5.4390 C.3    38  LEU38       0.1561
     28  C        -12.3270   29.4820    6.4400 C.2    38  LEU38       0.2260
     29  O        -12.4560   30.6260    6.0720 O.2    38  LEU38      -0.2867
     30  CB       -13.3930   28.1740    4.6500 C.3    38  LEU38       0.0270
     31  CG       -13.2590   27.6270    3.2570 C.3    38  LEU38       0.0019
     32  CD1      -14.5980   27.0380    2.7950 C.3    38  LEU38       0.0001
     33  CD2      -12.6770   28.7270    2.2860 C.3    38  LEU38       0.0001
     34  N        -15.1340   29.8980    8.1820 N.3    40  ILE40      -0.1245
     35  CA       -16.5500   30.3120    8.1740 C.3    40  ILE40       0.1561
     36  C        -17.3170   29.4570    9.1950 C.2    40  ILE40       0.2260
     37  O        -18.0300   28.5230    8.8470 O.2    40  ILE40      -0.2867
     38  CB       -17.1640   30.2880    6.7990 C.3    40  ILE40       0.0252
     39  CG1      -16.9960   28.8860    6.1240 C.3    40  ILE40       0.0019
     40  CG2      -16.5490   31.3950    5.9610 C.3    40  ILE40       0.0019
     41  CD1      -17.7710   28.6980    4.8070 C.3    40  ILE40       0.0001
     42  N        -21.1110   28.2310    8.9820 N.3    43  TYR43      -0.1241
     43  CA       -21.5720   27.3920    7.8470 C.3    43  TYR43       0.1605
     44  C        -22.5030   26.2450    8.3130 C.2    43  TYR43       0.2264
     45  O        -23.5620   26.0260    7.7250 O.2    43  TYR43      -0.2867
     46  CB       -20.3690   26.8180    7.0660 C.3    43  TYR43       0.0534
     47  CG       -20.7670   25.9940    5.8050 C.ar   43  TYR43      -0.0201
     48  CD1      -21.1540   26.6450    4.6190 C.ar   43  TYR43      -0.0009
     49  CD2      -20.8330   24.5850    5.8380 C.ar   43  TYR43      -0.0009
     50  CE1      -21.5530   25.9190    3.4850 C.ar   43  TYR43       0.0417
     51  CE2      -21.2230   23.8440    4.7090 C.ar   43  TYR43       0.0417
     52  CZ       -21.5940   24.5180    3.5380 C.ar   43  TYR43       0.1957
     53  OH       -21.9850   23.8170    2.4240 O.3    43  TYR43      -0.2866
     54  N        -25.7440   25.5730   -1.2830 N.3    82  ALA82      -0.1245
     55  CA       -24.9730   26.6630   -1.8790 C.3    82  ALA82       0.1562
     56  C        -25.8320   27.9160   -2.0700 C.2    82  ALA82       0.2260
     57  O        -25.3950   29.0680   -1.8020 O.2    82  ALA82      -0.2867
     58  CB       -24.3570   26.2070   -3.2310 C.3    82  ALA82       0.0290
     59  N        -26.4540   29.5760    1.4410 N.3    85  TYR85      -0.1227
     60  CA       -25.3010   30.0790    2.1510 C.3    85  TYR85       0.1736
     61  C        -24.6310   31.2860    1.4910 C.2    85  TYR85       0.2595
     62  O        -24.1080   32.1500    2.1990 O.2    85  TYR85      -0.2718
     63  CB       -24.2770   28.9820    2.4650 C.3    85  TYR85       0.0548
     64  CG       -23.1760   29.5450    3.3460 C.ar   85  TYR85      -0.0200
     65  CD1      -23.3630   29.7080    4.7100 C.ar   85  TYR85      -0.0009
     66  CD2      -21.9770   29.9470    2.8000 C.ar   85  TYR85      -0.0009
     67  CE1      -22.3870   30.2440    5.4840 C.ar   85  TYR85       0.0417
     68  CE2      -20.9950   30.4790    3.5480 C.ar   85  TYR85       0.0417
     69  CZ       -21.2010   30.6510    4.9330 C.ar   85  TYR85       0.1957
     70  OH       -20.2340   31.2410    5.6980 O.3    85  TYR85      -0.2866
     71  N        -24.7070   31.3590    0.1570 N.am   86  ASN86      -0.1974
     72  CA       -23.9020   32.2490   -0.6460 C.3    86  ASN86       0.1688
     73  C        -24.7200   33.3260   -1.3220 C.2    86  ASN86       0.2292
     74  O        -25.9270   33.1460   -1.5850 O.2    86  ASN86      -0.2864
     75  CB       -23.0860   31.4600   -1.7190 C.3    86  ASN86       0.1181
     76  CG       -22.1870   30.3770   -1.0960 C.2    86  ASN86       0.2629
     77  OD1      -21.0530   30.6460   -0.7260 O.2    86  ASN86      -0.2716
     78  ND2      -22.6690   29.1590   -1.0450 N.am   86  ASN86      -0.0877
     79  N        -19.6430   31.0320   -6.1790 N.3    92  VAL92      -0.1245
     80  CA       -20.1950   29.7410   -5.8000 C.3    92  VAL92       0.1561
     81  C        -21.6540   29.5710   -6.2430 C.2    92  VAL92       0.2260
     82  O        -22.0460   28.5070   -6.7240 O.2    92  VAL92      -0.2867
     83  CB       -20.0080   29.4320   -4.2660 C.3    92  VAL92       0.0252
     84  CG1      -20.8360   28.1420   -3.8770 C.3    92  VAL92       0.0019
     85  CG2      -18.5790   29.1810   -3.9780 C.3    92  VAL92       0.0019
@<TRIPOS>BOND
     1     7     1    1
     2     7     6    1
     3    15    17   ar
     4    15    13   ar
     5    17    18   ar
     6     1     2    1
     7     6     5    1
     8    82    81    2
     9    81    80    1
    10    12    13    1
    11    12     9    1
    12    13    14   ar
    13    79    80    1
    14    18    16   ar
    15    80    83    1
    16     8     9    1
    17     8     3   am
    18     2     5    1
    19     2     3    1
    20    10     9    1
    21    10    11    2
    22    14    16   ar
    23     3     4    2
    24    83    85    1
    25    83    84    1
    26    58    55    1
    27    56    55    1
    28    56    57    2
    29    55    54    1
    30    75    76    1
    31    75    72    1
    32    74    73    2
    33    73    72    1
    34    76    78   am
    35    76    77    2
    36    72    71    1
    37    71    61   am
    38    25    23    1
    39    59    60    1
    40    61    60    1
    41    61    62    2
    42    19    20    1
    43    60    63    1
    44    33    31    1
    45    20    23    1
    46    20    21    1
    47    53    52    1
    48    63    64    1
    49    23    24    1
    50    32    31    1
    51    66    64   ar
    52    66    68   ar
    53    31    30    1
    54    64    65   ar
    55    50    52   ar
    56    50    48   ar
    57    52    51   ar
    58    68    69   ar
    59    21    22    2
    60    48    47   ar
    61    30    27    1
    62    51    49   ar
    63    65    67   ar
    64    41    39    1
    65    69    67   ar
    66    69    70    1
    67    27    26    1
    68    27    28    1
    69    47    49   ar
    70    47    46    1
    71    40    38    1
    72    29    28    2
    73    39    38    1
    74    38    35    1
    75    46    43    1
    76    45    44    2
    77    43    44    1
    78    43    42    1
    79    35    34    1
    80    35    36    1
    81    37    36    2
