@<TRIPOS>MOLECULE
tmp/3p1nA00.pdb
 154 144 0 0 0
SMALL
GASTEIGER

@<TRIPOS>ATOM
      1  N        -25.4210  -12.4630    2.7740 N.3    52  LYS52      -0.1245
      2  CA       -24.2320  -12.1650    3.6490 C.3    52  LYS52       0.1561
      3  C        -23.9470  -10.7180    3.5290 C.2    52  LYS52       0.2260
      4  O        -23.6300  -10.0470    4.5090 O.2    52  LYS52      -0.2867
      5  CB       -23.0460  -12.9580    3.2160 C.3    52  LYS52       0.0271
      6  CG       -21.8930  -12.8090    4.2520 C.3    52  LYS52       0.0035
      7  CD       -21.8780  -14.0930    5.1970 C.3    52  LYS52       0.0206
      8  CE       -23.2090  -14.6420    5.8320 C.3    52  LYS52       0.1093
      9  NZ       -23.0360  -16.0570    6.5010 N.3    52  LYS52      -0.1314
     10  N        -25.1660   -5.2670   10.0420 N.3    59  ARG59      -0.1245
     11  CA       -24.4360   -5.5790   11.2990 C.3    59  ARG59       0.1563
     12  C        -23.3700   -4.5230   11.5120 C.2    59  ARG59       0.2260
     13  O        -23.1890   -4.0620   12.6930 O.2    59  ARG59      -0.2867
     14  CB       -23.7680   -6.9580   11.1680 C.3    59  ARG59       0.0307
     15  CG       -24.8230   -8.0730   11.1800 C.3    59  ARG59       0.0489
     16  CD       -24.1550   -9.3890   10.6670 C.3    59  ARG59       0.2205
     17  NE       -23.1320   -9.8550   11.6410 N.pl3  59  ARG59      -0.0865
     18  CZ       -22.0620  -10.5570   11.2440 C.cat  59  ARG59       0.5346
     19  NH1      -21.7670  -10.7950    9.9680 N.pl3  59  ARG59       0.1354
     20  NH2      -21.2700  -11.0420   12.1980 N.pl3  59  ARG59       0.1354
     21  N        -23.2870   -2.0250   14.7930 N.3    63  ARG63      -0.1245
     22  CA       -22.1880   -1.9300   15.7610 C.3    63  ARG63       0.1563
     23  C        -21.7750   -0.4680   15.8980 C.2    63  ARG63       0.2260
     24  O        -21.4680   -0.0770   17.0480 O.2    63  ARG63      -0.2867
     25  CB       -21.0020   -2.7490   15.3070 C.3    63  ARG63       0.0307
     26  CG       -21.3120   -4.2830   15.4900 C.3    63  ARG63       0.0489
     27  CD       -20.0030   -5.1200   15.2210 C.3    63  ARG63       0.2205
     28  NE       -19.3550   -4.9660   13.8910 N.pl3  63  ARG63      -0.0865
     29  CZ       -19.6320   -5.7040   12.8270 C.cat  63  ARG63       0.5346
     30  NH1      -20.5790   -6.6400   12.8610 N.pl3  63  ARG63       0.1354
     31  NH2      -18.9740   -5.5770   11.7050 N.pl3  63  ARG63       0.1354
     32  N        -25.6570  -24.6650    8.1600 N.3   125  LYS125     -0.1245
     33  CA       -24.6990  -23.6050    8.4860 C.3   125  LYS125      0.1561
     34  C        -25.3870  -22.2840    8.3180 C.2   125  LYS125      0.2260
     35  O        -25.1820  -21.4240    9.2260 O.2   125  LYS125     -0.2867
     36  CB       -23.4580  -23.6950    7.5410 C.3   125  LYS125      0.0271
     37  CG       -22.4550  -22.5790    7.8070 C.3   125  LYS125      0.0035
     38  CD       -21.3620  -22.6190    6.7250 C.3   125  LYS125      0.0206
     39  CE       -20.4420  -21.4060    6.8730 C.3   125  LYS125      0.1093
     40  NZ       -21.1800  -20.1320    6.4310 N.3   125  LYS125     -0.1314
     41  N        -27.1820  -16.7730   14.7410 N.3   132  ARG132     -0.1231
     42  CA       -26.0750  -16.1130   15.3900 C.3   132  ARG132      0.1694
     43  C        -26.2130  -14.6030   15.2100 C.2   132  ARG132      0.2588
     44  O        -25.9460  -13.8490   16.1600 O.2   132  ARG132     -0.2718
     45  CB       -24.7220  -16.6540   14.8670 C.3   132  ARG132      0.0321
     46  CG       -23.4940  -15.8580   15.3490 C.3   132  ARG132      0.0489
     47  CD       -22.2180  -16.6700   15.1520 C.3   132  ARG132      0.2205
     48  NE       -21.9570  -16.9720   13.7270 N.pl3 132  ARG132     -0.0865
     49  CZ       -21.3330  -16.1910   12.8840 C.cat 132  ARG132      0.5346
     50  NH1      -20.8230  -14.9930   13.2610 N.pl3 132  ARG132      0.1354
     51  NH2      -21.1930  -16.6170   11.6310 N.pl3 132  ARG132      0.1354
     52  N        -26.5830  -14.1300   14.0010 N.am  133  TYR133     -0.2029
     53  CA       -26.7390  -12.6650   13.8660 C.3   133  TYR133      0.1325
     54  C        -27.9320  -12.2070   14.6690 C.3   133  TYR133      0.2039
     55  O        -27.7920  -11.0530   15.2510 O.3   133  TYR133     -0.2185
     56  CB       -26.9350  -12.3880   12.3450 C.3   133  TYR133      0.0507
     57  CG       -25.8240  -12.9070   11.4560 C.ar  133  TYR133     -0.0202
     58  CD1      -24.5060  -13.0180   11.9010 C.ar  133  TYR133     -0.0009
     59  CD2      -26.1220  -13.2670   10.1330 C.ar  133  TYR133     -0.0009
     60  CE1      -23.4900  -13.5530   11.0510 C.ar  133  TYR133      0.0417
     61  CE2      -25.1590  -13.7920    9.2930 C.ar  133  TYR133      0.0417
     62  CZ       -23.8450  -13.8970    9.7730 C.ar  133  TYR133      0.1957
     63  OH       -22.8820  -14.4600    8.9430 O.3   133  TYR133     -0.2866
     64  N        -26.5010  -11.7380   18.1720 N.3   136  GLU136     -0.1301
     65  CA       -25.6230  -10.6020   18.3820 C.3   136  GLU136      0.1252
     66  C        -26.4250   -9.3870   18.8780 C.3   136  GLU136      0.2009
     67  O        -25.7500   -8.5320   19.5150 O.3   136  GLU136     -0.2188
     68  CB       -24.9410  -10.2380   17.0630 C.3   136  GLU136      0.0335
     69  CG       -23.8440  -11.2050   16.6010 C.3   136  GLU136      0.1156
     70  CD       -23.2640  -10.8670   15.2840 C.2   136  GLU136      0.3649
     71  OE1      -23.7700  -10.0550   14.4720 O.co2 136  GLU136     -0.2457
     72  OE2      -22.1620  -11.3700   14.9100 O.co2 136  GLU136     -0.2457
     73  N        -15.6810  -23.9770    6.5150 N.3   174  GLY174     -0.1225
     74  CA       -16.3220  -22.7000    6.8810 C.3   174  GLY174      0.1811
     75  C        -17.3940  -22.8590    8.0010 C.2   174  GLY174      0.2280
     76  O        -17.4970  -21.9390    8.7990 O.2   174  GLY174     -0.2866
     77  N        -15.2680  -22.8950   11.0910 N.3   177  LEU177     -0.1231
     78  CA       -14.8500  -21.5360   11.3850 C.3   177  LEU177      0.1693
     79  C        -15.9670  -20.7150   12.0760 C.2   177  LEU177      0.2592
     80  O        -15.7360  -20.0720   13.1140 O.2   177  LEU177     -0.2718
     81  CB       -14.4370  -20.8410   10.0610 C.3   177  LEU177      0.0284
     82  CG       -14.0160  -19.3910   10.1990 C.3   177  LEU177      0.0019
     83  CD1      -12.5390  -19.3270   10.7210 C.3   177  LEU177      0.0001
     84  CD2      -14.0300  -18.7060    8.8140 C.3   177  LEU177      0.0001
     85  N        -17.1540  -20.8080   11.5130 N.am  178  ASN178     -0.1974
     86  CA       -18.2600  -19.9640   12.0590 C.3   178  ASN178      0.1688
     87  C        -18.7930  -20.5030   13.3740 C.2   178  ASN178      0.2292
     88  O        -19.1100  -19.7440   14.2560 O.2   178  ASN178     -0.2864
     89  CB       -19.3650  -19.8970   11.0520 C.3   178  ASN178      0.1181
     90  CG       -19.0220  -18.9750    9.8900 C.2   178  ASN178      0.2629
     91  OD1      -17.8620  -18.6120    9.6940 O.2   178  ASN178     -0.2716
     92  ND2      -20.0400  -18.6810    9.0780 N.am  178  ASN178     -0.0877
     93  N        -16.4130  -19.2550   15.8900 N.3   181  VAL181     -0.1245
     94  CA       -16.7520  -17.8370   16.2770 C.3   181  VAL181      0.1561
     95  C        -18.0210  -17.7950   17.1550 C.2   181  VAL181      0.2260
     96  O        -18.0300  -17.0000   18.1450 O.2   181  VAL181     -0.2867
     97  CB       -16.9940  -17.0290   14.9950 C.3   181  VAL181      0.0252
     98  CG1      -17.6180  -15.6450   15.3020 C.3   181  VAL181      0.0019
     99  CG2      -15.6840  -16.8340   14.2610 C.3   181  VAL181      0.0019
    100  N        -17.7420  -15.8270   20.7070 N.3   185  GLU185     -0.1245
    101  CA       -18.3410  -14.4330   20.7540 C.3   185  GLU185      0.1567
    102  C        -19.7020  -14.5680   21.3450 C.2   185  GLU185      0.2260
    103  O        -20.2220  -13.5140   21.8620 O.2   185  GLU185     -0.2867
    104  CB       -18.5590  -13.8980   19.2480 C.3   185  GLU185      0.0388
    105  CG       -17.4450  -13.5650   18.5510 C.3   185  GLU185      0.1160
    106  CD       -17.7780  -12.4690   17.6240 C.2   185  GLU185      0.3649
    107  OE1      -18.8470  -12.4470   16.8810 O.co2 185  GLU185     -0.2457
    108  OE2      -16.9300  -11.6080   17.6190 O.co2 185  GLU185     -0.2457
    109  N         -8.0740  -18.6620    7.4270 N.3   225  LEU225     -0.1245
    110  CA        -9.0220  -17.9710    8.2990 C.3   225  LEU225      0.1561
    111  C         -9.0260  -18.5630    9.7070 C.2   225  LEU225      0.2260
    112  O         -9.0900  -17.8250   10.6920 O.2   225  LEU225     -0.2867
    113  CB       -10.4640  -17.9820    7.7190 C.3   225  LEU225      0.0270
    114  CG       -10.5330  -17.3580    6.2850 C.3   225  LEU225      0.0019
    115  CD1      -11.9430  -17.5070    5.8210 C.3   225  LEU225      0.0001
    116  CD2      -10.0480  -15.8860    6.2990 C.3   225  LEU225      0.0001
    117  N         -5.9380  -17.3840   11.3160 N.3   228  ASP228     -0.1225
    118  CA        -6.0670  -15.9980   11.7010 C.3   228  ASP228      0.1805
    119  C         -6.8090  -15.8450   13.0060 C.2   228  ASP228      0.2597
    120  O         -6.4150  -15.0910   13.9110 O.2   228  ASP228     -0.2718
    121  CB        -6.8160  -15.1820   10.6530 C.3   228  ASP228      0.1424
    122  CG        -6.1190  -15.0260    9.3430 C.2   228  ASP228      0.3668
    123  OD1       -4.8420  -15.1590    9.3270 O.co2 228  ASP228     -0.2456
    124  OD2       -6.9090  -14.7340    8.4090 O.co2 228  ASP228     -0.2456
    125  N         -7.8820  -16.6060   13.2080 N.am  229  ASN229     -0.1974
    126  CA        -8.5940  -16.5210   14.4920 C.3   229  ASN229      0.1688
    127  C         -7.7690  -17.1070   15.6180 C.2   229  ASN229      0.2292
    128  O         -7.7480  -16.5380   16.6850 O.2   229  ASN229     -0.2864
    129  CB        -9.9600  -17.2470   14.3770 C.3   229  ASN229      0.1181
    130  CG       -10.9410  -16.4140   13.5550 C.2   229  ASN229      0.2629
    131  OD1      -10.6470  -15.2630   13.2380 O.2   229  ASN229     -0.2716
    132  ND2      -12.1170  -16.9560   13.3310 N.am  229  ASN229     -0.0877
    133  N         -5.3890  -14.4300   16.6850 N.3   232  LEU232     -0.1231
    134  CA        -6.0450  -13.3920   17.3950 C.3   232  LEU232      0.1693
    135  C         -6.4070  -13.8530   18.8220 C.2   232  LEU232      0.2592
    136  O         -6.3300  -13.0250   19.7930 O.2   232  LEU232     -0.2718
    137  CB        -7.3250  -12.9920   16.6140 C.3   232  LEU232      0.0284
    138  CG        -8.0700  -11.8560   17.2130 C.3   232  LEU232      0.0019
    139  CD1       -7.1880  -10.5940   17.0310 C.3   232  LEU232      0.0001
    140  CD2       -9.3560  -11.7480   16.3310 C.3   232  LEU232      0.0001
    141  N         -6.7920  -15.1130   19.0130 N.am  233  TRP233     -0.1976
    142  CA        -7.3450  -15.5550   20.3150 C.3   233  TRP233      0.1640
    143  C         -6.3350  -16.1260   21.2990 C.2   233  TRP233      0.2290
    144  O         -6.6890  -16.3330   22.4410 O.2   233  TRP233     -0.2864
    145  CB        -8.4290  -16.5880   19.9940 C.3   233  TRP233      0.0576
    146  CG        -9.6250  -16.0130   19.2680 C.ar  233  TRP233      0.0006
    147  CD1       -9.9940  -14.7330   19.1730 C.ar  233  TRP233      0.0946
    148  CD2      -10.5570  -16.8190   18.5300 C.ar  233  TRP233      0.0152
    149  NE1      -11.1740  -14.6810   18.4140 N.ar  233  TRP233     -0.2442
    150  CE2      -11.5170  -15.9580   18.0200 C.ar  233  TRP233      0.0810
    151  CE3      -10.6670  -18.1960   18.2970 C.ar  233  TRP233      0.0012
    152  CZ2      -12.6200  -16.4370   17.2650 C.ar  233  TRP233      0.0191
    153  CZ3      -11.7780  -18.6760   17.5330 C.ar  233  TRP233      0.0001
    154  CH2      -12.7060  -17.7590   17.0360 C.ar  233  TRP233      0.0015
@<TRIPOS>BOND
     1     1     2    1
     2     5     2    1
     3     5     6    1
     4     3     2    1
     5     3     4    2
     6     6     7    1
     7     7     8    1
     8   115   114    1
     9     8     9    1
    10   114   116    1
    11   114   113    1
    12    40    39    1
    13    73    74    1
    14    38    39    1
    15    38    37    1
    16    74    75    1
    17   109   110    1
    18    36    37    1
    19    36    33    1
    20   113   110    1
    21    75    76    2
    22    32    33    1
    23   110   111    1
    24    34    33    1
    25    34    35    2
    26   124   122   ar
    27    84    82    1
    28    63    62    1
    29    92    90   am
    30    61    62   ar
    31    61    59   ar
    32   123   122   ar
    33   122   121    1
    34    91    90    2
    35   111   112    2
    36    62    60   ar
    37    90    89    1
    38    19    18    1
    39    10    11    1
    40    81    82    1
    41    81    78    1
    42    59    57   ar
    43    82    83    1
    44   121   118    1
    45    16    15    1
    46    16    17    1
    47    60    58   ar
    48    89    86    1
    49    77    78    1
    50    14    15    1
    51    14    11    1
    52    18    17    2
    53    18    20    1
    54    11    12    1
    55   117   118    1
    56    78    79    1
    57    57    58   ar
    58    57    56    1
    59    12    13    2
    60    85    86    1
    61    85    79   am
    62    51    49    1
    63   118   119    1
    64    31    29    1
    65    86    87    1
    66    79    80    2
    67    56    53    1
    68    29    30    1
    69    29    28    2
    70    49    50    1
    71    49    48    2
    72   119   125   am
    73   119   120    2
    74   125   126    1
    75   131   130    2
    76   132   130   am
    77    87    88    2
    78   130   129    1
    79    48    47    1
    80    53    52    1
    81    53    54    1
    82    28    27    1
    83    52    43   am
    84    99    97    1
    85   129   126    1
    86    71    70   ar
    87   126   127    1
    88    54    55    1
    89    41    42    1
    90    21    22    1
    91    45    46    1
    92    45    42    1
    93    72    70   ar
    94    97    98    1
    95    97    94    1
    96    47    46    1
    97    43    42    1
    98    43    44    2
    99    27    26    1
   100    70    69    1
   101    25    26    1
   102    25    22    1
   103   127   128    2
   104    22    23    1
   105    93    94    1
   106    23    24    2
   107    94    95    1
   108   140   138    1
   109    69    68    1
   110   137   138    1
   111   137   134    1
   112   133   134    1
   113   107   106   ar
   114   139   138    1
   115   154   152   ar
   116   154   153   ar
   117    68    65    1
   118    95    96    2
   119   152   150   ar
   120   134   135    1
   121   153   151   ar
   122   108   106   ar
   123   106   105    1
   124   150   149   ar
   125   150   148   ar
   126    64    65    1
   127   151   148   ar
   128    65    66    1
   129   149   147   ar
   130   148   146   ar
   131   105   104    1
   132   135   141   am
   133   135   136    2
   134    66    67    1
   135   141   142    1
   136   147   146   ar
   137   104   101    1
   138   146   145    1
   139   145   142    1
   140   142   143    1
   141   100   101    1
   142   101   102    1
   143   143   144    2
   144   102   103    2
