@<TRIPOS>MOLECULE
tmp/3p1tA00.pdb
 137 130 0 0 0
SMALL
GASTEIGER

@<TRIPOS>ATOM
      1  N         86.4080  -11.4270   41.5840 N.3    10  PHE10      -0.1227
      2  CA        87.1570  -11.7710   40.3610 C.3    10  PHE10       0.1736
      3  C         88.0000  -13.0410   40.4710 C.2    10  PHE10       0.2595
      4  O         88.8070  -13.2910   39.5670 O.2    10  PHE10      -0.2718
      5  CB        88.0770  -10.6190   39.9440 C.3    10  PHE10       0.0547
      6  CG        87.3020   -9.3620   39.6840 C.ar   10  PHE10      -0.0202
      7  CD1       86.4950   -9.2470   38.5610 C.ar   10  PHE10      -0.0042
      8  CD2       87.3370   -8.3060   40.5850 C.ar   10  PHE10      -0.0042
      9  CE1       85.7230   -8.1050   38.3510 C.ar   10  PHE10      -0.0003
     10  CE2       86.5850   -7.1500   40.3570 C.ar   10  PHE10      -0.0003
     11  CZ        85.7810   -7.0630   39.2450 C.ar   10  PHE10      -0.0000
     12  N         87.7670  -13.8750   41.5070 N.am   11  ASN11      -0.1974
     13  CA        88.4370  -15.1710   41.7020 C.3    11  ASN11       0.1688
     14  C         89.9650  -15.0100   41.7510 C.2    11  ASN11       0.2292
     15  O         90.6950  -15.8970   41.2890 O.2    11  ASN11      -0.2864
     16  CB        88.0460  -16.1770   40.5820 C.3    11  ASN11       0.1181
     17  CG        86.5840  -16.5180   40.5270 C.2    11  ASN11       0.2629
     18  OD1       85.8590  -16.5050   41.5360 O.2    11  ASN11      -0.2716
     19  ND2       86.1270  -16.8660   39.3430 N.am   11  ASN11      -0.0877
     20  N         93.3520  -16.9130   27.9630 N.3    62  ILE62      -0.1245
     21  CA        92.3580  -17.6850   27.2300 C.3    62  ILE62       0.1561
     22  C         91.9520  -16.9270   25.9330 C.2    62  ILE62       0.2260
     23  O         91.6410  -17.6050   24.9490 O.2    62  ILE62      -0.2867
     24  CB        91.1390  -18.0560   28.1460 C.3    62  ILE62       0.0252
     25  CG1       90.1610  -19.0740   27.4930 C.3    62  ILE62       0.0019
     26  CG2       90.4220  -16.8460   28.7040 C.3    62  ILE62       0.0019
     27  CD1       90.7570  -20.3770   26.9470 C.3    62  ILE62       0.0001
     28  N         81.1000  -19.4340   31.0170 N.3    84  PHE84      -0.1241
     29  CA        82.0800  -18.3670   30.8580 C.3    84  PHE84       0.1605
     30  C         81.7850  -17.5440   29.5910 C.2    84  PHE84       0.2264
     31  O         81.5420  -18.0990   28.5270 O.2    84  PHE84      -0.2867
     32  CB        83.4900  -18.9570   30.8250 C.3    84  PHE84       0.0534
     33  CG        84.5800  -17.9400   30.6020 C.ar   84  PHE84      -0.0203
     34  CD1       84.8020  -16.9220   31.5240 C.ar   84  PHE84      -0.0042
     35  CD2       85.4020  -18.0120   29.4790 C.ar   84  PHE84      -0.0042
     36  CE1       85.8020  -15.9710   31.3080 C.ar   84  PHE84      -0.0003
     37  CE2       86.4210  -17.0760   29.2800 C.ar   84  PHE84      -0.0003
     38  CZ        86.6050  -16.0550   30.1880 C.ar   84  PHE84      -0.0000
     39  N         82.8850  -22.0680   35.0090 N.3   130  ASN130     -0.1240
     40  CA        82.7140  -20.7310   35.5730 C.3   130  ASN130      0.1653
     41  C         81.3900  -20.2040   35.0210 C.2   130  ASN130      0.2266
     42  O         81.2430  -20.2270   33.7970 O.2   130  ASN130     -0.2867
     43  CB        83.9200  -19.8250   35.2430 C.3   130  ASN130      0.1155
     44  CG        83.8250  -18.3940   35.7250 C.2   130  ASN130      0.2627
     45  OD1       82.9710  -18.0200   36.5200 O.2   130  ASN130     -0.2716
     46  ND2       84.7210  -17.5550   35.2530 N.am  130  ASN130     -0.0877
     47  N         91.1740  -23.7510   33.7460 N.3   156  THR156     -0.1203
     48  CA        91.5550  -22.5900   34.5640 C.3   156  THR156      0.1994
     49  C         91.3930  -22.8870   36.0690 C.2   156  THR156      0.2617
     50  O         92.2550  -22.4840   36.8700 O.2   156  THR156     -0.2717
     51  CB        90.7150  -21.3520   34.1670 C.3   156  THR156      0.1784
     52  OG1       91.1060  -20.9200   32.8680 O.3   156  THR156     -0.2211
     53  CG2       90.8760  -20.1740   35.1270 C.3   156  THR156      0.0376
     54  N         90.3160  -23.5930   36.4530 N.am  157  TYR157     -0.1975
     55  CA        90.0450  -23.8060   37.8760 C.3   157  TYR157      0.1639
     56  C         90.3920  -25.2270   38.3660 C.2   157  TYR157      0.2290
     57  O         90.0170  -25.5600   39.4870 O.2   157  TYR157     -0.2864
     58  CB        88.5530  -23.4960   38.1700 C.3   157  TYR157      0.0560
     59  CG        88.2290  -22.0300   37.9480 C.ar  157  TYR157     -0.0198
     60  CD1       88.5970  -21.0610   38.8830 C.ar  157  TYR157     -0.0009
     61  CD2       87.6730  -21.5950   36.7500 C.ar  157  TYR157     -0.0009
     62  CE1       88.4070  -19.7000   38.6310 C.ar  157  TYR157      0.0417
     63  CE2       87.4370  -20.2410   36.5080 C.ar  157  TYR157      0.0417
     64  CZ        87.8110  -19.2970   37.4480 C.ar  157  TYR157      0.1957
     65  OH        87.5670  -17.9640   37.2170 O.3   157  TYR157     -0.2866
     66  N         95.6630  -21.8640   33.2080 N.3   179  SER179     -0.1217
     67  CA        95.8510  -20.4430   33.5360 C.3   179  SER179      0.1889
     68  C         96.8360  -20.2570   34.6850 C.2   179  SER179      0.2288
     69  O         96.8710  -21.1010   35.5880 O.2   179  SER179     -0.2866
     70  CB        94.5090  -19.8240   33.9200 C.3   179  SER179      0.2089
     71  OG        94.5870  -18.4380   34.2120 O.3   179  SER179     -0.2183
     72  N         96.6660  -17.3610   36.3810 N.3   181  SER181     -0.1202
     73  CA        95.9770  -16.2400   37.0190 C.3   181  SER181      0.2020
     74  C         95.4100  -16.5550   38.4250 C.2   181  SER181      0.2618
     75  O         95.2590  -15.6250   39.2390 O.2   181  SER181     -0.2717
     76  CB        94.8260  -15.7570   36.1350 C.3   181  SER181      0.2103
     77  OG        95.2780  -15.1180   34.9500 O.3   181  SER181     -0.2182
     78  N         95.0860  -17.8310   38.7210 N.am  182  LYS182     -0.1979
     79  CA        94.4220  -18.1300   39.9890 C.3   182  LYS182      0.1596
     80  C         95.4280  -18.6780   40.9910 C.2   182  LYS182      0.2287
     81  O         96.1610  -17.8890   41.5760 O.2   182  LYS182     -0.2864
     82  CB        93.2320  -19.1030   39.7830 C.3   182  LYS182      0.0298
     83  CG        92.3070  -18.7700   38.5970 C.3   182  LYS182      0.0038
     84  CD        91.7500  -17.3350   38.5890 C.3   182  LYS182      0.0206
     85  CE        90.9530  -17.0450   37.3490 C.3   182  LYS182      0.1093
     86  NZ        90.6980  -15.5930   37.2220 N.3   182  LYS182     -0.1314
     87  N         98.1370  -12.0020   33.0530 N.3   190  ARG190     -0.1245
     88  CA        97.2630  -12.6730   32.0970 C.3   190  ARG190      0.1563
     89  C         98.1110  -13.6140   31.1660 C.2   190  ARG190      0.2260
     90  O         98.3400  -13.3140   29.9820 O.2   190  ARG190     -0.2867
     91  CB        96.4510  -11.6180   31.2970 C.3   190  ARG190      0.0307
     92  CG        95.3040  -12.1410   30.4410 C.3   190  ARG190      0.0489
     93  CD        94.2020  -12.7860   31.2530 C.3   190  ARG190      0.2205
     94  NE        93.0180  -12.9930   30.4300 N.pl3 190  ARG190     -0.0865
     95  CZ        91.9020  -13.5830   30.8370 C.cat 190  ARG190      0.5346
     96  NH1       91.8160  -14.0870   32.0650 N.pl3 190  ARG190      0.1354
     97  NH2       90.8660  -13.6860   30.0180 N.pl3 190  ARG190      0.1354
     98  N         80.2270  -11.0300   42.6130 N.3   285  LYS285     -0.1245
     99  CA        79.9640  -11.0100   41.1700 C.3   285  LYS285      0.1561
    100  C         78.5130  -11.3780   40.8710 C.2   285  LYS285      0.2260
    101  O         78.0030  -12.3610   41.4120 O.2   285  LYS285     -0.2867
    102  CB        80.9210  -11.9910   40.4460 C.3   285  LYS285      0.0271
    103  CG        80.6830  -12.1990   38.9290 C.3   285  LYS285      0.0035
    104  CD        81.0320  -11.0080   38.0390 C.3   285  LYS285      0.0206
    105  CE        82.5090  -10.8910   37.8070 C.3   285  LYS285      0.1093
    106  NZ        82.8400   -9.7740   36.8960 N.3   285  LYS285     -0.1314
    107  N         75.9750  -11.9230   34.2140 N.3   289  GLN289     -0.1231
    108  CA        77.0340  -11.7330   33.2280 C.3   289  GLN289      0.1698
    109  C         77.2470  -12.9930   32.4070 C.2   289  GLN289      0.2592
    110  O         77.6730  -12.9110   31.2550 O.2   289  GLN289     -0.2718
    111  CB        78.3350  -11.3760   33.9760 C.3   289  GLN289      0.0381
    112  CG        79.4780  -10.9230   33.0810 C.3   289  GLN289      0.0905
    113  CD        80.7280  -10.5750   33.8470 C.2   289  GLN289      0.2608
    114  OE1       80.7030   -9.9730   34.9340 O.2   289  GLN289     -0.2717
    115  NE2       81.8580  -10.8640   33.2440 N.am  289  GLN289     -0.0878
    116  N         76.9840  -14.1650   33.0240 N.am  290  PHE290     -0.1976
    117  CA        77.1840  -15.4850   32.4310 C.3   290  PHE290      0.1639
    118  C         75.8480  -16.1580   32.0430 C.2   290  PHE290      0.2290
    119  O         75.8610  -17.3060   31.6200 O.2   290  PHE290     -0.2864
    120  CB        77.9560  -16.3760   33.4120 C.3   290  PHE290      0.0560
    121  CG        79.1740  -15.6990   33.9820 C.ar  290  PHE290     -0.0200
    122  CD1       80.3430  -15.5950   33.2390 C.ar  290  PHE290     -0.0042
    123  CD2       79.1490  -15.1440   35.2560 C.ar  290  PHE290     -0.0042
    124  CE1       81.4660  -14.9380   33.7580 C.ar  290  PHE290     -0.0003
    125  CE2       80.2720  -14.4950   35.7770 C.ar  290  PHE290     -0.0003
    126  CZ        81.4240  -14.3970   35.0240 C.ar  290  PHE290     -0.0000
    127  N         78.0730  -15.0660   42.3190 N.3   297  ARG297     -0.1245
    128  CA        79.2740  -15.8830   42.4000 C.3   297  ARG297      0.1563
    129  C         80.1710  -15.2360   43.4280 C.2   297  ARG297      0.2260
    130  O         80.6470  -14.1150   43.2270 O.2   297  ARG297     -0.2867
    131  CB        79.9590  -16.0380   41.0210 C.3   297  ARG297      0.0307
    132  CG        81.0530  -17.1070   41.0020 C.3   297  ARG297      0.0489
    133  CD        82.0000  -16.9500   39.8270 C.3   297  ARG297      0.2205
    134  NE        82.7890  -15.7290   39.9670 N.pl3 297  ARG297     -0.0865
    135  CZ        83.3410  -15.0760   38.9600 C.cat 297  ARG297      0.5346
    136  NH1       83.1960  -15.5150   37.7190 N.pl3 297  ARG297      0.1354
    137  NH2       84.0230  -13.9620   39.1800 N.pl3 297  ARG297      0.1354
@<TRIPOS>BOND
     1    23    22    2
     2    22    21    1
     3    27    25    1
     4    21    20    1
     5    21    24    1
     6    25    24    1
     7    24    26    1
     8    31    30    2
     9    37    35   ar
    10    37    38   ar
    11    35    33   ar
    12    30    29    1
    13    90    89    2
    14    97    95    1
    15    38    36   ar
    16    94    95    2
    17    94    93    1
    18    92    93    1
    19    92    91    1
    20    33    32    1
    21    33    34   ar
    22    32    29    1
    23    95    96    1
    24    29    28    1
    25    89    88    1
    26   110   109    2
    27    91    88    1
    28    36    34   ar
    29   119   118    2
    30   118   117    1
    31    88    87    1
    32   109   116   am
    33   109   108    1
    34   117   116    1
    35   117   120    1
    36    52    51    1
    37   112   113    1
    38   112   111    1
    39    66    67    1
    40   108   111    1
    41   108   107    1
    42   122   124   ar
    43   122   121   ar
    44   115   113   am
    45   120   121    1
    46    67    70    1
    47    67    68    1
    48    47    48    1
    49   124   126   ar
    50    42    41    2
    51   113   114    2
    52    70    71    1
    53   121   123   ar
    54    51    48    1
    55    51    53    1
    56    48    49    1
    57    68    69    2
    58    77    76    1
    59    39    40    1
    60    41    40    1
    61   126   125   ar
    62    43    40    1
    63    43    44    1
    64    46    44   am
    65   123   125   ar
    66    44    45    2
    67    49    54   am
    68    49    50    2
    69    76    73    1
    70    72    73    1
    71    54    55    1
    72    63    61   ar
    73    63    64   ar
    74    61    59   ar
    75   106   105    1
    76    73    74    1
    77    65    64    1
    78    86    85    1
    79    85    84    1
    80    64    62   ar
    81   136   135    1
    82   105   104    1
    83    55    58    1
    84    55    56    1
    85    59    58    1
    86    59    60   ar
    87   104   103    1
    88     9     7   ar
    89     9    11   ar
    90    56    57    2
    91    74    78   am
    92    74    75    2
    93     7     6   ar
    94    84    83    1
    95    83    82    1
    96    62    60   ar
    97    78    79    1
    98   103   102    1
    99   135   137    1
   100   135   134    2
   101    11    10   ar
   102    19    17   am
   103     4     3    2
   104     6     5    1
   105     6     8   ar
   106    82    79    1
   107   133   134    1
   108   133   132    1
   109     5     2    1
   110    79    80    1
   111    10     8   ar
   112     2     3    1
   113     2     1    1
   114   102    99    1
   115     3    12   am
   116    17    16    1
   117    17    18    2
   118    16    13    1
   119   100    99    1
   120   100   101    2
   121    80    81    2
   122   132   131    1
   123   131   128    1
   124    99    98    1
   125    15    14    2
   126    12    13    1
   127    13    14    1
   128   127   128    1
   129   128   129    1
   130   130   129    2
