@<TRIPOS>MOLECULE
tmp/3p1tB00.pdb
 85 78 0 0 0
SMALL
GASTEIGER

@<TRIPOS>ATOM
      1  N        116.3390   13.6920   12.2370 N.3   158  SER158     -0.1217
      2  CA       116.4390   15.1410   12.1220 C.3   158  SER158      0.1889
      3  C        115.0420   15.7890   11.9740 C.2   158  SER158      0.2288
      4  O        114.9390   17.0050   11.7940 O.2   158  SER158     -0.2866
      5  CB       117.3150   15.4840   10.9230 C.3   158  SER158      0.2089
      6  OG       116.8070   14.8630    9.7520 O.3   158  SER158     -0.2183
      7  N        123.6320   10.1550   18.6640 N.3   234  LEU234     -0.1245
      8  CA       123.9210   10.9470   17.4650 C.3   234  LEU234      0.1561
      9  C        125.4240   11.2730   17.3230 C.2   234  LEU234      0.2260
     10  O        125.9500   11.2400   16.2070 O.2   234  LEU234     -0.2867
     11  CB       123.1190   12.2550   17.4360 C.3   234  LEU234      0.0270
     12  CG       121.5910   12.1790   17.4470 C.3   234  LEU234      0.0019
     13  CD1      121.0010   13.5530   17.2270 C.3   234  LEU234      0.0001
     14  CD2      121.0630   11.2220   16.4060 C.3   234  LEU234      0.0001
     15  N        127.3500    7.9670   16.6070 N.3   237  ARG237     -0.1231
     16  CA       127.0430    7.5680   15.2310 C.3   237  ARG237      0.1694
     17  C        127.9090    8.3390   14.2640 C.2   237  ARG237      0.2591
     18  O        128.4020    7.7480   13.3060 O.2   237  ARG237     -0.2718
     19  CB       125.5640    7.7840   14.9110 C.3   237  ARG237      0.0321
     20  CG       125.0770    7.1040   13.6320 C.3   237  ARG237      0.0489
     21  CD       123.6100    7.4340   13.3810 C.3   237  ARG237      0.2205
     22  NE       123.3990    8.8690   13.1490 N.pl3 237  ARG237     -0.0865
     23  CZ       122.2470    9.5100   13.3060 C.cat 237  ARG237      0.5346
     24  NH1      121.1700    8.8640   13.7230 N.pl3 237  ARG237      0.1354
     25  NH2      122.1690   10.8070   13.0630 N.pl3 237  ARG237      0.1354
     26  N        128.1160    9.6470   14.5280 N.am  238  ARG238     -0.1980
     27  CA       128.9840   10.5140   13.7430 C.3   238  ARG238      0.1597
     28  C        130.4600   10.0210   13.8710 C.2   238  ARG238      0.2287
     29  O        131.1410    9.8840   12.8450 O.2   238  ARG238     -0.2864
     30  CB       128.8200   11.9850   14.2030 C.3   238  ARG238      0.0334
     31  CG       129.7960   13.0260   13.5890 C.3   238  ARG238      0.0492
     32  CD       129.8630   13.0340   12.0690 C.3   238  ARG238      0.2205
     33  NE       128.5890   13.3770   11.4400 N.pl3 238  ARG238     -0.0865
     34  CZ       128.2400   13.0050   10.2110 C.cat 238  ARG238      0.5346
     35  NH1      129.0510   12.2430    9.4840 N.pl3 238  ARG238      0.1354
     36  NH2      127.0670   13.3670    9.7110 N.pl3 238  ARG238      0.1354
     37  N        130.7430    6.4540   12.0070 N.3   241  ALA241     -0.1245
     38  CA       130.6600    6.6690   10.5470 C.3   241  ALA241      0.1562
     39  C        131.9530    7.3190    9.9800 C.2   241  ALA241      0.2260
     40  O        132.5240    6.8060    9.0120 O.2   241  ALA241     -0.2867
     41  CB       129.4620    7.5250   10.1990 C.3   241  ALA241      0.0290
     42  N        134.8650    5.2740    7.6310 N.3   245  ARG245     -0.1245
     43  CA       135.1530    5.7960    6.2800 C.3   245  ARG245      0.1563
     44  C        136.6460    6.1130    6.1220 C.2   245  ARG245      0.2260
     45  O        137.2010    5.9290    5.0330 O.2   245  ARG245     -0.2867
     46  CB       134.3170    7.0380    5.9460 C.3   245  ARG245      0.0307
     47  CG       132.8450    6.7330    5.7880 C.3   245  ARG245      0.0489
     48  CD       132.1380    7.8700    5.1110 C.3   245  ARG245      0.2205
     49  NE       130.6950    7.6530    5.0470 N.pl3 245  ARG245     -0.0865
     50  CZ       129.8110    8.3210    5.7780 C.cat 245  ARG245      0.5346
     51  NH1      130.2130    9.2840    6.6020 N.pl3 245  ARG245      0.1354
     52  NH2      128.5190    8.0630    5.6650 N.pl3 245  ARG245      0.1354
     53  N        126.8720    4.0270    4.7590 N.3   252  ALA252     -0.1231
     54  CA       125.7080    4.7830    4.3080 C.3   252  ALA252      0.1694
     55  C        125.2780    5.7850    5.3710 C.2   252  ALA252      0.2593
     56  O        125.4540    5.5270    6.5600 O.2   252  ALA252     -0.2718
     57  CB       124.5620    3.8330    3.9920 C.3   252  ALA252      0.0304
     58  N        124.6960    6.9280    4.9410 N.am  253  SER253     -0.1938
     59  CA       124.1440    7.9390    5.8510 C.3   253  SER253      0.2055
     60  C        123.0320    7.2830    6.6750 C.2   253  SER253      0.2644
     61  O        122.4780    6.2650    6.2490 O.2   253  SER253     -0.2714
     62  CB       123.6410    9.1530    5.0770 C.3   253  SER253      0.2130
     63  OG       122.6070    8.8040    4.1680 O.3   253  SER253     -0.2179
     64  N        122.7730    7.7840    7.8740 N.am  254  SER254     -0.1935
     65  CA       121.7790    7.1560    8.7270 C.3   254  SER254      0.2055
     66  C        121.1330    8.1660    9.6320 C.2   254  SER254      0.2642
     67  O        121.8010    9.0420   10.1840 O.2   254  SER254     -0.2714
     68  CB       122.4160    6.0430    9.5630 C.3   254  SER254      0.2130
     69  OG       121.4520    5.3740   10.3600 O.3   254  SER254     -0.2179
     70  N        119.8300    8.0240    9.7860 N.am  255  GLU255     -0.1976
     71  CA       118.9650    8.8100   10.6640 C.3   255  GLU255      0.1602
     72  C        118.4530    7.9160   11.8130 C.2   255  GLU255      0.2287
     73  O        117.5110    8.2890   12.5230 O.2   255  GLU255     -0.2864
     74  CB       117.7940    9.3690    9.8310 C.3   255  GLU255      0.0415
     75  CG       118.1840   10.4480    8.8540 C.3   255  GLU255      0.1163
     76  CD       117.8990   11.8050    9.4450 C.2   255  GLU255      0.3649
     77  OE1      116.7070   12.1780    9.5150 O.co2 255  GLU255     -0.2457
     78  OE2      118.8580   12.4620    9.9090 O.co2 255  GLU255     -0.2457
     79  N        124.4290    2.0290   11.5560 N.3   259  VAL259     -0.1245
     80  CA       124.9690    2.4130   10.2520 C.3   259  VAL259      0.1561
     81  C        125.0500    1.1620    9.3550 C.2   259  VAL259      0.2260
     82  O        125.3930    0.0750    9.8340 O.2   259  VAL259     -0.2867
     83  CB       126.3260    3.1410   10.3400 C.3   259  VAL259      0.0252
     84  CG1      126.1680    4.5590   10.8810 C.3   259  VAL259      0.0019
     85  CG2      127.3520    2.3490   11.1410 C.3   259  VAL259      0.0019
@<TRIPOS>BOND
     1    57    54    1
     2    63    62    1
     3    54    53    1
     4    54    55    1
     5    58    55   am
     6    58    59    1
     7    45    44    2
     8    49    48    1
     9    49    50    2
    10    62    59    1
    11    48    47    1
    12    55    56    2
    13    52    50    1
    14    50    51    1
    15    47    46    1
    16    59    60    1
    17    46    43    1
    18    44    43    1
    19    61    60    2
    20    43    42    1
    21    60    64   am
    22    64    65    1
    23    65    68    1
    24    65    66    1
    25    75    76    1
    26    75    74    1
    27    40    39    2
    28    81    82    2
    29    81    80    1
    30    76    77   ar
    31    76    78   ar
    32    35    34    1
    33    68    69    1
    34    66    70   am
    35    66    67    2
    36    36    34    1
    37     6     5    1
    38    70    71    1
    39    74    71    1
    40    39    38    1
    41    41    38    1
    42    34    33    2
    43    80    83    1
    44    80    79    1
    45    83    84    1
    46    83    85    1
    47    38    37    1
    48    71    72    1
    49     5     2    1
    50    33    32    1
    51     4     3    2
    52    72    73    2
    53     3     2    1
    54    32    31    1
    55     2     1    1
    56    29    28    2
    57    25    23    1
    58    22    23    2
    59    22    21    1
    60    23    24    1
    61    18    17    2
    62    21    20    1
    63    31    30    1
    64    20    19    1
    65    27    28    1
    66    27    30    1
    67    27    26    1
    68    17    26   am
    69    17    16    1
    70    19    16    1
    71    16    15    1
    72    10     9    2
    73    14    12    1
    74    13    12    1
    75     9     8    1
    76    11    12    1
    77    11     8    1
    78     8     7    1
