@<TRIPOS>MOLECULE
tmp/3p20A01.pdb
 102 99 0 0 0
SMALL
GASTEIGER

@<TRIPOS>ATOM
      1  N        -26.7410    8.6860   -8.4800 N.3   274  ARG274     -0.1231
      2  CA       -25.6960    9.0200   -9.4700 C.3   274  ARG274      0.1694
      3  C        -24.2860    8.6780   -8.9120 C.2   274  ARG274      0.2592
      4  O        -23.8940    9.1440   -7.8020 O.2   274  ARG274     -0.2718
      5  CB       -25.7680   10.5090   -9.8580 C.3   274  ARG274      0.0321
      6  CG       -25.4780   11.4600   -8.6800 C.3   274  ARG274      0.0489
      7  CD       -25.0750   12.8430   -9.1330 C.3   274  ARG274      0.2205
      8  NE       -24.7970   13.7260   -7.9980 N.pl3 274  ARG274     -0.0865
      9  CZ       -24.1220   14.8710   -8.0720 C.cat 274  ARG274      0.5346
     10  NH1      -23.6370   15.3090   -9.2290 N.pl3 274  ARG274      0.1354
     11  NH2      -23.9270   15.5790   -6.9770 N.pl3 274  ARG274      0.1354
     12  N        -23.5410    7.8630   -9.6700 N.am  275  TRP275     -0.1962
     13  CA       -22.1740    7.5120   -9.2840 C.3   275  TRP275      0.1771
     14  C        -21.1870    8.6650   -9.5000 C.2   275  TRP275      0.2619
     15  O        -20.9530    9.1040  -10.6280 O.2   275  TRP275     -0.2715
     16  CB       -21.6740    6.2120   -9.9540 C.3   275  TRP275      0.0590
     17  CG       -21.5360    4.9980   -8.9980 C.ar  275  TRP275      0.0006
     18  CD1      -22.0740    3.7300   -9.1750 C.ar  275  TRP275      0.0946
     19  CD2      -20.8180    4.9470   -7.7360 C.ar  275  TRP275      0.0152
     20  NE1      -21.7360    2.9110   -8.1080 N.ar  275  TRP275     -0.2442
     21  CE2      -20.9730    3.6260   -7.2130 C.ar  275  TRP275      0.0810
     22  CE3      -20.0710    5.8880   -6.9910 C.ar  275  TRP275      0.0012
     23  CZ2      -20.4010    3.2290   -5.9780 C.ar  275  TRP275      0.0191
     24  CZ3      -19.5050    5.4880   -5.7630 C.ar  275  TRP275      0.0001
     25  CH2      -19.6760    4.1710   -5.2750 C.ar  275  TRP275      0.0015
     26  N        -20.6560    9.1690   -8.3840 N.am  276  ALA276     -0.1977
     27  CA       -19.5140   10.0700   -8.3930 C.3   276  ALA276      0.1597
     28  C        -18.2960    9.1580   -8.4350 C.2   276  ALA276      0.2287
     29  O        -18.1940    8.2010   -7.6470 O.2   276  ALA276     -0.2864
     30  CB       -19.5020   10.9540   -7.1530 C.3   276  ALA276      0.0319
     31  N        -15.2040    8.5610   -7.5140 N.3   278  ALA278     -0.1231
     32  CA       -14.0910    8.5130   -6.5720 C.3   278  ALA278      0.1694
     33  C        -13.2070    7.3080   -6.8860 C.2   278  ALA278      0.2591
     34  O        -11.9830    7.4210   -6.9460 O.2   278  ALA278     -0.2718
     35  CB       -14.6100    8.4350   -5.1360 C.3   278  ALA278      0.0304
     36  N        -13.8480    6.1620   -7.1090 N.am  279  LEU279     -0.1980
     37  CA       -13.1540    4.8940   -7.3320 C.3   279  LEU279      0.1596
     38  C        -12.6590    4.7660   -8.7850 C.2   279  LEU279      0.2287
     39  O        -12.7980    3.7160   -9.4200 O.2   279  LEU279     -0.2864
     40  CB       -14.0460    3.6980   -6.9170 C.3   279  LEU279      0.0297
     41  CG       -14.6020    3.5800   -5.4790 C.3   279  LEU279      0.0022
     42  CD1      -15.9310    4.3260   -5.3230 C.3   279  LEU279      0.0001
     43  CD2      -14.7600    2.1100   -5.0500 C.3   279  LEU279      0.0001
     44  N        -13.3620   13.2460    0.5180 N.3   289  LEU289     -0.1231
     45  CA       -14.6670   13.7940    0.1570 C.3   289  LEU289      0.1693
     46  C        -15.6360   13.8580    1.3370 C.2   289  LEU289      0.2591
     47  O        -16.3620   14.8320    1.5070 O.2   289  LEU289     -0.2718
     48  CB       -15.2780   12.9660   -0.9680 C.3   289  LEU289      0.0284
     49  CG       -14.6300   13.1250   -2.3460 C.3   289  LEU289      0.0019
     50  CD1      -15.3600   12.2830   -3.4020 C.3   289  LEU289      0.0001
     51  CD2      -14.5850   14.6040   -2.7530 C.3   289  LEU289      0.0001
     52  N        -15.6360   12.8050    2.1460 N.am  290  ALA290     -0.1980
     53  CA       -16.4350   12.7460    3.3550 C.3   290  ALA290      0.1597
     54  C        -16.2580   14.0140    4.1900 C.2   290  ALA290      0.2287
     55  O        -17.2160   14.4860    4.8290 O.2   290  ALA290     -0.2864
     56  CB       -16.0780   11.5080    4.1770 C.3   290  ALA290      0.0319
     57  N        -15.0220   16.9600    2.8150 N.3   292  LYS292     -0.1231
     58  CA       -15.5180   18.0970    2.0310 C.3   292  LYS292      0.1693
     59  C        -17.0060   18.2680    2.3530 C.2   292  LYS292      0.2591
     60  O        -17.4630   19.3910    2.5770 O.2   292  LYS292     -0.2718
     61  CB       -15.2690   17.9570    0.5080 C.3   292  LYS292      0.0285
     62  CG       -16.5560   17.8800   -0.3440 C.3   292  LYS292      0.0035
     63  CD       -16.3410   18.2180   -1.8360 C.3   292  LYS292      0.0206
     64  CE       -17.6920   18.4900   -2.5660 C.3   292  LYS292      0.1093
     65  NZ       -18.8570   17.6170   -2.1650 N.3   292  LYS292     -0.1314
     66  N        -17.7270   17.1390    2.4010 N.am  293  LEU293     -0.1980
     67  CA       -19.1440   17.0740    2.7990 C.3   293  LEU293      0.1596
     68  C        -19.3770   17.6740    4.1700 C.2   293  LEU293      0.2287
     69  O        -20.1070   18.6460    4.3000 O.2   293  LEU293     -0.2864
     70  CB       -19.6290   15.6280    2.8150 C.3   293  LEU293      0.0297
     71  CG       -21.1260   15.3810    2.9810 C.3   293  LEU293      0.0022
     72  CD1      -21.9210   16.1770    1.9590 C.3   293  LEU293      0.0001
     73  CD2      -21.4430   13.8820    2.8820 C.3   293  LEU293      0.0001
     74  N        -26.9250    5.1850   -4.6090 N.3   324  PRO324     -0.2116
     75  CA       -27.0360    4.6360   -5.9750 C.3   324  PRO324      0.1372
     76  C        -28.0390    3.4760   -6.0630 C.2   324  PRO324      0.2244
     77  O        -28.9640    3.5100   -6.8900 O.2   324  PRO324     -0.2868
     78  CB       -25.6160    4.1600   -6.2770 C.3   324  PRO324      0.0268
     79  CG       -24.7410    5.0700   -5.4730 C.3   324  PRO324      0.0207
     80  CD       -25.5190    5.4240   -4.2190 C.3   324  PRO324      0.0892
     81  N        -21.8640    4.3750    0.6410 N.3   331  PRO331     -0.2102
     82  CA       -21.1100    5.3570    1.4290 C.3   331  PRO331      0.1504
     83  C        -21.8370    6.7030    1.5580 C.2   331  PRO331      0.2575
     84  O        -21.6630    7.3910    2.5580 O.2   331  PRO331     -0.2718
     85  CB       -19.8040    5.5150    0.6370 C.3   331  PRO331      0.0282
     86  CG       -20.1620    5.1230   -0.7650 C.3   331  PRO331      0.0208
     87  CD       -21.1470    4.0030   -0.5970 C.3   331  PRO331      0.0893
     88  N        -22.6540    7.0540    0.5660 N.am  332  VAL332     -0.1980
     89  CA       -23.3420    8.3400    0.5480 C.3   332  VAL332      0.1595
     90  C        -24.1990    8.4980    1.7900 C.2   332  VAL332      0.2287
     91  O        -24.2710    9.5830    2.3690 O.2   332  VAL332     -0.2864
     92  CB       -24.2340    8.5130   -0.6950 C.3   332  VAL332      0.0276
     93  CG1      -24.5570    9.9850   -0.9100 C.3   332  VAL332      0.0022
     94  CG2      -23.5390    7.9270   -1.9310 C.3   332  VAL332      0.0022
     95  N        -21.7920    8.4570    4.9890 N.3   335  ASN335     -0.1240
     96  CA       -21.1250    9.7430    5.0040 C.3   335  ASN335      0.1653
     97  C        -21.9870   10.8660    5.5170 C.2   335  ASN335      0.2266
     98  O        -21.5280   11.6620    6.3290 O.2   335  ASN335     -0.2867
     99  CB       -20.5750   10.0880    3.6200 C.3   335  ASN335      0.1155
    100  CG       -19.2080    9.4860    3.3790 C.2   335  ASN335      0.2627
    101  OD1      -18.6240    8.8670    4.2730 O.2   335  ASN335     -0.2716
    102  ND2      -18.6840    9.6790    2.1740 N.am  335  ASN335     -0.0877
@<TRIPOS>BOND
     1    15    14    2
     2    16    13    1
     3    16    17    1
     4     5     2    1
     5     5     6    1
     6    12    13    1
     7    12     3   am
     8    14    13    1
     9    14    26   am
    10     2     3    1
    11     2     1    1
    12    39    38    2
    13    10     9    1
    14    18    17   ar
    15    18    20   ar
    16     7     6    1
    17     7     8    1
    18    17    19   ar
    19     3     4    2
    20    38    37    1
    21    28    27    1
    22    28    29    2
    23    27    26    1
    24    27    30    1
    25    20    21   ar
    26     9     8    2
    27     9    11    1
    28    19    21   ar
    29    19    22   ar
    30    31    32    1
    31    37    36    1
    32    37    40    1
    33    21    23   ar
    34    36    33   am
    35    22    24   ar
    36    34    33    2
    37    40    41    1
    38    77    76    2
    39    33    32    1
    40    32    35    1
    41    78    75    1
    42    78    79    1
    43    76    75    1
    44    23    25   ar
    45    75    74    1
    46    24    25   ar
    47    41    42    1
    48    41    43    1
    49    79    80    1
    50    74    80    1
    51    50    49    1
    52    51    49    1
    53    64    65    1
    54    64    63    1
    55    49    48    1
    56    94    92    1
    57    63    62    1
    58    48    45    1
    59    93    92    1
    60    86    87    1
    61    86    85    1
    62    92    89    1
    63    87    81    1
    64    62    61    1
    65    45    44    1
    66    45    46    1
    67    61    58    1
    68    89    88    1
    69    89    90    1
    70    88    83   am
    71    85    82    1
    72    81    82    1
    73    46    47    2
    74    46    52   am
    75    82    83    1
    76    83    84    2
    77    90    91    2
    78    72    71    1
    79    58    59    1
    80    58    57    1
    81    52    53    1
    82   102   100   am
    83    59    66   am
    84    59    60    2
    85    66    67    1
    86    67    70    1
    87    67    68    1
    88    70    71    1
    89    73    71    1
    90    53    56    1
    91    53    54    1
    92   100    99    1
    93   100   101    2
    94    99    96    1
    95    68    69    2
    96    54    55    2
    97    95    96    1
    98    96    97    1
    99    97    98    2
