@<TRIPOS>MOLECULE
tmp/3p24D00.pdb
 105 100 0 0 0
SMALL
GASTEIGER

@<TRIPOS>ATOM
      1  N         62.2360   33.0040   28.5330 N.3   183  ILE183     -0.1245
      2  CA        62.8340   31.7820   29.0590 C.3   183  ILE183      0.1561
      3  C         64.2480   31.7240   28.4900 C.2   183  ILE183      0.2260
      4  O         64.4800   31.4850   27.2700 O.2   183  ILE183     -0.2867
      5  CB        62.0130   30.5420   28.7150 C.3   183  ILE183      0.0252
      6  CG1       60.6140   30.6560   29.3050 C.3   183  ILE183      0.0019
      7  CG2       62.7390   29.2700   29.2470 C.3   183  ILE183      0.0019
      8  CD1       59.5960   29.6420   28.7700 C.3   183  ILE183      0.0001
      9  N         67.9280   30.1740   28.3950 N.3   185  LEU185     -0.1245
     10  CA        68.4850   28.8640   28.5590 C.3   185  LEU185      0.1561
     11  C         70.0030   28.9820   28.4090 C.2   185  LEU185      0.2260
     12  O         70.5080   29.3640   27.3620 O.2   185  LEU185     -0.2867
     13  CB        67.8530   27.9050   27.5780 C.3   185  LEU185      0.0270
     14  CG        66.3460   27.7170   27.7750 C.3   185  LEU185      0.0019
     15  CD1       65.7500   26.8850   26.6300 C.3   185  LEU185      0.0001
     16  CD2       66.0530   27.0640   29.1310 C.3   185  LEU185      0.0001
     17  N         67.4300   28.6990   33.1910 N.3   225  TYR225     -0.1227
     18  CA        67.9040   27.3730   33.5380 C.3   225  TYR225      0.1736
     19  C         68.7630   26.8250   32.4390 C.2   225  TYR225      0.2596
     20  O         68.9070   27.4670   31.4210 O.2   225  TYR225     -0.2718
     21  CB        66.7430   26.3670   33.6170 C.3   225  TYR225      0.0548
     22  CG        65.3580   26.8730   33.9250 C.ar  225  TYR225     -0.0200
     23  CD1       64.8910   26.8730   35.2260 C.ar  225  TYR225     -0.0009
     24  CD2       64.4960   27.2820   32.9180 C.ar  225  TYR225     -0.0009
     25  CE1       63.6290   27.2900   35.5260 C.ar  225  TYR225      0.0417
     26  CE2       63.2070   27.7080   33.2140 C.ar  225  TYR225      0.0417
     27  CZ        62.7840   27.7060   34.5260 C.ar  225  TYR225      0.1957
     28  OH        61.5150   28.1360   34.8610 O.3   225  TYR225     -0.2866
     29  N         69.3230   25.6310   32.6290 N.am  226  THR226     -0.1939
     30  CA        70.2740   25.0810   31.6600 C.3   226  THR226      0.2028
     31  C         69.5840   24.1730   30.6380 C.2   226  THR226      0.2643
     32  O         68.6300   23.4610   30.9700 O.2   226  THR226     -0.2714
     33  CB        71.3970   24.3270   32.4040 C.3   226  THR226      0.1808
     34  OG1       71.9590   25.2230   33.3770 O.3   226  THR226     -0.2208
     35  CG2       72.5040   23.8460   31.4500 C.3   226  THR226      0.0379
     36  N         70.0480   24.2400   29.3930 N.am  227  THR227     -0.1936
     37  CA        69.6170   23.3110   28.3620 C.3   227  THR227      0.2028
     38  C         70.7320   22.3410   28.0060 C.2   227  THR227      0.2642
     39  O         71.9150   22.6510   28.1750 O.2   227  THR227     -0.2714
     40  CB        69.0950   24.0350   27.1160 C.3   227  THR227      0.1808
     41  OG1       68.7430   23.0780   26.1210 O.3   227  THR227     -0.2208
     42  CG2       70.1310   25.0020   26.5460 C.3   227  THR227      0.0379
     43  N         70.3440   21.1660   27.5230 N.am  228  GLU228     -0.1976
     44  CA        71.2860   20.2170   26.9400 C.3   228  GLU228      0.1602
     45  C         71.7820   20.6770   25.5720 C.2   228  GLU228      0.2287
     46  O         72.8080   20.1810   25.0790 O.2   228  GLU228     -0.2864
     47  CB        70.6430   18.8360   26.7910 C.3   228  GLU228      0.0415
     48  CG        70.6790   18.0180   28.0610 C.3   228  GLU228      0.1163
     49  CD        72.1000   17.5480   28.4240 C.2   228  GLU228      0.3649
     50  OE1       72.6710   16.7030   27.6900 O.co2 228  GLU228     -0.2457
     51  OE2       72.6430   18.0270   29.4540 O.co2 228  GLU228     -0.2457
     52  N         63.7830   23.1980   21.0550 N.3   247  LEU247     -0.1245
     53  CA        62.5930   23.5590   21.8140 C.3   247  LEU247      0.1561
     54  C         61.3760   22.7630   21.3210 C.2   247  LEU247      0.2260
     55  O         60.6160   22.2010   22.1130 O.2   247  LEU247     -0.2867
     56  CB        62.3290   25.0610   21.6830 C.3   247  LEU247      0.0270
     57  CG        63.3960   26.0130   22.2330 C.3   247  LEU247      0.0019
     58  CD1       63.0730   27.4500   21.8330 C.3   247  LEU247      0.0001
     59  CD2       63.5110   25.8770   23.7670 C.3   247  LEU247      0.0001
     60  N         61.3270   18.9670   22.2880 N.3   250  ASN250     -0.1240
     61  CA        61.3120   18.6260   23.7040 C.3   250  ASN250      0.1653
     62  C         59.8860   18.5420   24.2700 C.2   250  ASN250      0.2266
     63  O         59.2350   19.5820   24.4430 O.2   250  ASN250     -0.2867
     64  CB        62.1220   19.6590   24.4920 C.3   250  ASN250      0.1155
     65  CG        62.4390   19.2030   25.9100 C.2   250  ASN250      0.2627
     66  OD1       61.9150   18.1930   26.3860 O.2   250  ASN250     -0.2716
     67  ND2       63.3010   19.9520   26.5900 N.am  250  ASN250     -0.0877
     68  N         58.8190   18.2370   27.1910 N.3   252  LYS252     -0.1231
     69  CA        58.7590   19.0830   28.3860 C.3   252  LYS252      0.1693
     70  C         58.3420   20.5330   28.1270 C.2   252  LYS252      0.2591
     71  O         57.7680   21.1940   29.0090 O.2   252  LYS252     -0.2718
     72  CB        60.1350   19.0710   29.0530 C.3   252  LYS252      0.0285
     73  CG        60.2910   19.9730   30.2670 C.3   252  LYS252      0.0035
     74  CD        60.9700   21.3000   29.9560 C.3   252  LYS252      0.0206
     75  CE        61.3280   21.9930   31.2640 C.3   252  LYS252      0.1093
     76  NZ        61.8650   23.3600   31.0800 N.3   252  LYS252     -0.1314
     77  N         58.6550   21.0430   26.9420 N.am  253  ALA253     -0.1980
     78  CA        58.3380   22.4300   26.5930 C.3   253  ALA253      0.1597
     79  C         56.9330   22.5500   26.0100 C.2   253  ALA253      0.2287
     80  O         56.4510   23.6560   25.7820 O.2   253  ALA253     -0.2864
     81  CB        59.3730   22.9840   25.6230 C.3   253  ALA253      0.0319
     82  N         54.2060   25.5940   26.1460 N.3   256  TYR256     -0.1241
     83  CA        54.8620   26.8850   26.3270 C.3   256  TYR256      0.1605
     84  C         55.4530   27.4080   25.0210 C.2   256  TYR256      0.2264
     85  O         56.4160   28.1820   25.0320 O.2   256  TYR256     -0.2867
     86  CB        55.9840   26.7780   27.3570 C.3   256  TYR256      0.0534
     87  CG        55.5440   26.2020   28.6710 C.ar  256  TYR256     -0.0201
     88  CD1       55.4630   24.8260   28.8580 C.ar  256  TYR256     -0.0009
     89  CD2       55.2050   27.0320   29.7290 C.ar  256  TYR256     -0.0009
     90  CE1       55.0580   24.2950   30.0770 C.ar  256  TYR256      0.0417
     91  CE2       54.8000   26.5120   30.9450 C.ar  256  TYR256      0.0417
     92  CZ        54.7320   25.1500   31.1130 C.ar  256  TYR256      0.1957
     93  OH        54.3380   24.6430   32.3300 O.3   256  TYR256     -0.2866
     94  N         62.0340   32.8900   23.9590 N.3   261  TYR261     -0.1241
     95  CA        63.1800   32.0720   24.3610 C.3   261  TYR261      0.1605
     96  C         64.4970   32.6430   23.8760 C.2   261  TYR261      0.2264
     97  O         64.6460   33.0280   22.6900 O.2   261  TYR261     -0.2867
     98  CB        63.0400   30.6730   23.7680 C.3   261  TYR261      0.0534
     99  CG        61.8970   29.9060   24.3590 C.ar  261  TYR261     -0.0201
    100  CD1       60.5840   30.1240   23.9390 C.ar  261  TYR261     -0.0009
    101  CD2       62.1280   28.9720   25.3510 C.ar  261  TYR261     -0.0009
    102  CE1       59.5260   29.4040   24.5110 C.ar  261  TYR261      0.0417
    103  CE2       61.0950   28.2740   25.9390 C.ar  261  TYR261      0.0417
    104  CZ        59.7990   28.4840   25.5150 C.ar  261  TYR261      0.1957
    105  OH        58.8010   27.7510   26.0960 O.3   261  TYR261     -0.2866
@<TRIPOS>BOND
     1    52    53    1
     2    54    53    1
     3    54    55    2
     4    56    53    1
     5    56    57    1
     6    58    57    1
     7    57    59    1
     8    60    61    1
     9    97    96    2
    10    61    62    1
    11    61    64    1
    12    98    99    1
    13    98    95    1
    14    96    95    1
    15   100    99   ar
    16   100   102   ar
    17    94    95    1
    18    62    63    2
    19    99   101   ar
    20    64    65    1
    21   102   104   ar
    22    84    85    2
    23    84    83    1
    24    46    45    2
    25   101   103   ar
    26   104   103   ar
    27   104   105    1
    28    45    44    1
    29    81    78    1
    30    80    79    2
    31    65    66    2
    32    65    67   am
    33    79    78    1
    34    41    40    1
    35    82    83    1
    36    83    86    1
    37    42    40    1
    38    78    77    1
    39    15    14    1
    40    47    44    1
    41    47    48    1
    42    44    43    1
    43    77    70   am
    44    40    37    1
    45    68    69    1
    46     4     3    2
    47    86    87    1
    48    12    11    2
    49    43    38   am
    50    13    14    1
    51    13    10    1
    52    50    49   ar
    53    14    16    1
    54    38    39    2
    55    38    37    1
    56    48    49    1
    57    70    69    1
    58    70    71    2
    59    37    36    1
    60    69    72    1
    61     9    10    1
    62    11    10    1
    63    49    51   ar
    64     3     2    1
    65     1     2    1
    66    87    88   ar
    67    87    89   ar
    68     5     2    1
    69     5     7    1
    70     5     6    1
    71     8     6    1
    72    88    90   ar
    73    72    73    1
    74    36    31   am
    75    89    91   ar
    76    74    73    1
    77    74    75    1
    78    90    92   ar
    79    31    32    2
    80    31    30    1
    81    91    92   ar
    82    76    75    1
    83    92    93    1
    84    20    19    2
    85    35    33    1
    86    30    33    1
    87    30    29    1
    88    33    34    1
    89    19    29   am
    90    19    18    1
    91    24    26   ar
    92    24    22   ar
    93    17    18    1
    94    26    27   ar
    95    18    21    1
    96    21    22    1
    97    22    23   ar
    98    27    28    1
    99    27    25   ar
   100    23    25   ar
