@<TRIPOS>MOLECULE
tmp/3p27B00.pdb
 130 127 0 0 0
SMALL
GASTEIGER

@<TRIPOS>ATOM
      1  N         33.2110  -11.6670   18.8420 N.3    37  HIS37      -0.1226
      2  CA        31.7800  -11.7740   19.1300 C.3    37  HIS37       0.1752
      3  C         31.0190  -12.2910   17.9190 C.2    37  HIS37       0.2596
      4  O         31.5940  -12.4740   16.8490 O.2    37  HIS37      -0.2718
      5  CB        31.1990  -10.4270   19.5880 C.3    37  HIS37       0.0759
      6  CG        29.7530  -10.4920   19.9910 C.ar   37  HIS37       0.0818
      7  ND1       28.7280  -10.0860   19.1590 N.ar   37  HIS37      -0.2268
      8  CD2       29.1620  -10.9190   21.1340 C.ar   37  HIS37       0.1154
      9  CE1       27.5710  -10.2540   19.7770 C.ar   37  HIS37       0.1986
     10  NE2       27.8070  -10.7600   20.9750 N.ar   37  HIS37      -0.2212
     11  N         29.7220  -12.5180   18.0900 N.am   38  VAL38      -0.1966
     12  CA        28.9130  -13.1000   17.0280 C.3    38  VAL38       0.1727
     13  C         28.7840  -12.1980   15.7870 C.2    38  VAL38       0.2616
     14  O         28.7580  -12.6940   14.6580 O.2    38  VAL38      -0.2715
     15  CB        27.5140  -13.5240   17.5340 C.3    38  VAL38       0.0290
     16  CG1       26.6460  -12.3130   17.7990 C.3    38  VAL38       0.0023
     17  CG2       26.8480  -14.4480   16.5290 C.3    38  VAL38       0.0023
     18  N         28.7040  -10.8850   15.9840 N.am   39  ASP39      -0.1957
     19  CA        28.5710   -9.9690   14.8480 C.3    39  ASP39       0.1840
     20  C         29.6980   -8.9500   14.8020 C.2    39  ASP39       0.2622
     21  O         29.4880   -7.7560   15.0370 O.2    39  ASP39      -0.2715
     22  CB        27.2260   -9.2520   14.8870 C.3    39  ASP39       0.1450
     23  CG        26.1380  -10.0400   14.2050 C.2    39  ASP39       0.3671
     24  OD1       26.4770  -10.9190   13.3800 O.co2  39  ASP39      -0.2456
     25  OD2       24.9520   -9.7750   14.4940 O.co2  39  ASP39      -0.2456
     26  N         30.8930   -9.4250   14.4900 N.am   40  ALA40      -0.1963
     27  CA        32.0650   -8.5910   14.5980 C.3    40  ALA40       0.1728
     28  C         32.8120   -8.5660   13.2770 C.2    40  ALA40       0.2617
     29  O         33.7400   -7.7770   13.0900 O.2    40  ALA40      -0.2715
     30  CB        32.9540   -9.0870   15.7220 C.3    40  ALA40       0.0334
     31  N         32.4040   -9.4280   12.3560 N.am   41  GLY41      -0.1940
     32  CA        33.0230   -9.4600   11.0460 C.3    41  GLY41       0.2014
     33  C         33.9620  -10.6260   10.7930 C.2    41  GLY41       0.2639
     34  O         34.6740  -10.6440    9.7950 O.2    41  GLY41      -0.2714
     35  N         33.9590  -11.6070   11.6850 N.am   42  LYS42      -0.1963
     36  CA        34.8420  -12.7550   11.5590 C.3    42  LYS42       0.1728
     37  C         34.8590  -13.3480   10.1510 C.2    42  LYS42       0.2617
     38  O         35.9160  -13.5830    9.5740 O.2    42  LYS42      -0.2715
     39  CB        34.4620  -13.8240   12.5850 C.3    42  LYS42       0.0311
     40  CG        35.0300  -13.5730   13.9810 C.3    42  LYS42       0.0038
     41  CD        34.5230  -14.5810   14.9890 C.3    42  LYS42       0.0206
     42  CE        33.0420  -14.4340   15.1780 C.3    42  LYS42       0.1093
     43  NZ        32.5370  -15.2480   16.3080 N.3    42  LYS42      -0.1314
     44  N         33.6880  -13.5920    9.5870 N.am   43  SER43      -0.1936
     45  CA        33.6430  -14.3140    8.3280 C.3    43  SER43       0.2055
     46  C         33.8040  -13.3910    7.1430 C.2    43  SER43       0.2643
     47  O         34.4220  -13.7650    6.1520 O.2    43  SER43      -0.2714
     48  CB        32.3650  -15.1350    8.2100 C.3    43  SER43       0.2130
     49  OG        31.2950  -14.4500    8.8180 O.3    43  SER43      -0.2179
     50  N         33.2600  -12.1840    7.2200 N.am   44  THR44      -0.1950
     51  CA        33.4830  -11.2570    6.1130 C.3    44  THR44       0.1897
     52  C         34.9640  -10.9280    6.0650 C.2    44  THR44       0.2313
     53  O         35.5470  -10.8380    4.9970 O.2    44  THR44      -0.2863
     54  CB        32.6370   -9.9670    6.2000 C.3    44  THR44       0.1794
     55  OG1       32.5250   -9.5610    7.5650 O.3    44  THR44      -0.2208
     56  CG2       31.2400  -10.1900    5.6230 C.3    44  THR44       0.0378
     57  N         28.4060  -11.6500    1.3350 N.3    64  GLN64      -0.1231
     58  CA        27.9810  -10.3210    1.7740 C.3    64  GLN64       0.1698
     59  C         26.4570  -10.1530    1.7460 C.2    64  GLN64       0.2592
     60  O         25.9030   -9.5740    0.8080 O.2    64  GLN64      -0.2718
     61  CB        28.6910   -9.2310    0.9600 C.3    64  GLN64       0.0381
     62  CG        30.2100   -9.1820    1.1990 C.3    64  GLN64       0.0905
     63  CD        30.9850   -8.4450    0.0990 C.2    64  GLN64       0.2608
     64  OE1       30.5600   -8.3860   -1.0630 O.2    64  GLN64      -0.2717
     65  NE2       32.1370   -7.8870    0.4670 N.am   64  GLN64      -0.0878
     66  N         25.7960  -10.6710    2.7870 N.am   65  ARG65      -0.1980
     67  CA        24.3420  -10.5540    2.9590 C.3    65  ARG65       0.1597
     68  C         23.9600  -10.4520    4.4450 C.2    65  ARG65       0.2287
     69  O         23.9890   -9.3710    5.0440 O.2    65  ARG65      -0.2864
     70  CB        23.6170  -11.7500    2.3270 C.3    65  ARG65       0.0334
     71  CG        23.0490  -12.7420    3.3490 C.3    65  ARG65       0.0492
     72  CD        24.1290  -13.6200    3.9670 C.3    65  ARG65       0.2205
     73  NE        24.3850  -14.8230    3.1720 N.pl3  65  ARG65      -0.0865
     74  CZ        25.2910  -15.7500    3.4810 C.cat  65  ARG65       0.5346
     75  NH1       26.0410  -15.6140    4.5660 N.pl3  65  ARG65       0.1354
     76  NH2       25.4550  -16.8150    2.7060 N.pl3  65  ARG65       0.1354
     77  N         37.7600   -3.5540   14.0140 N.3   151  ASN151     -0.1225
     78  CA        37.0470   -3.8050   12.7770 C.3   151  ASN151      0.1785
     79  C         35.8680   -2.8680   12.5620 C.2   151  ASN151      0.2597
     80  O         35.4090   -2.1910   13.4850 O.2   151  ASN151     -0.2718
     81  CB        36.5960   -5.2620   12.7720 C.3   151  ASN151      0.1169
     82  CG        36.0650   -5.6990   11.4490 C.2   151  ASN151      0.2627
     83  OD1       36.0190   -4.9230   10.5080 O.2   151  ASN151     -0.2716
     84  ND2       35.6620   -6.9550   11.3590 N.am  151  ASN151     -0.0877
     85  N         35.3890   -2.8310   11.3270 N.am  152  LYS152     -0.1980
     86  CA        34.2170   -2.0460   10.9830 C.3   152  LYS152      0.1596
     87  C         34.4980   -0.5660   11.1720 C.2   152  LYS152      0.2287
     88  O         33.6630    0.1810   11.6780 O.2   152  LYS152     -0.2864
     89  CB        33.0190   -2.4770   11.8320 C.3   152  LYS152      0.0298
     90  CG        32.4160   -3.8050   11.4200 C.3   152  LYS152      0.0038
     91  CD        31.1070   -4.0550   12.1450 C.3   152  LYS152      0.0206
     92  CE        30.5460   -5.4290   11.8150 C.3   152  LYS152      0.1093
     93  NZ        29.1720   -5.6500   12.3440 N.3   152  LYS152     -0.1314
     94  N         34.4440    1.6650    9.0250 N.3   153  ASP153     -0.1225
     95  CA        33.5710    2.5840    8.3160 C.3   153  ASP153      0.1805
     96  C         32.5420    3.1720    9.2270 C.2   153  ASP153      0.2597
     97  O         32.3350    4.3580    9.2260 O.2   153  ASP153     -0.2718
     98  CB        32.7290    1.8650    7.2960 C.3   153  ASP153      0.1424
     99  CG        33.3700    0.6510    6.7970 C.2   153  ASP153      0.3668
    100  OD1       34.5840    0.5510    7.0020 O.co2 153  ASP153     -0.2456
    101  OD2       32.6690   -0.1940    6.2050 O.co2 153  ASP153     -0.2456
    102  N         31.8960    2.3630   10.0370 N.am  154  ASN154     -0.1974
    103  CA        30.8060    2.9230   10.8230 C.3   154  ASN154      0.1688
    104  C         31.2720    3.7930   11.9770 C.2   154  ASN154      0.2292
    105  O         30.5350    4.0150   12.9290 O.2   154  ASN154     -0.2864
    106  CB        29.8780    1.8120   11.3220 C.3   154  ASN154      0.1181
    107  CG        29.4720    0.8550   10.2120 C.2   154  ASN154      0.2629
    108  OD1       29.8580    1.0370    9.0560 O.2   154  ASN154     -0.2716
    109  ND2       28.6930   -0.1680   10.5570 N.am  154  ASN154     -0.0877
    110  N         38.6770   -2.7690    7.7340 N.3   189  SER189     -0.1202
    111  CA        37.2920   -2.9360    7.3820 C.3   189  SER189      0.2020
    112  C         37.1730   -4.2060    6.5750 C.2   189  SER189      0.2619
    113  O         37.6080   -4.2520    5.4260 O.2   189  SER189     -0.2717
    114  CB        36.7990   -1.7600    6.5620 C.3   189  SER189      0.2103
    115  OG        35.5070   -2.0260    6.0520 O.3   189  SER189     -0.2182
    116  N         36.5990   -5.2380    7.1830 N.am  190  GLY190     -0.1942
    117  CA        36.3550   -6.4790    6.4840 C.3   190  GLY190      0.2014
    118  C         35.6000   -6.2470    5.1930 C.2   190  GLY190      0.2638
    119  O         35.8010   -6.9630    4.2020 O.2   190  GLY190     -0.2714
    120  N         34.7350   -5.2370    5.1960 N.am  191  PHE191     -0.1973
    121  CA        33.8760   -4.9690    4.0430 C.3   191  PHE191      0.1639
    122  C         34.5940   -4.2690    2.8880 C.2   191  PHE191      0.2290
    123  O         34.6020   -4.7820    1.7670 O.2   191  PHE191     -0.2864
    124  CB        32.6330   -4.1890    4.4540 C.3   191  PHE191      0.0560
    125  CG        31.4570   -4.4110    3.5460 C.ar  191  PHE191     -0.0200
    126  CD1       30.8610   -5.6620    3.4560 C.ar  191  PHE191     -0.0042
    127  CD2       30.9410   -3.3700    2.7870 C.ar  191  PHE191     -0.0042
    128  CE1       29.7710   -5.8720    2.6210 C.ar  191  PHE191     -0.0003
    129  CE2       29.8500   -3.5710    1.9540 C.ar  191  PHE191     -0.0003
    130  CZ        29.2660   -4.8260    1.8710 C.ar  191  PHE191     -0.0000
@<TRIPOS>BOND
     1    64    63    2
     2    63    65   am
     3    63    62    1
     4    60    59    2
     5    61    62    1
     6    61    58    1
     7    57    58    1
     8    59    58    1
     9    59    66   am
    10   123   122    2
    11   130   129   ar
    12   130   128   ar
    13   129   127   ar
    14    70    67    1
    15    70    71    1
    16   128   126   ar
    17    76    74    1
    18    66    67    1
    19   127   125   ar
    20   122   121    1
    21    67    68    1
    22    73    74    2
    23    73    72    1
    24    71    72    1
    25   126   125   ar
    26    74    75    1
    27   125   124    1
    28   121   124    1
    29   121   120    1
    30   119   118    2
    31    68    69    2
    32    53    52    2
    33   118   120   am
    34   118   117    1
    35   113   112    2
    36    56    54    1
    37   115   114    1
    38    52    51    1
    39    51    54    1
    40    51    50    1
    41    47    46    2
    42    54    55    1
    43   101    99   ar
    44   117   116    1
    45   114   111    1
    46   112   116   am
    47   112   111    1
    48    99   100   ar
    49    99    98    1
    50    46    50   am
    51    46    45    1
    52    98    95    1
    53   111   110    1
    54    48    45    1
    55    48    49    1
    56    95    94    1
    57    95    96    1
    58    45    44    1
    59   108   107    2
    60    97    96    2
    61    96   102   am
    62    38    37    2
    63    44    37   am
    64    34    33    2
    65   102   103    1
    66    37    36    1
    67   107   109   am
    68   107   106    1
    69    83    82    2
    70    33    32    1
    71    33    35   am
    72   103   106    1
    73   103   104    1
    74    86    87    1
    75    86    85    1
    76    86    89    1
    77    32    31    1
    78    87    88    2
    79    85    79   am
    80    84    82   am
    81    90    89    1
    82    90    91    1
    83    82    81    1
    84    36    35    1
    85    36    39    1
    86    92    91    1
    87    92    93    1
    88   104   105    2
    89    31    28   am
    90    79    78    1
    91    79    80    2
    92    39    40    1
    93    81    78    1
    94    78    77    1
    95    29    28    2
    96    28    27    1
    97    24    23   ar
    98    40    41    1
    99    23    25   ar
   100    23    22    1
   101    26    27    1
   102    26    20   am
   103    27    30    1
   104    14    13    2
   105    20    19    1
   106    20    21    2
   107    19    22    1
   108    19    18    1
   109    41    42    1
   110    42    43    1
   111    13    18   am
   112    13    12    1
   113    17    15    1
   114     4     3    2
   115    12    15    1
   116    12    11    1
   117    15    16    1
   118     3    11   am
   119     3     2    1
   120     1     2    1
   121     2     5    1
   122     7     9   ar
   123     7     6   ar
   124     5     6    1
   125     9    10   ar
   126     6     8   ar
   127    10     8   ar
