@<TRIPOS>MOLECULE
tmp/3p2bA00.pdb
 193 180 0 0 0
SMALL
GASTEIGER

@<TRIPOS>ATOM
      1  N         12.2690   12.4360   10.9260 N.3   535  LYS535     -0.1245
      2  CA        12.8110   13.7480   10.5930 C.3   535  LYS535      0.1561
      3  C         14.3200   13.8000   10.7910 C.2   535  LYS535      0.2260
      4  O         14.8650   13.1230   11.6600 O.2   535  LYS535     -0.2867
      5  CB        12.1420   14.8300   11.4440 C.3   535  LYS535      0.0271
      6  CG        12.5270   14.7990   12.9150 C.3   535  LYS535      0.0035
      7  CD        11.7630   15.8520   13.7030 C.3   535  LYS535      0.0206
      8  CE        12.2300   15.9250   15.1490 C.3   535  LYS535      0.1093
      9  NZ        13.6250   16.4370   15.2630 N.3   535  LYS535     -0.1314
     10  N         17.7630   15.7230   11.9480 N.3   537  MET537     -0.1245
     11  CA        18.0410   16.5980   13.0830 C.3   537  MET537      0.1570
     12  C         18.8990   17.8050   12.7010 C.2   537  MET537      0.2261
     13  O         19.5590   17.8070   11.6610 O.2   537  MET537     -0.2867
     14  CB        18.6740   15.7980   14.2240 C.3   537  MET537      0.0387
     15  CG        17.7690   14.6850   14.7400 C.3   537  MET537      0.0595
     16  SD        18.5640   13.5510   15.8930 S.3   537  MET537     -0.1393
     17  CE        18.9860   14.6610   17.2340 C.3   537  MET537      0.0692
     18  N         16.1530   10.9950   12.8040 N.3   545  TRP545     -0.1241
     19  CA        15.2190   10.6920   13.8800 C.3   545  TRP545      0.1605
     20  C         14.1070    9.8080   13.3310 C.2   545  TRP545      0.2264
     21  O         13.2130   10.2860   12.6360 O.2   545  TRP545     -0.2867
     22  CB        14.6300   11.9870   14.4410 C.3   545  TRP545      0.0550
     23  CG        13.5550   11.7890   15.4680 C.ar  545  TRP545      0.0003
     24  CD1       12.3420   11.1910   15.2820 C.ar  545  TRP545      0.0946
     25  CD2       13.5860   12.2150   16.8350 C.ar  545  TRP545      0.0152
     26  NE1       11.6230   11.2050   16.4520 N.ar  545  TRP545     -0.2442
     27  CE2       12.3630   11.8300   17.4200 C.ar  545  TRP545      0.0810
     28  CE3       14.5310   12.8780   17.6230 C.ar  545  TRP545      0.0012
     29  CZ2       12.0610   12.0860   18.7550 C.ar  545  TRP545      0.0191
     30  CZ3       14.2290   13.1320   18.9490 C.ar  545  TRP545      0.0001
     31  CH2       13.0050   12.7370   19.5010 C.ar  545  TRP545      0.0015
     32  N         17.6160    6.7280   16.7560 N.3   562  ILE562     -0.1245
     33  CA        18.3970    7.7120   16.0180 C.3   562  ILE562      0.1561
     34  C         19.5780    7.0570   15.3110 C.2   562  ILE562      0.2260
     35  O         20.3450    6.3160   15.9230 O.2   562  ILE562     -0.2867
     36  CB        18.9370    8.8150   16.9430 C.3   562  ILE562      0.0252
     37  CG1       17.7960    9.4810   17.7080 C.3   562  ILE562      0.0019
     38  CG2       19.7150    9.8480   16.1410 C.3   562  ILE562      0.0019
     39  CD1       18.2610   10.5280   18.6980 C.3   562  ILE562      0.0001
     40  N         23.0590    7.9110   13.2990 N.3   564  LYS564     -0.1245
     41  CA        23.9980    9.0160   13.1530 C.3   564  LYS564      0.1561
     42  C         25.3770    8.5810   12.6690 C.2   564  LYS564      0.2260
     43  O         25.9540    7.6210   13.1820 O.2   564  LYS564     -0.2867
     44  CB        24.1350    9.7660   14.4810 C.3   564  LYS564      0.0271
     45  CG        25.2170   10.8330   14.4850 C.3   564  LYS564      0.0035
     46  CD        25.3010   11.5360   15.8300 C.3   564  LYS564      0.0206
     47  CE        26.4060   12.5780   15.8350 C.3   564  LYS564      0.1093
     48  NZ        26.5090   13.2870   17.1400 N.3   564  LYS564     -0.1314
     49  N         30.3130   10.7940   14.6970 N.3   567  ASP567     -0.1239
     50  CA        31.0000   10.4860   15.9470 C.3   567  ASP567      0.1674
     51  C         31.2550    8.9870   16.0810 C.2   567  ASP567      0.2266
     52  O         30.5930    8.1760   15.4340 O.2   567  ASP567     -0.2867
     53  CB        30.1960   10.9940   17.1460 C.3   567  ASP567      0.1410
     54  CG        30.2340   12.5040   17.2750 C.2   567  ASP567      0.3668
     55  OD1       31.1150   13.0170   17.9980 O.co2 567  ASP567     -0.2456
     56  OD2       29.3850   13.1780   16.6540 O.co2 567  ASP567     -0.2456
     57  N         30.6670    5.9560   18.0720 N.3   569  LEU569     -0.1245
     58  CA        29.7550    5.5000   19.1130 C.3   569  LEU569      0.1561
     59  C         30.3500    4.4050   20.0020 C.2   569  LEU569      0.2260
     60  O         29.7090    3.9520   20.9490 O.2   569  LEU569     -0.2867
     61  CB        28.4310    5.0420   18.4980 C.3   569  LEU569      0.0270
     62  CG        27.6730    6.1270   17.7290 C.3   569  LEU569      0.0019
     63  CD1       26.3220    5.6140   17.2670 C.3   569  LEU569      0.0001
     64  CD2       27.5050    7.3740   18.5840 C.3   569  LEU569      0.0001
     65  N         31.0240    6.0850   23.2450 N.3   572  ASP572     -0.1239
     66  CA        29.7500    6.2170   23.9430 C.3   572  ASP572      0.1674
     67  C         29.3490    4.9130   24.6240 C.2   572  ASP572      0.2266
     68  O         29.0130    4.9030   25.8070 O.2   572  ASP572     -0.2867
     69  CB        28.6480    6.6640   22.9810 C.3   572  ASP572      0.1410
     70  CG        28.7690    8.1240   22.5930 C.2   572  ASP572      0.3668
     71  OD1       28.3210    8.9850   23.3760 O.co2 572  ASP572     -0.2456
     72  OD2       29.3070    8.4110   21.5030 O.co2 572  ASP572     -0.2456
     73  N         20.6920    5.2420   28.2340 N.3   598  TYR598     -0.1241
     74  CA        19.9570    4.9070   27.0190 C.3   598  TYR598      0.1605
     75  C         20.7270    3.9130   26.1520 C.2   598  TYR598      0.2264
     76  O         21.9430    3.7700   26.2810 O.2   598  TYR598     -0.2867
     77  CB        19.6370    6.1760   26.2210 C.3   598  TYR598      0.0534
     78  CG        20.8380    7.0600   25.9810 C.ar  598  TYR598     -0.0201
     79  CD1       21.5900    6.9460   24.8200 C.ar  598  TYR598     -0.0009
     80  CD2       21.2260    8.0040   26.9200 C.ar  598  TYR598     -0.0009
     81  CE1       22.6910    7.7500   24.6000 C.ar  598  TYR598      0.0417
     82  CE2       22.3260    8.8120   26.7080 C.ar  598  TYR598      0.0417
     83  CZ        23.0540    8.6810   25.5480 C.ar  598  TYR598      0.1957
     84  OH        24.1510    9.4850   25.3370 O.3   598  TYR598     -0.2866
     85  N         22.6170    2.2270   23.0450 N.3   600  CYS600     -0.1235
     86  CA        23.5330    2.7110   22.0200 C.3   600  CYS600      0.1677
     87  C         24.3770    1.5770   21.4590 C.2   600  CYS600      0.2270
     88  O         25.1070    0.9130   22.1930 O.2   600  CYS600     -0.2867
     89  CB        24.4450    3.8000   22.5820 C.3   600  CYS600      0.0956
     90  SG        25.7430    4.3170   21.4420 S.3   600  CYS600     -0.0801
     91  N         21.1990    4.9780   18.1600 N.3   610  ILE610     -0.1231
     92  CA        21.0160    5.4580   19.5250 C.3   610  ILE610      0.1692
     93  C         19.5420    5.4300   19.9170 C.2   610  ILE610      0.2592
     94  O         18.6710    5.7430   19.1070 O.2   610  ILE610     -0.2718
     95  CB        21.5460    6.8970   19.6850 C.3   610  ILE610      0.0266
     96  CG1       22.9580    7.0140   19.1080 C.3   610  ILE610      0.0019
     97  CG2       21.5230    7.3170   21.1460 C.3   610  ILE610      0.0020
     98  CD1       23.5250    8.4110   19.1620 C.3   610  ILE610      0.0001
     99  N         19.2670    5.0540   21.1620 N.am  611  GLU611     -0.1966
    100  CA        17.8980    5.0240   21.6640 C.3   611  GLU611      0.1733
    101  C         17.3710    6.4290   21.9250 C.2   611  GLU611      0.2616
    102  O         18.1140    7.3150   22.3450 O.2   611  GLU611     -0.2715
    103  CB        17.8070    4.1990   22.9500 C.3   611  GLU611      0.0429
    104  CG        16.4350    4.2490   23.6090 C.3   611  GLU611      0.1163
    105  CD        16.4180    3.6260   24.9920 C.2   611  GLU611      0.3649
    106  OE1       17.4100    2.9660   25.3620 O.co2 611  GLU611     -0.2457
    107  OE2       15.4120    3.8000   25.7130 O.co2 611  GLU611     -0.2457
    108  N         16.0820    6.6240   21.6720 N.am  612  ILE612     -0.1963
    109  CA        15.4240    7.8820   21.9930 C.3   612  ILE612      0.1727
    110  C         14.6980    7.7820   23.3280 C.2   612  ILE612      0.2616
    111  O         13.9010    6.8670   23.5470 O.2   612  ILE612     -0.2715
    112  CB        14.4120    8.2900   20.9100 C.3   612  ILE612      0.0290
    113  CG1       15.1400    8.7360   19.6430 C.3   612  ILE612      0.0022
    114  CG2       13.5120    9.4030   21.4150 C.3   612  ILE612      0.0023
    115  CD1       14.2140    9.1750   18.5310 C.3   612  ILE612      0.0001
    116  N         14.9900    8.7190   24.2220 N.am  613  VAL613     -0.1977
    117  CA        14.2620    8.8270   25.4760 C.3   613  VAL613      0.1596
    118  C         13.0270    9.6880   25.2510 C.2   613  VAL613      0.2287
    119  O         13.1300   10.8470   24.8510 O.2   613  VAL613     -0.2864
    120  CB        15.1250    9.4450   26.5900 C.3   613  VAL613      0.0276
    121  CG1       14.2750    9.7400   27.8150 C.3   613  VAL613      0.0022
    122  CG2       16.2740    8.5160   26.9430 C.3   613  VAL613      0.0022
    123  N         11.8310   13.7620   26.3280 N.3   616  ALA616     -0.1231
    124  CA        13.0870   14.3080   26.8260 C.3   616  ALA616      0.1694
    125  C         13.6190   15.3760   25.8790 C.2   616  ALA616      0.2593
    126  O         13.6190   15.1930   24.6620 O.2   616  ALA616     -0.2718
    127  CB        14.1110   13.2010   27.0030 C.3   616  ALA616      0.0304
    128  N         14.0680   16.4930   26.4420 N.am  617  THR617     -0.1939
    129  CA        14.6250   17.5790   25.6440 C.3   617  THR617      0.2028
    130  C         15.9120   18.1140   26.2660 C.2   617  THR617      0.2642
    131  O         16.2340   17.8050   27.4140 O.2   617  THR617     -0.2714
    132  CB        13.6210   18.7360   25.4680 C.3   617  THR617      0.1808
    133  OG1       14.1640   19.7130   24.5690 O.3   617  THR617     -0.2208
    134  CG2       13.3200   19.3920   26.8070 C.3   617  THR617      0.0379
    135  N         16.6410   18.9170   25.4980 N.am  618  THR618     -0.1950
    136  CA        17.9280   19.4430   25.9350 C.3   618  THR618      0.1897
    137  C         17.7720   20.6370   26.8740 C.2   618  THR618      0.2313
    138  O         16.9140   21.4940   26.6640 O.2   618  THR618     -0.2863
    139  CB        18.7970   19.8520   24.7300 C.3   618  THR618      0.1794
    140  OG1       19.1040   18.6930   23.9450 O.3   618  THR618     -0.2208
    141  CG2       20.0900   20.4900   25.1960 C.3   618  THR618      0.0378
    142  N         18.0100   23.9500   25.0580 N.3   621  LYS621     -0.1245
    143  CA        16.7840   24.3460   24.3750 C.3   621  LYS621      0.1561
    144  C         15.8360   25.0870   25.3160 C.2   621  LYS621      0.2260
    145  O         15.2690   26.1150   24.9500 O.2   621  LYS621     -0.2867
    146  CB        16.0850   23.1260   23.7700 C.3   621  LYS621      0.0271
    147  CG        16.9950   22.2970   22.9030 C.3   621  LYS621      0.0035
    148  CD        17.1200   22.8750   21.5290 C.3   621  LYS621      0.0206
    149  CE        17.9510   22.0280   20.5740 C.3   621  LYS621      0.1093
    150  NZ        19.3060   21.7420   21.0270 N.3   621  LYS621     -0.1314
    151  N         23.7720   22.0380   26.0090 N.3   679  ASP679     -0.1239
    152  CA        23.3410   21.3590   24.7920 C.3   679  ASP679      0.1674
    153  C         23.6410   19.8630   24.8360 C.2   679  ASP679      0.2266
    154  O         23.1320   19.0960   24.0200 O.2   679  ASP679     -0.2867
    155  CB        23.9990   21.9970   23.5660 C.3   679  ASP679      0.1410
    156  CG        23.1800   21.8160   22.3030 C.2   679  ASP679      0.3668
    157  OD1       21.9400   21.7010   22.4090 O.co2 679  ASP679     -0.2456
    158  OD2       23.7740   21.7950   21.2040 O.co2 679  ASP679     -0.2456
    159  N         20.4110   16.5020   28.9470 N.3   682  MET682     -0.1245
    160  CA        18.9780   16.4250   28.7040 C.3   682  MET682      0.1570
    161  C         18.2000   16.1060   29.9710 C.2   682  MET682      0.2261
    162  O         18.7810   15.7610   31.0000 O.2   682  MET682     -0.2867
    163  CB        18.6720   15.3860   27.6240 C.3   682  MET682      0.0387
    164  CG        19.1530   15.7820   26.2390 C.3   682  MET682      0.0595
    165  SD        18.6110   14.6400   24.9590 S.3   682  MET682     -0.1393
    166  CE        16.8350   14.7250   25.1560 C.3   682  MET682      0.0692
    167  N         19.8220   13.5230   32.5350 N.3   690  PHE690     -0.1241
    168  CA        20.8480   12.6500   31.9610 C.3   690  PHE690      0.1605
    169  C         21.7000   13.3430   30.8990 C.2   690  PHE690      0.2264
    170  O         21.2090   14.1830   30.1430 O.2   690  PHE690     -0.2867
    171  CB        20.2210   11.3810   31.3800 C.3   690  PHE690      0.0534
    172  CG        19.2430   11.6400   30.2740 C.ar  690  PHE690     -0.0203
    173  CD1       19.6280   11.5330   28.9500 C.ar  690  PHE690     -0.0042
    174  CD2       17.9370   11.9900   30.5590 C.ar  690  PHE690     -0.0042
    175  CE1       18.7270   11.7700   27.9310 C.ar  690  PHE690     -0.0003
    176  CE2       17.0330   12.2280   29.5440 C.ar  690  PHE690     -0.0003
    177  CZ        17.4290   12.1190   28.2280 C.ar  690  PHE690     -0.0000
    178  N         24.3850   13.2450   27.4870 N.3   692  ILE692     -0.1231
    179  CA        24.4210   12.5460   26.2070 C.3   692  ILE692      0.1692
    180  C         25.7020   12.8260   25.4270 C.2   692  ILE692      0.2592
    181  O         26.5910   13.5310   25.9010 O.2   692  ILE692     -0.2718
    182  CB        23.2330   12.9420   25.3150 C.3   692  ILE692      0.0266
    183  CG1       23.2240   14.4580   25.0960 C.3   692  ILE692      0.0019
    184  CG2       21.9220   12.4610   25.9220 C.3   692  ILE692      0.0020
    185  CD1       22.2210   14.9290   24.0690 C.3   692  ILE692      0.0001
    186  N         25.7730   12.2660   24.2230 N.am  693  ASP693     -0.1974
    187  CA        26.9050   12.4510   23.3170 C.3   693  ASP693      0.1709
    188  C         28.2550   12.4600   24.0310 C.2   693  ASP693      0.2293
    189  O         28.9300   13.4860   24.0870 O.2   693  ASP693     -0.2864
    190  CB        26.7350   13.7300   22.4960 C.3   693  ASP693      0.1436
    191  CG        27.6240   13.7530   21.2680 C.2   693  ASP693      0.3671
    192  OD1       28.5850   12.9550   21.2140 O.co2 693  ASP693     -0.2456
    193  OD2       27.3640   14.5660   20.3570 O.co2 693  ASP693     -0.2456
@<TRIPOS>BOND
     1     2     3    1
     2     2     1    1
     3     2     5    1
     4     3     4    2
     5     5     6    1
     6    13    12    2
     7    10    11    1
     8    21    20    2
     9    42    41    1
    10    42    43    2
    11    12    11    1
    12    18    19    1
    13     6     7    1
    14    11    14    1
    15    41    40    1
    16    41    44    1
    17    20    19    1
    18     7     8    1
    19    19    22    1
    20    14    15    1
    21    22    23    1
    22    44    45    1
    23    45    46    1
    24    49    50    1
    25    15    16    1
    26     8     9    1
    27    24    23   ar
    28    24    26   ar
    29    34    35    2
    30    34    33    1
    31    52    51    2
    32    23    25   ar
    33    46    47    1
    34    47    48    1
    35    16    17    1
    36    50    51    1
    37    50    53    1
    38    33    32    1
    39    33    36    1
    40    38    36    1
    41    26    27   ar
    42    56    54   ar
    43    25    27   ar
    44    25    28   ar
    45    36    37    1
    46    53    54    1
    47    63    62    1
    48    54    55   ar
    49    27    29   ar
    50    28    30   ar
    51    37    39    1
    52    62    61    1
    53    62    64    1
    54    57    58    1
    55    91    92    1
    56    61    58    1
    57   115   113    1
    58    29    31   ar
    59    30    31   ar
    60    94    93    2
    61    96    98    1
    62    96    95    1
    63    58    59    1
    64    92    95    1
    65    92    93    1
    66   113   112    1
    67    95    97    1
    68    93    99   am
    69    59    60    2
    70   193   191   ar
    71   149   150    1
    72   149   148    1
    73   112   114    1
    74   112   109    1
    75    99   100    1
    76   158   156   ar
    77   192   191   ar
    78   191   190    1
    79    90    89    1
    80    87    86    1
    81    87    88    2
    82    72    70   ar
    83   148   147    1
    84   100   101    1
    85   100   103    1
    86   108   101   am
    87   108   109    1
    88   101   102    2
    89   109   110    1
    90    86    89    1
    91    86    85    1
    92   156   157   ar
    93   156   155    1
    94   190   187    1
    95    70    69    1
    96    70    71   ar
    97   147   146    1
    98   103   104    1
    99    69    66    1
   100    65    66    1
   101   187   188    1
   102   187   186    1
   103   110   111    2
   104   110   116   am
   105   155   152    1
   106   104   105    1
   107   146   143    1
   108    66    67    1
   109   140   139    1
   110   154   153    2
   111   188   189    2
   112   185   183    1
   113   116   117    1
   114   186   180   am
   115   143   142    1
   116   143   144    1
   117   133   132    1
   118    81    79   ar
   119    81    83   ar
   120    67    68    2
   121   126   125    2
   122   139   141    1
   123   139   136    1
   124   152   153    1
   125   152   151    1
   126    79    78   ar
   127   119   118    2
   128   145   144    2
   129   165   166    1
   130   165   164    1
   131   105   106   ar
   132   105   107   ar
   133   183   182    1
   134   118   117    1
   135   182   184    1
   136   182   179    1
   137    84    83    1
   138   180   181    2
   139   180   179    1
   140   132   129    1
   141   132   134    1
   142   117   120    1
   143   135   136    1
   144   135   130   am
   145    83    82   ar
   146   129   130    1
   147   129   128    1
   148   125   128   am
   149   125   124    1
   150   136   137    1
   151    78    77    1
   152    78    80   ar
   153    75    76    2
   154    75    74    1
   155   179   178    1
   156    77    74    1
   157   164   163    1
   158   130   131    2
   159   123   124    1
   160   120   122    1
   161   120   121    1
   162   138   137    2
   163    82    80   ar
   164   124   127    1
   165    74    73    1
   166   163   160    1
   167   175   177   ar
   168   175   173   ar
   169   177   176   ar
   170   160   159    1
   171   160   161    1
   172   173   172   ar
   173   176   174   ar
   174   161   162    2
   175   170   169    2
   176   172   174   ar
   177   172   171    1
   178   169   168    1
   179   171   168    1
   180   168   167    1
