@<TRIPOS>MOLECULE
tmp/3p2hA00.pdb
 141 136 0 0 0
SMALL
GASTEIGER

@<TRIPOS>ATOM
      1  N          9.1780   77.9150   58.3510 N.3    33  TRP33      -0.1227
      2  CA         8.6260   76.6650   58.8740 C.3    33  TRP33       0.1737
      3  C          9.7010   75.6950   59.3550 C.2    33  TRP33       0.2595
      4  O          9.4150   74.7780   60.1230 O.2    33  TRP33      -0.2718
      5  CB         7.7550   75.9760   57.8150 C.3    33  TRP33       0.0564
      6  CG         6.4270   76.6440   57.5760 C.ar   33  TRP33       0.0003
      7  CD1        5.9800   77.7970   58.1410 C.ar   33  TRP33       0.0946
      8  CD2        5.3840   76.1970   56.6950 C.ar   33  TRP33       0.0152
      9  NE1        4.7240   78.1040   57.6670 N.ar   33  TRP33      -0.2442
     10  CE2        4.3340   77.1380   56.7790 C.ar   33  TRP33       0.0810
     11  CE3        5.2360   75.0930   55.8420 C.ar   33  TRP33       0.0012
     12  CZ2        3.1470   77.0110   56.0410 C.ar   33  TRP33       0.0191
     13  CZ3        4.0500   74.9680   55.1050 C.ar   33  TRP33       0.0001
     14  CH2        3.0260   75.9230   55.2130 C.ar   33  TRP33       0.0015
     15  N         10.9340   75.8920   58.8960 N.am   34  GLN34      -0.1979
     16  CA        12.0480   75.0290   59.2830 C.3    34  GLN34       0.1601
     17  C         13.3210   75.8630   59.4320 C.2    34  GLN34       0.2287
     18  O         13.3630   77.0260   59.0220 O.2    34  GLN34      -0.2864
     19  CB        12.2640   73.9360   58.2240 C.3    34  GLN34       0.0394
     20  CG        11.0440   73.0340   58.0080 C.3    34  GLN34       0.0908
     21  CD        11.1530   72.1540   56.7700 C.2    34  GLN34       0.2608
     22  OE1       10.2000   71.4490   56.4030 O.2    34  GLN34      -0.2717
     23  NE2       12.3100   72.1870   56.1160 N.am   34  GLN34      -0.0878
     24  N          7.7930   67.0610   51.6940 N.3    45  ASP45      -0.1225
     25  CA         7.4030   66.1820   52.7930 C.3    45  ASP45       0.1805
     26  C          6.8700   64.8470   52.2640 C.2    45  ASP45       0.2598
     27  O          7.0220   64.5360   51.0850 O.2    45  ASP45      -0.2718
     28  CB         6.3440   66.8540   53.6780 C.3    45  ASP45       0.1424
     29  CG         5.0750   67.1950   52.9210 C.2    45  ASP45       0.3668
     30  OD1        4.8500   66.6290   51.8350 O.co2  45  ASP45      -0.2456
     31  OD2        4.2910   68.0210   53.4310 O.co2  45  ASP45      -0.2456
     32  N          6.2400   64.0680   53.1380 N.am   46  GLN46      -0.1965
     33  CA         5.7100   62.7610   52.7550 C.3    46  GLN46       0.1733
     34  C          4.5230   62.8270   51.7990 C.2    46  GLN46       0.2616
     35  O          4.1020   61.8030   51.2580 O.2    46  GLN46      -0.2715
     36  CB         5.2930   61.9660   53.9950 C.3    46  GLN46       0.0408
     37  CG         4.0590   62.5100   54.7120 C.3    46  GLN46       0.0908
     38  CD         4.4070   63.4240   55.8690 C.2    46  GLN46       0.2608
     39  OE1        5.1330   64.3990   55.7040 O.2    46  GLN46      -0.2717
     40  NE2        3.8830   63.1110   57.0560 N.am   46  GLN46      -0.0878
     41  N          3.9840   64.0220   51.5870 N.am   47  TYR47      -0.1974
     42  CA         2.8380   64.1730   50.7000 C.3    47  TYR47       0.1639
     43  C          3.2060   64.4860   49.2540 C.2    47  TYR47       0.2290
     44  O          2.3340   64.6500   48.4020 O.2    47  TYR47      -0.2864
     45  CB         1.8940   65.2180   51.2800 C.3    47  TYR47       0.0560
     46  CG         1.4310   64.7890   52.6480 C.ar   47  TYR47      -0.0198
     47  CD1        0.6020   63.6810   52.7960 C.ar   47  TYR47      -0.0009
     48  CD2        1.9120   65.4100   53.7950 C.ar   47  TYR47      -0.0009
     49  CE1        0.2730   63.1920   54.0560 C.ar   47  TYR47       0.0417
     50  CE2        1.5910   64.9310   55.0570 C.ar   47  TYR47       0.0417
     51  CZ         0.7750   63.8160   55.1790 C.ar   47  TYR47       0.1957
     52  OH         0.5010   63.2900   56.4170 O.3    47  TYR47      -0.2866
     53  N         -2.2160   65.7480   54.3950 N.3    78  LEU78      -0.1245
     54  CA        -1.7560   66.5760   55.5120 C.3    78  LEU78       0.1561
     55  C         -2.7260   66.8740   56.6590 C.2    78  LEU78       0.2260
     56  O         -2.4300   66.5850   57.8160 O.2    78  LEU78      -0.2867
     57  CB        -1.1840   67.8870   54.9500 C.3    78  LEU78       0.0270
     58  CG        -0.4110   68.8220   55.8860 C.3    78  LEU78       0.0019
     59  CD1        0.6460   68.0370   56.6440 C.3    78  LEU78       0.0001
     60  CD2        0.2330   69.9380   55.0720 C.3    78  LEU78       0.0001
     61  N         -1.6620   64.8950   59.9260 N.3    82  VAL82      -0.1231
     62  CA        -0.9160   65.8110   60.7790 C.3    82  VAL82       0.1692
     63  C         -1.7580   66.7540   61.6450 C.2    82  VAL82       0.2592
     64  O         -1.4870   66.9030   62.8350 O.2    82  VAL82      -0.2718
     65  CB         0.0630   66.6510   59.9220 C.3    82  VAL82       0.0266
     66  CG1        0.8650   67.6140   60.8030 C.3    82  VAL82       0.0020
     67  CG2        0.9990   65.7230   59.1700 C.3    82  VAL82       0.0020
     68  N         -2.7800   67.3770   61.0640 N.am   83  PHE83      -0.1976
     69  CA        -3.6100   68.3080   61.8180 C.3    83  PHE83       0.1639
     70  C         -5.0930   67.9420   61.9130 C.2    83  PHE83       0.2290
     71  O         -5.9600   68.7940   61.7270 O.2    83  PHE83      -0.2864
     72  CB        -3.4700   69.7040   61.2130 C.3    83  PHE83       0.0560
     73  CG        -2.0660   70.2340   61.2310 C.ar   83  PHE83      -0.0200
     74  CD1       -1.4150   70.4790   62.4390 C.ar   83  PHE83      -0.0042
     75  CD2       -1.3930   70.4940   60.0440 C.ar   83  PHE83      -0.0042
     76  CE1       -0.1130   70.9770   62.4670 C.ar   83  PHE83      -0.0003
     77  CE2       -0.0890   70.9930   60.0580 C.ar   83  PHE83      -0.0003
     78  CZ         0.5510   71.2350   61.2760 C.ar   83  PHE83      -0.0000
     79  N          0.2640   73.6250   50.3970 N.3   102  ARG102     -0.1245
     80  CA         1.4220   74.3250   49.8560 C.3   102  ARG102      0.1563
     81  C          0.9740   75.3030   48.7730 C.2   102  ARG102      0.2260
     82  O          1.4440   75.2600   47.6360 O.2   102  ARG102     -0.2867
     83  CB         2.4350   73.3230   49.2870 C.3   102  ARG102      0.0307
     84  CG         3.1070   72.4300   50.3340 C.3   102  ARG102      0.0489
     85  CD         3.8990   73.2440   51.3600 C.3   102  ARG102      0.2205
     86  NE         4.8180   72.4170   52.1430 N.pl3 102  ARG102     -0.0865
     87  CZ         4.4530   71.5550   53.0910 C.cat 102  ARG102      0.5346
     88  NH1        5.3740   70.8500   53.7350 N.pl3 102  ARG102      0.1354
     89  NH2        3.1700   71.4010   53.4060 N.pl3 102  ARG102      0.1354
     90  N         -5.7580   73.4000   55.3050 N.3   132  VAL132     -0.1245
     91  CA        -5.4180   74.3760   56.3220 C.3   132  VAL132      0.1561
     92  C         -4.9390   75.6170   55.5980 C.2   132  VAL132      0.2260
     93  O         -4.0190   75.5550   54.7750 O.2   132  VAL132     -0.2867
     94  CB        -4.3000   73.8600   57.2470 C.3   132  VAL132      0.0252
     95  CG1       -3.9550   74.9110   58.2780 C.3   132  VAL132      0.0019
     96  CG2       -4.7390   72.5790   57.9140 C.3   132  VAL132      0.0019
     97  N         -3.9890   79.9550   55.9630 N.3   134  PHE134     -0.1241
     98  CA        -3.7250   81.0950   56.8270 C.3   134  PHE134      0.1605
     99  C         -5.0130   81.9170   56.7480 C.2   134  PHE134      0.2264
    100  O         -5.6370   81.9780   55.6900 O.2   134  PHE134     -0.2867
    101  CB        -2.5590   81.9150   56.2740 C.3   134  PHE134      0.0534
    102  CG        -1.2230   81.2290   56.3660 C.ar  134  PHE134     -0.0203
    103  CD1       -1.1310   79.8540   56.5510 C.ar  134  PHE134     -0.0042
    104  CD2       -0.0480   81.9630   56.2300 C.ar  134  PHE134     -0.0042
    105  CE1        0.1160   79.2200   56.5980 C.ar  134  PHE134     -0.0003
    106  CE2        1.1960   81.3410   56.2750 C.ar  134  PHE134     -0.0003
    107  CZ         1.2800   79.9710   56.4580 C.ar  134  PHE134     -0.0000
    108  N         -1.0030   78.7640   65.1260 N.3   157  ILE157     -0.1231
    109  CA         0.0490   77.7600   65.2450 C.3   157  ILE157      0.1692
    110  C          1.4210   78.4080   65.1110 C.2   157  ILE157      0.2592
    111  O          1.7670   78.9400   64.0550 O.2   157  ILE157     -0.2718
    112  CB        -0.1010   76.6670   64.1680 C.3   157  ILE157      0.0266
    113  CG1       -1.4570   75.9710   64.3250 C.3   157  ILE157      0.0019
    114  CG2        1.0310   75.6600   64.2860 C.3   157  ILE157      0.0020
    115  CD1       -1.7840   75.0080   63.2080 C.3   157  ILE157      0.0001
    116  N          2.1980   78.3480   66.1900 N.am  158  ASP158     -0.1974
    117  CA         3.5260   78.9450   66.2220 C.3   158  ASP158      0.1709
    118  C          3.4210   80.3960   65.8050 C.2   158  ASP158      0.2293
    119  O          4.2320   80.8850   65.0220 O.2   158  ASP158     -0.2864
    120  CB         4.4760   78.1980   65.2860 C.3   158  ASP158      0.1436
    121  CG         4.8760   76.8410   65.8300 C.2   158  ASP158      0.3671
    122  OD1        5.4110   76.0270   65.0470 O.co2 158  ASP158     -0.2456
    123  OD2        4.6630   76.5970   67.0420 O.co2 158  ASP158     -0.2456
    124  N          1.0470   81.8220   63.9380 N.3   160  ARG160     -0.1245
    125  CA         0.3580   82.0900   62.6680 C.3   160  ARG160      0.1563
    126  C         -1.1000   81.6420   62.7000 C.2   160  ARG160      0.2260
    127  O         -1.3860   80.4520   62.8170 O.2   160  ARG160     -0.2867
    128  CB         1.0740   81.3870   61.5090 C.3   160  ARG160      0.0307
    129  CG         2.4110   82.0080   61.1180 C.3   160  ARG160      0.0489
    130  CD         3.0140   81.3210   59.8890 C.3   160  ARG160      0.2205
    131  NE         3.6830   80.0690   60.2330 N.pl3 160  ARG160     -0.0865
    132  CZ         4.7090   79.9890   61.0810 C.cat 160  ARG160      0.5346
    133  NH1        5.1780   81.0910   61.6630 N.pl3 160  ARG160      0.1354
    134  NH2        5.2670   78.8120   61.3530 N.pl3 160  ARG160      0.1354
    135  N         -4.4160   80.3380   61.5430 N.3   162  VAL162     -0.1245
    136  CA        -4.8640   79.5050   60.4330 C.3   162  VAL162      0.1561
    137  C         -6.2050   78.8590   60.7580 C.2   162  VAL162      0.2260
    138  O         -6.6760   78.9050   61.8990 O.2   162  VAL162     -0.2867
    139  CB        -3.8540   78.3750   60.1220 C.3   162  VAL162      0.0252
    140  CG1       -2.4590   78.9520   59.9290 C.3   162  VAL162      0.0019
    141  CG2       -3.8600   77.3530   61.2500 C.3   162  VAL162      0.0019
@<TRIPOS>BOND
     1    82    81    2
     2    44    43    2
     3    81    80    1
     4    43    42    1
     5    83    80    1
     6    83    84    1
     7    80    79    1
     8    84    85    1
     9    42    45    1
    10    42    41    1
    11    27    26    2
    12    35    34    2
    13    45    46    1
    14    85    86    1
    15    41    34   am
    16    24    25    1
    17    34    33    1
    18    30    29   ar
    19    86    87    2
    20    26    25    1
    21    26    32   am
    22    46    47   ar
    23    46    48   ar
    24    33    32    1
    25    33    36    1
    26    25    28    1
    27    47    49   ar
    28    29    31   ar
    29    29    28    1
    30    87    89    1
    31    87    88    1
    32    48    50   ar
    33    36    37    1
    34    49    51   ar
    35    53    54    1
    36    37    38    1
    37    93    92    2
    38    57    54    1
    39    57    58    1
    40    50    51   ar
    41    60    58    1
    42    13    14   ar
    43    13    11   ar
    44    51    52    1
    45    14    12   ar
    46    90    91    1
    47    54    55    1
    48    92    91    1
    49   100    99    2
    50    39    38    2
    51    11     8   ar
    52    38    40   am
    53    58    59    1
    54    97    98    1
    55    12    10   ar
    56    23    21   am
    57   104   106   ar
    58   104   102   ar
    59   101   102    1
    60   101    98    1
    61   106   107   ar
    62    91    94    1
    63   102   103   ar
    64    22    21    2
    65   107   105   ar
    66   103   105   ar
    67    55    56    2
    68     8    10   ar
    69     8     6   ar
    70    99    98    1
    71    21    20    1
    72    10     9   ar
    73    94    96    1
    74    94    95    1
    75     6     5    1
    76     6     7   ar
    77     9     7   ar
    78     5     2    1
    79    20    19    1
    80    19    16    1
    81     1     2    1
    82     2     3    1
    83    15    16    1
    84    15     3   am
    85    18    17    2
    86    67    65    1
    87    16    17    1
    88     3     4    2
    89   130   131    1
    90   130   129    1
    91    65    62    1
    92    65    66    1
    93    61    62    1
    94   140   139    1
    95    75    77   ar
    96    75    73   ar
    97    77    78   ar
    98   139   136    1
    99   139   141    1
   100   131   132    2
   101   136   137    1
   102   136   135    1
   103   137   138    2
   104    62    63    1
   105    68    63   am
   106    68    69    1
   107   132   134    1
   108   132   133    1
   109   129   128    1
   110    72    73    1
   111    72    69    1
   112    73    74   ar
   113    78    76   ar
   114   128   125    1
   115    63    64    2
   116    71    70    2
   117    69    70    1
   118    74    76   ar
   119   125   126    1
   120   125   124    1
   121   126   127    2
   122   115   113    1
   123   111   110    2
   124   112   114    1
   125   112   113    1
   126   112   109    1
   127   119   118    2
   128   122   121   ar
   129   110   109    1
   130   110   116   am
   131   108   109    1
   132   120   121    1
   133   120   117    1
   134   118   117    1
   135   121   123   ar
   136   116   117    1
