@<TRIPOS>MOLECULE
tmp/3p2hA01.pdb
 178 175 0 0 0
SMALL
GASTEIGER

@<TRIPOS>ATOM
      1  N          9.7620   80.0610   49.9490 N.3    26  VAL26      -0.1231
      2  CA         8.5150   80.5540   50.5210 C.3    26  VAL26       0.1692
      3  C          8.2130   80.0110   51.9210 C.2    26  VAL26       0.2592
      4  O          8.0570   80.7720   52.8800 O.2    26  VAL26      -0.2718
      5  CB         7.3100   80.2110   49.6170 C.3    26  VAL26       0.0266
      6  CG1        6.0120   80.6250   50.3080 C.3    26  VAL26       0.0020
      7  CG2        7.4400   80.9160   48.2780 C.3    26  VAL26       0.0020
      8  N          8.1400   78.6900   52.0360 N.am   27  PHE27      -0.1976
      9  CA         7.8020   78.0620   53.3000 C.3    27  PHE27       0.1639
     10  C          8.8910   78.0040   54.3510 C.2    27  PHE27       0.2290
     11  O          8.5940   78.0130   55.5420 O.2    27  PHE27      -0.2864
     12  CB         7.2400   76.6690   53.0170 C.3    27  PHE27       0.0560
     13  CG         6.0580   76.7000   52.1010 C.ar   27  PHE27      -0.0200
     14  CD1        4.8100   77.0910   52.5730 C.ar   27  PHE27      -0.0042
     15  CD2        6.2090   76.4430   50.7470 C.ar   27  PHE27      -0.0042
     16  CE1        3.7350   77.2290   51.7030 C.ar   27  PHE27      -0.0003
     17  CE2        5.1350   76.5830   49.8710 C.ar   27  PHE27      -0.0003
     18  CZ         3.8990   76.9760   50.3500 C.ar   27  PHE27      -0.0000
     19  N          8.3010   82.0970   55.4560 N.3    31  LEU31      -0.1245
     20  CA         7.4450   81.7740   56.5840 C.3    31  LEU31       0.1561
     21  C          8.1870   81.1410   57.7470 C.2    31  LEU31       0.2260
     22  O          7.6460   81.0390   58.8470 O.2    31  LEU31      -0.2867
     23  CB         6.3140   80.8540   56.1140 C.3    31  LEU31       0.0270
     24  CG         5.5150   81.3970   54.9250 C.3    31  LEU31       0.0019
     25  CD1        4.4820   80.3680   54.4760 C.3    31  LEU31       0.0001
     26  CD2        4.8290   82.6970   55.3260 C.3    31  LEU31       0.0001
     27  N          9.1780   77.9150   58.3510 N.3    33  TRP33      -0.1241
     28  CA         8.6260   76.6650   58.8740 C.3    33  TRP33       0.1605
     29  C          9.7010   75.6950   59.3550 C.2    33  TRP33       0.2264
     30  O          9.4150   74.7780   60.1230 O.2    33  TRP33      -0.2867
     31  CB         7.7550   75.9760   57.8150 C.3    33  TRP33       0.0550
     32  CG         6.4270   76.6440   57.5760 C.ar   33  TRP33       0.0003
     33  CD1        5.9800   77.7970   58.1410 C.ar   33  TRP33       0.0946
     34  CD2        5.3840   76.1970   56.6950 C.ar   33  TRP33       0.0152
     35  NE1        4.7240   78.1040   57.6670 N.ar   33  TRP33      -0.2442
     36  CE2        4.3340   77.1380   56.7790 C.ar   33  TRP33       0.0810
     37  CE3        5.2360   75.0930   55.8420 C.ar   33  TRP33       0.0012
     38  CZ2        3.1470   77.0110   56.0410 C.ar   33  TRP33       0.0191
     39  CZ3        4.0500   74.9680   55.1050 C.ar   33  TRP33       0.0001
     40  CH2        3.0260   75.9230   55.2130 C.ar   33  TRP33       0.0015
     41  N         -6.1110   70.8830   49.2110 N.3   100  LEU100     -0.1231
     42  CA        -5.2480   71.8970   48.6250 C.3   100  LEU100      0.1693
     43  C         -4.2320   72.2770   49.6950 C.2   100  LEU100      0.2593
     44  O         -4.6130   72.6550   50.7980 O.2   100  LEU100     -0.2718
     45  CB        -6.0700   73.1270   48.2260 C.3   100  LEU100      0.0284
     46  CG        -5.2940   74.3070   47.6320 C.3   100  LEU100      0.0019
     47  CD1       -4.5780   73.8670   46.3650 C.3   100  LEU100      0.0001
     48  CD2       -6.2510   75.4590   47.3350 C.3   100  LEU100      0.0001
     49  N         -2.9460   72.1490   49.3810 N.am  101  SER101     -0.1938
     50  CA        -1.8940   72.5010   50.3320 C.3   101  SER101      0.2055
     51  C         -0.7380   73.2100   49.6260 C.2   101  SER101      0.2643
     52  O         -0.7580   73.3700   48.4100 O.2   101  SER101     -0.2714
     53  CB        -1.3740   71.2520   51.0520 C.3   101  SER101      0.2130
     54  OG        -0.8890   70.2960   50.1310 O.3   101  SER101     -0.2179
     55  N          0.2640   73.6250   50.3970 N.am  102  ARG102     -0.1963
     56  CA         1.4220   74.3250   49.8560 C.3   102  ARG102      0.1729
     57  C          0.9740   75.3030   48.7730 C.2   102  ARG102      0.2616
     58  O          1.4440   75.2600   47.6360 O.2   102  ARG102     -0.2715
     59  CB         2.4350   73.3230   49.2870 C.3   102  ARG102      0.0348
     60  CG         3.1070   72.4300   50.3340 C.3   102  ARG102      0.0492
     61  CD         3.8990   73.2440   51.3600 C.3   102  ARG102      0.2205
     62  NE         4.8180   72.4170   52.1430 N.pl3 102  ARG102     -0.0865
     63  CZ         4.4530   71.5550   53.0910 C.cat 102  ARG102      0.5346
     64  NH1        5.3740   70.8500   53.7350 N.pl3 102  ARG102      0.1354
     65  NH2        3.1700   71.4010   53.4060 N.pl3 102  ARG102      0.1354
     66  N          0.0510   76.1800   49.1440 N.am  103  PHE103     -0.1960
     67  CA        -0.4940   77.1700   48.2290 C.3   103  PHE103      0.1771
     68  C          0.1650   78.5190   48.4890 C.2   103  PHE103      0.2619
     69  O          0.1230   79.0310   49.6030 O.2   103  PHE103     -0.2715
     70  CB        -2.0070   77.2900   48.4310 C.3   103  PHE103      0.0574
     71  CG        -2.6830   78.2080   47.4560 C.ar  103  PHE103     -0.0200
     72  CD1       -2.9880   77.7790   46.1730 C.ar  103  PHE103     -0.0042
     73  CD2       -3.0260   79.5080   47.8280 C.ar  103  PHE103     -0.0042
     74  CE1       -3.6270   78.6250   45.2730 C.ar  103  PHE103     -0.0003
     75  CE2       -3.6670   80.3650   46.9300 C.ar  103  PHE103     -0.0003
     76  CZ        -3.9680   79.9200   45.6510 C.ar  103  PHE103     -0.0000
     77  N          0.7670   79.0910   47.4530 N.am  104  ALA104     -0.1963
     78  CA         1.4370   80.3780   47.5830 C.3   104  ALA104      0.1728
     79  C          1.5210   81.1050   46.2450 C.2   104  ALA104      0.2616
     80  O          1.5340   80.4790   45.1800 O.2   104  ALA104     -0.2715
     81  CB         2.8370   80.1700   48.1440 C.3   104  ALA104      0.0334
     82  N          1.5880   82.4300   46.3130 N.am  105  ALA105     -0.1977
     83  CA         1.6940   83.2660   45.1260 C.3   105  ALA105      0.1597
     84  C          2.6370   84.4330   45.4230 C.2   105  ALA105      0.2287
     85  O          2.5250   85.0800   46.4650 O.2   105  ALA105     -0.2864
     86  CB         0.3280   83.7850   44.7290 C.3   105  ALA105      0.0319
     87  N        -12.9000   71.3870   47.9420 N.3   129  LEU129     -0.1231
     88  CA       -11.4900   71.3940   48.2850 C.3   129  LEU129      0.1693
     89  C        -11.4660   71.6540   49.7870 C.2   129  LEU129      0.2592
     90  O        -12.3460   72.3370   50.3220 O.2   129  LEU129     -0.2718
     91  CB       -10.7380   72.5200   47.5770 C.3   129  LEU129      0.0284
     92  CG       -10.5900   72.4690   46.0610 C.3   129  LEU129      0.0019
     93  CD1       -9.7860   73.6720   45.6190 C.3   129  LEU129      0.0001
     94  CD2       -9.9060   71.1850   45.6380 C.3   129  LEU129      0.0001
     95  N        -10.4710   71.0940   50.4640 N.am  130  ILE130     -0.1966
     96  CA       -10.3210   71.2910   51.8960 C.3   130  ILE130      0.1727
     97  C         -8.8400   71.4640   52.1970 C.2   130  ILE130      0.2617
     98  O         -7.9930   70.9470   51.4740 O.2   130  ILE130     -0.2715
     99  CB       -10.8980   70.0960   52.6940 C.3   130  ILE130      0.0290
    100  CG1      -10.9650   70.4550   54.1830 C.3   130  ILE130      0.0022
    101  CG2      -10.0510   68.8500   52.4730 C.3   130  ILE130      0.0023
    102  CD1      -11.7140   69.4510   55.0260 C.3   130  ILE130      0.0001
    103  N         -8.5220   72.2110   53.2480 N.am  131  GLY131     -0.1940
    104  CA        -7.1270   72.4140   53.5860 C.3   131  GLY131      0.2014
    105  C         -6.8960   73.4870   54.6300 C.2   131  GLY131      0.2639
    106  O         -7.7280   74.3730   54.8320 O.2   131  GLY131     -0.2714
    107  N         -5.7580   73.4000   55.3050 N.am  132  VAL132     -0.1963
    108  CA        -5.4180   74.3760   56.3220 C.3   132  VAL132      0.1727
    109  C         -4.9390   75.6170   55.5980 C.2   132  VAL132      0.2617
    110  O         -4.0190   75.5550   54.7750 O.2   132  VAL132     -0.2715
    111  CB        -4.3000   73.8600   57.2470 C.3   132  VAL132      0.0290
    112  CG1       -3.9550   74.9110   58.2780 C.3   132  VAL132      0.0023
    113  CG2       -4.7390   72.5790   57.9140 C.3   132  VAL132      0.0023
    114  N         -5.5600   76.7460   55.8970 N.am  133  THR133     -0.1937
    115  CA        -5.1820   77.9830   55.2350 C.3   133  THR133      0.2028
    116  C         -4.9670   79.0990   56.2390 C.2   133  THR133      0.2642
    117  O         -5.6650   79.1750   57.2490 O.2   133  THR133     -0.2714
    118  CB        -6.2780   78.4390   54.2500 C.3   133  THR133      0.1808
    119  OG1       -7.1170   79.4140   54.8800 O.3   133  THR133     -0.2208
    120  CG2       -7.1440   77.2670   53.8530 C.3   133  THR133      0.0379
    121  N         -3.9890   79.9550   55.9630 N.am  134  PHE134     -0.1973
    122  CA        -3.7250   81.0950   56.8270 C.3   134  PHE134      0.1639
    123  C         -5.0130   81.9170   56.7480 C.2   134  PHE134      0.2290
    124  O         -5.6370   81.9780   55.6900 O.2   134  PHE134     -0.2864
    125  CB        -2.5590   81.9150   56.2740 C.3   134  PHE134      0.0560
    126  CG        -1.2230   81.2290   56.3660 C.ar  134  PHE134     -0.0200
    127  CD1       -1.1310   79.8540   56.5510 C.ar  134  PHE134     -0.0042
    128  CD2       -0.0480   81.9630   56.2300 C.ar  134  PHE134     -0.0042
    129  CE1        0.1160   79.2200   56.5980 C.ar  134  PHE134     -0.0003
    130  CE2        1.1960   81.3410   56.2750 C.ar  134  PHE134     -0.0003
    131  CZ         1.2800   79.9710   56.4580 C.ar  134  PHE134     -0.0000
    132  N         -5.2820   84.9870   56.6630 N.3   136  SER136     -0.1202
    133  CA        -5.0610   86.0910   55.7360 C.3   136  SER136      0.2020
    134  C         -5.3750   85.6330   54.3120 C.2   136  SER136      0.2618
    135  O         -5.8810   86.4040   53.4970 O.2   136  SER136     -0.2717
    136  CB        -3.6150   86.5810   55.8300 C.3   136  SER136      0.2103
    137  OG        -2.7060   85.5300   55.5810 O.3   136  SER136     -0.2182
    138  N         -5.0700   84.3720   54.0210 N.am  137  MET137     -0.1979
    139  CA        -5.3370   83.7970   52.7050 C.3   137  MET137      0.1605
    140  C         -6.8420   83.5580   52.5930 C.2   137  MET137      0.2287
    141  O         -7.4330   83.7340   51.5310 O.2   137  MET137     -0.2864
    142  CB        -4.5780   82.4750   52.5450 C.3   137  MET137      0.0413
    143  CG        -4.7650   81.7960   51.1970 C.3   137  MET137      0.0598
    144  SD        -4.3020   82.8430   49.8010 S.3   137  MET137     -0.1393
    145  CE        -2.5490   82.6290   49.8010 C.3   137  MET137      0.0692
    146  N         -8.4900   86.5610   51.4240 N.3   140  MET140     -0.1230
    147  CA        -8.3390   86.8350   49.9980 C.3   140  MET140      0.1702
    148  C         -9.3140   85.9820   49.1970 C.2   140  MET140      0.2592
    149  O         -9.8470   86.4320   48.1790 O.2   140  MET140     -0.2718
    150  CB        -6.9030   86.5740   49.5390 C.3   140  MET140      0.0401
    151  CG        -5.9270   87.6560   49.9870 C.3   140  MET140      0.0596
    152  SD        -4.2620   87.3800   49.3520 S.3   140  MET140     -0.1393
    153  CE        -3.5730   86.3220   50.6680 C.3   140  MET140      0.0692
    154  N         -9.5430   84.7510   49.6530 N.am  141  PHE141     -0.1976
    155  CA       -10.4830   83.8600   48.9840 C.3   141  PHE141      0.1639
    156  C        -11.8590   84.5150   49.0370 C.2   141  PHE141      0.2290
    157  O        -12.5890   84.5280   48.0510 O.2   141  PHE141     -0.2864
    158  CB       -10.5500   82.4950   49.6790 C.3   141  PHE141      0.0560
    159  CG        -9.3410   81.6150   49.4480 C.ar  141  PHE141     -0.0200
    160  CD1       -8.4130   81.9130   48.4520 C.ar  141  PHE141     -0.0042
    161  CD2       -9.1520   80.4650   50.2140 C.ar  141  PHE141     -0.0042
    162  CE1       -7.3100   81.0730   48.2250 C.ar  141  PHE141     -0.0003
    163  CE2       -8.0600   79.6250   49.9940 C.ar  141  PHE141     -0.0003
    164  CZ        -7.1390   79.9290   48.9980 C.ar  141  PHE141     -0.0000
    165  N        -10.1510   75.0720   56.0440 N.3   165  CYS165     -0.1235
    166  CA       -11.0830   75.7410   55.1440 C.3   165  CYS165      0.1677
    167  C        -11.6230   74.8990   53.9950 C.2   165  CYS165      0.2270
    168  O        -10.8880   74.1290   53.3680 O.2   165  CYS165     -0.2867
    169  CB       -10.3860   76.9930   54.5890 C.3   165  CYS165      0.0956
    170  SG       -11.3290   78.1150   53.5160 S.3   165  CYS165     -0.0801
    171  N        -13.7830   74.8710   50.2890 N.3   167  ILE167     -0.1245
    172  CA       -14.0480   75.6940   49.1160 C.3   167  ILE167      0.1561
    173  C        -15.0010   74.8260   48.2970 C.2   167  ILE167      0.2260
    174  O        -14.6040   73.7660   47.8030 O.2   167  ILE167     -0.2867
    175  CB       -12.7990   75.9910   48.2590 C.3   167  ILE167      0.0252
    176  CG1      -11.9260   77.0520   48.9280 C.3   167  ILE167      0.0019
    177  CG2      -13.2280   76.5030   46.8930 C.3   167  ILE167      0.0019
    178  CD1      -10.7230   77.4660   48.0850 C.3   167  ILE167      0.0001
@<TRIPOS>BOND
     1    86    83    1
     2    83    84    1
     3    83    82    1
     4    80    79    2
     5    74    76   ar
     6    74    72   ar
     7    84    85    2
     8    93    92    1
     9    94    92    1
    10    76    75   ar
    11    92    91    1
    12    72    71   ar
    13    79    82   am
    14    79    78    1
    15    47    46    1
    16   177   175    1
    17    75    73   ar
    18    48    46    1
    19    77    78    1
    20    77    68   am
    21    71    73   ar
    22    71    70    1
    23    91    88    1
    24    78    81    1
    25    46    45    1
    26    58    57    2
    27   174   173    2
    28    87    88    1
    29   157   156    2
    30   178   176    1
    31   149   148    2
    32   162   160   ar
    33   162   164   ar
    34    45    42    1
    35    67    70    1
    36    67    68    1
    37    67    66    1
    38   175   176    1
    39   175   172    1
    40     7     5    1
    41    88    89    1
    42   173   172    1
    43    52    51    2
    44   160   159   ar
    45    68    69    2
    46    42    41    1
    47    42    43    1
    48    57    66   am
    49    57    56    1
    50   155   156    1
    51   155   154    1
    52   155   158    1
    53   164   163   ar
    54   172   171    1
    55   148   154   am
    56   148   147    1
    57    59    56    1
    58    59    60    1
    59   152   151    1
    60   152   153    1
    61    49    43   am
    62    49    50    1
    63   159   158    1
    64   159   161   ar
    65   150   151    1
    66   150   147    1
    67     5     6    1
    68     5     2    1
    69    51    50    1
    70    51    55   am
    71    43    44    2
    72    89    90    2
    73    89    95   am
    74   145   144    1
    75   144   143    1
    76    56    55    1
    77    17    18   ar
    78    17    15   ar
    79     1     2    1
    80   163   161   ar
    81   147   146    1
    82    54    53    1
    83    50    53    1
    84    60    61    1
    85    18    16   ar
    86    95    96    1
    87     2     3    1
    88    15    13   ar
    89   143   142    1
    90    61    62    1
    91    98    97    2
    92   141   140    2
    93    16    14   ar
    94    96    97    1
    95    96    99    1
    96     3     8   am
    97     3     4    2
    98     8     9    1
    99    13    14   ar
   100    13    12    1
   101    62    63    2
   102    97   103   am
   103   101    99    1
   104   142   139    1
   105   140   139    1
   106    99   100    1
   107   139   138    1
   108    12     9    1
   109    63    65    1
   110    63    64    1
   111   103   104    1
   112     9    10    1
   113   168   167    2
   114   135   134    2
   115   170   169    1
   116   104   105    1
   117   120   118    1
   118   167   166    1
   119   138   134   am
   120   100   102    1
   121   118   119    1
   122   118   115    1
   123   134   133    1
   124    10    11    2
   125    25    24    1
   126   169   166    1
   127   105   106    2
   128   105   107   am
   129   110   109    2
   130    24    26    1
   131    24    23    1
   132    39    40   ar
   133    39    37   ar
   134   166   165    1
   135    40    38   ar
   136   115   114    1
   137   115   116    1
   138   107   108    1
   139    19    20    1
   140   137   136    1
   141   109   114   am
   142   109   108    1
   143   124   123    2
   144   133   136    1
   145   133   132    1
   146    37    34   ar
   147   121   116   am
   148   121   122    1
   149    38    36   ar
   150    23    20    1
   151   128   130   ar
   152   128   126   ar
   153   116   117    2
   154   125   126    1
   155   125   122    1
   156   130   131   ar
   157   108   111    1
   158   126   127   ar
   159   131   129   ar
   160   127   129   ar
   161    20    21    1
   162    34    36   ar
   163    34    32   ar
   164   123   122    1
   165    36    35   ar
   166   111   113    1
   167   111   112    1
   168    32    31    1
   169    32    33   ar
   170    35    33   ar
   171    21    22    2
   172    31    28    1
   173    27    28    1
   174    28    29    1
   175    29    30    2
