@<TRIPOS>MOLECULE
tmp/3p2lE01.pdb
 80 74 0 0 0
SMALL
GASTEIGER

@<TRIPOS>ATOM
      1  N          1.4870   20.0750  -44.6760 N.3    56  GLY56      -0.1225
      2  CA         0.9180   19.9510  -43.3430 C.3    56  GLY56       0.1811
      3  C         -0.1780   20.9790  -43.1200 C.2    56  GLY56       0.2280
      4  O         -1.0590   21.1550  -43.9640 O.2    56  GLY56      -0.2866
      5  N         -2.6320   23.8550  -43.1300 N.3    57  VAL57      -0.1245
      6  CA        -2.9340   24.9640  -44.0410 C.3    57  VAL57       0.1561
      7  C         -2.8260   26.3620  -43.4030 C.2    57  VAL57       0.2260
      8  O         -2.1900   27.2600  -43.9640 O.2    57  VAL57      -0.2867
      9  CB        -4.3130   24.7870  -44.7150 C.3    57  VAL57       0.0252
     10  CG1       -4.6310   25.9690  -45.6360 C.3    57  VAL57       0.0019
     11  CG2       -4.3490   23.4750  -45.4990 C.3    57  VAL57       0.0019
     12  N          1.6030   19.1400  -51.1120 N.3    82  SER82      -0.1217
     13  CA         0.5950   19.8180  -50.2990 C.3    82  SER82       0.1889
     14  C          1.0440   21.2670  -50.1050 C.2    82  SER82       0.2288
     15  O          1.4790   21.9120  -51.0510 O.2    82  SER82      -0.2866
     16  CB         0.4240   19.0710  -48.9580 C.3    82  SER82       0.2089
     17  OG        -0.2440   19.8280  -47.9480 O.3    82  SER82      -0.2183
     18  N          4.2490   22.5050  -51.9510 N.3    84  SER84      -0.1202
     19  CA         4.2170   22.9090  -53.3440 C.3    84  SER84       0.2020
     20  C          3.5410   24.2700  -53.5220 C.2    84  SER84       0.2618
     21  O          3.8930   25.0420  -54.4230 O.2    84  SER84      -0.2717
     22  CB         3.5520   21.8330  -54.2070 C.3    84  SER84       0.2103
     23  OG         2.2250   21.5970  -53.7940 O.3    84  SER84      -0.2182
     24  N          2.5870   24.5780  -52.6560 N.am   85  LEU85      -0.1979
     25  CA         1.9740   25.8950  -52.6900 C.3    85  LEU85       0.1596
     26  C          2.9360   27.0200  -52.2440 C.2    85  LEU85       0.2287
     27  O          2.8790   28.1310  -52.7650 O.2    85  LEU85      -0.2864
     28  CB         0.7010   25.9080  -51.8610 C.3    85  LEU85       0.0297
     29  CG        -0.2000   27.0960  -52.1830 C.3    85  LEU85       0.0022
     30  CD1       -1.6550   26.6590  -52.2210 C.3    85  LEU85       0.0001
     31  CD2        0.0510   28.2270  -51.1800 C.3    85  LEU85       0.0001
     32  N          0.6340   17.9880  -55.8200 N.3   104  ILE104     -0.1231
     33  CA        -0.4390   18.8740  -55.4400 C.3   104  ILE104      0.1692
     34  C         -1.7220   18.1000  -55.2560 C.2   104  ILE104      0.2592
     35  O         -1.8880   17.0470  -55.8260 O.2   104  ILE104     -0.2718
     36  CB        -0.6450   19.9920  -56.4590 C.3   104  ILE104      0.0266
     37  CG1       -0.9130   19.4100  -57.8320 C.3   104  ILE104      0.0019
     38  CG2        0.5620   20.8650  -56.5200 C.3   104  ILE104      0.0020
     39  CD1       -1.4720   20.3940  -58.7720 C.3   104  ILE104      0.0001
     40  N         -2.6030   18.6070  -54.4090 N.am  105  HIS105     -0.1976
     41  CA        -3.8850   17.9660  -54.1670 C.3   105  HIS105      0.1656
     42  C         -4.7870   18.8300  -53.3130 C.2   105  HIS105      0.2291
     43  O         -4.3840   19.8750  -52.8650 O.2   105  HIS105     -0.2864
     44  CB        -3.6860   16.6090  -53.5250 C.3   105  HIS105      0.0771
     45  CG        -3.0390   16.6760  -52.1850 C.ar  105  HIS105      0.0820
     46  ND1       -2.4770   15.5800  -51.5760 N.ar  105  HIS105     -0.2267
     47  CD2       -2.8710   17.7090  -51.3330 C.ar  105  HIS105      0.1154
     48  CE1       -1.9890   15.9360  -50.4050 C.ar  105  HIS105      0.1986
     49  NE2       -2.2170   17.2220  -50.2320 N.ar  105  HIS105     -0.2212
     50  N         -7.2200   19.8370  -49.9160 N.3   107  PRO107     -0.2102
     51  CA        -7.0090   19.7950  -48.4550 C.3   107  PRO107      0.1504
     52  C         -7.6740   18.6010  -47.7700 C.2   107  PRO107      0.2575
     53  O         -8.6400   18.0250  -48.2960 O.2   107  PRO107     -0.2718
     54  CB        -7.6250   21.1040  -47.9430 C.3   107  PRO107      0.0282
     55  CG        -8.4500   21.6490  -49.0860 C.3   107  PRO107      0.0208
     56  CD        -8.0070   21.0000  -50.3670 C.3   107  PRO107      0.0893
     57  N         -7.1450   18.2410  -46.6030 N.am  108  LEU108     -0.1980
     58  CA        -7.6920   17.1500  -45.8020 C.3   108  LEU108      0.1596
     59  C         -8.0620   17.6550  -44.4060 C.2   108  LEU108      0.2287
     60  O         -7.3860   18.5290  -43.8490 O.2   108  LEU108     -0.2864
     61  CB        -6.6880   15.9870  -45.7050 C.3   108  LEU108      0.0297
     62  CG        -6.1670   15.4720  -47.0550 C.3   108  LEU108      0.0022
     63  CD1       -4.6680   15.7370  -47.2060 C.3   108  LEU108      0.0001
     64  CD2       -6.4880   13.9990  -47.2660 C.3   108  LEU108      0.0001
     65  N         -7.2270   27.8390  -52.2150 N.3   132  LEU132     -0.1245
     66  CA        -5.9200   27.3060  -52.6150 C.3   132  LEU132      0.1561
     67  C         -5.8460   27.0250  -54.1160 C.2   132  LEU132      0.2260
     68  O         -4.8200   27.2370  -54.7510 O.2   132  LEU132     -0.2867
     69  CB        -5.5980   26.0210  -51.8550 C.3   132  LEU132      0.0270
     70  CG        -5.8260   26.1250  -50.3570 C.3   132  LEU132      0.0019
     71  CD1       -5.2140   24.9400  -49.6320 C.3   132  LEU132      0.0001
     72  CD2       -5.2390   27.4180  -49.8920 C.3   132  LEU132      0.0001
     73  N         -3.0060   28.5120  -56.6850 N.3   136  LEU136     -0.1245
     74  CA        -2.3160   27.7190  -57.7120 C.3   136  LEU136      0.1561
     75  C         -2.5610   28.2500  -59.1350 C.2   136  LEU136      0.2260
     76  O         -1.6220   28.4080  -59.9380 O.2   136  LEU136     -0.2867
     77  CB        -2.6950   26.2360  -57.6130 C.3   136  LEU136      0.0270
     78  CG        -2.1390   25.5060  -56.3830 C.3   136  LEU136      0.0019
     79  CD1       -2.4190   24.0070  -56.4880 C.3   136  LEU136      0.0001
     80  CD2       -0.6400   25.7700  -56.1930 C.3   136  LEU136      0.0001
@<TRIPOS>BOND
     1    76    75    2
     2    75    74    1
     3    39    37    1
     4    37    36    1
     5    74    77    1
     6    74    73    1
     7    77    78    1
     8    38    36    1
     9    79    78    1
    10    36    33    1
    11    78    80    1
    12    35    34    2
    13    32    33    1
    14    33    34    1
    15    34    40   am
    16    68    67    2
    17    21    20    2
    18    40    41    1
    19    22    23    1
    20    22    19    1
    21    41    44    1
    22    41    42    1
    23    67    66    1
    24    44    45    1
    25    20    19    1
    26    20    24   am
    27    19    18    1
    28    42    43    2
    29    27    26    2
    30    25    24    1
    31    25    26    1
    32    25    28    1
    33    66    65    1
    34    66    69    1
    35    30    29    1
    36    45    46   ar
    37    45    47   ar
    38    29    28    1
    39    29    31    1
    40    69    70    1
    41    46    48   ar
    42    47    49   ar
    43    12    13    1
    44    15    14    2
    45    48    49   ar
    46    56    50    1
    47    56    55    1
    48    70    72    1
    49    70    71    1
    50    13    14    1
    51    13    16    1
    52    50    51    1
    53    55    54    1
    54    16    17    1
    55    51    54    1
    56    51    52    1
    57    53    52    2
    58    52    57   am
    59    64    62    1
    60    63    62    1
    61    62    61    1
    62    57    58    1
    63    58    61    1
    64    58    59    1
    65    10     9    1
    66    11     9    1
    67     9     6    1
    68     1     2    1
    69    59    60    2
    70     6     7    1
    71     6     5    1
    72     8     7    2
    73     4     3    2
    74     2     3    1
