@<TRIPOS>MOLECULE
tmp/3p2oB00.pdb
 164 155 0 0 0
SMALL
GASTEIGER

@<TRIPOS>ATOM
      1  N         64.7170  -18.4650  -32.2110 N.3    47  TYR47      -0.1241
      2  CA        63.7830  -19.5790  -32.3510 C.3    47  TYR47       0.1605
      3  C         63.8430  -20.1930  -33.7480 C.2    47  TYR47       0.2264
      4  O         63.6800  -21.4000  -33.9240 O.2    47  TYR47      -0.2867
      5  CB        62.3570  -19.1130  -32.0320 C.3    47  TYR47       0.0534
      6  CG        62.1890  -18.6710  -30.6010 C.ar   47  TYR47      -0.0201
      7  CD1       61.6610  -19.5320  -29.6500 C.ar   47  TYR47      -0.0009
      8  CD2       62.5860  -17.4030  -30.1920 C.ar   47  TYR47      -0.0009
      9  CE1       61.5180  -19.1380  -28.3300 C.ar   47  TYR47       0.0417
     10  CE2       62.4500  -16.9990  -28.8750 C.ar   47  TYR47       0.0417
     11  CZ        61.9120  -17.8720  -27.9470 C.ar   47  TYR47       0.1957
     12  OH        61.7630  -17.4850  -26.6310 O.3    47  TYR47      -0.2866
     13  N         53.9320  -26.4950  -28.1050 N.3   140  THR140     -0.1218
     14  CA        54.2900  -26.3780  -26.6970 C.3   140  THR140      0.1862
     15  C         53.4040  -27.2720  -25.8230 C.2   140  THR140      0.2287
     16  O         53.9080  -28.2070  -25.1790 O.2   140  THR140     -0.2866
     17  CB        54.2560  -24.9330  -26.1810 C.3   140  THR140      0.1770
     18  OG1       55.2770  -24.1700  -26.8220 O.3   140  THR140     -0.2211
     19  CG2       54.5290  -24.9200  -24.6740 C.3   140  THR140      0.0375
     20  N         49.0990  -21.2130  -15.4290 N.3   162  ILE162     -0.1231
     21  CA        49.2580  -19.7800  -15.2250 C.3   162  ILE162      0.1692
     22  C         49.5540  -19.1350  -16.5710 C.2   162  ILE162      0.2593
     23  O         50.6260  -19.3250  -17.1370 O.2   162  ILE162     -0.2718
     24  CB        50.3850  -19.4100  -14.2230 C.3   162  ILE162      0.0266
     25  CG1       50.1970  -20.0970  -12.8590 C.3   162  ILE162      0.0019
     26  CG2       50.4550  -17.8980  -14.0470 C.3   162  ILE162      0.0020
     27  CD1       51.3850  -19.8180  -11.8580 C.3   162  ILE162      0.0001
     28  N         48.6070  -18.3550  -17.0680 N.am  163  GLY163     -0.1942
     29  CA        48.7700  -17.7020  -18.3570 C.3   163  GLY163      0.2014
     30  C         47.7600  -18.2540  -19.3440 C.2   163  GLY163      0.2639
     31  O         47.5860  -19.4680  -19.4620 O.2   163  GLY163     -0.2714
     32  N         47.0800  -17.3640  -20.0510 N.am  164  ALA164     -0.1963
     33  CA        45.9250  -17.7850  -20.8270 C.3   164  ALA164      0.1728
     34  C         46.0050  -17.5010  -22.3380 C.2   164  ALA164      0.2616
     35  O         44.9790  -17.2510  -22.9740 O.2   164  ALA164     -0.2715
     36  CB        44.6680  -17.1760  -20.2350 C.3   164  ALA164      0.0334
     37  N         47.2080  -17.5770  -22.9100 N.am  165  SER165     -0.1950
     38  CA        47.4320  -17.2430  -24.3230 C.3   165  SER165      0.1924
     39  C         46.9610  -18.3490  -25.2690 C.2   165  SER165      0.2314
     40  O         46.7980  -19.5050  -24.8620 O.2   165  SER165     -0.2863
     41  CB        48.9220  -16.9710  -24.5920 C.3   165  SER165      0.2116
     42  OG        49.6380  -18.1940  -24.7090 O.3   165  SER165     -0.2180
     43  N         48.7910  -19.4100  -27.6590 N.3   167  ILE167     -0.1231
     44  CA        49.9620  -20.1770  -28.0520 C.3   167  ILE167      0.1692
     45  C         50.2280  -21.3120  -27.0870 C.2   167  ILE167      0.2591
     46  O         50.6400  -22.3950  -27.5010 O.2   167  ILE167     -0.2718
     47  CB        51.2030  -19.2840  -28.1690 C.3   167  ILE167      0.0266
     48  CG1       50.9450  -18.2030  -29.2300 C.3   167  ILE167      0.0019
     49  CG2       52.4310  -20.1230  -28.4970 C.3   167  ILE167      0.0020
     50  CD1       52.1110  -17.2440  -29.4360 C.3   167  ILE167      0.0001
     51  N         49.9530  -21.0580  -25.8050 N.am  168  VAL168     -0.1980
     52  CA        50.2520  -22.0020  -24.7380 C.3   168  VAL168      0.1595
     53  C         49.0920  -22.2550  -23.7760 C.2   168  VAL168      0.2287
     54  O         48.5430  -23.3540  -23.7190 O.2   168  VAL168     -0.2864
     55  CB        51.4100  -21.4810  -23.8830 C.3   168  VAL168      0.0276
     56  CG1       51.8870  -22.5640  -22.9700 C.3   168  VAL168      0.0022
     57  CG2       52.5270  -20.9770  -24.7810 C.3   168  VAL168      0.0022
     58  N         45.6000  -15.7230  -14.8040 N.3   185  HIS185     -0.1226
     59  CA        46.2450  -14.7470  -15.6660 C.3   185  HIS185      0.1752
     60  C         46.4720  -13.4350  -14.9220 C.2   185  HIS185      0.2595
     61  O         46.1810  -13.3330  -13.7270 O.2   185  HIS185     -0.2718
     62  CB        45.3830  -14.5030  -16.8970 C.3   185  HIS185      0.0759
     63  CG        43.9360  -14.3670  -16.5820 C.ar  185  HIS185      0.0818
     64  ND1       43.3540  -13.1620  -16.2360 N.ar  185  HIS185     -0.2268
     65  CD2       42.9400  -15.2900  -16.5080 C.ar  185  HIS185      0.1154
     66  CE1       42.0750  -13.3450  -15.9800 C.ar  185  HIS185      0.1986
     67  NE2       41.7990  -14.6320  -16.1420 N.ar  185  HIS185     -0.2212
     68  N         46.9500  -12.4300  -15.6510 N.am  186  ILE186     -0.1980
     69  CA        47.3430  -11.1440  -15.0650 C.3   186  ILE186      0.1595
     70  C         46.2580  -10.5700  -14.1400 C.2   186  ILE186      0.2287
     71  O         46.5480   -9.8210  -13.2100 O.2   186  ILE186     -0.2864
     72  CB        47.7400  -10.1090  -16.1750 C.3   186  ILE186      0.0276
     73  CG1       48.3760   -8.8600  -15.5630 C.3   186  ILE186      0.0022
     74  CG2       46.5380   -9.7150  -16.9790 C.3   186  ILE186      0.0022
     75  CD1       49.6170   -9.1270  -14.7200 C.3   186  ILE186      0.0001
     76  N         46.8390  -15.3860   -7.0580 N.3   191  LEU191     -0.1245
     77  CA        47.3960  -16.5820   -7.6880 C.3   191  LEU191      0.1561
     78  C         47.7620  -17.7130   -6.6980 C.2   191  LEU191      0.2260
     79  O         47.5230  -18.9010   -6.9690 O.2   191  LEU191     -0.2867
     80  CB        48.6330  -16.1500   -8.4710 C.3   191  LEU191      0.0270
     81  CG        49.1460  -16.9240   -9.6710 C.3   191  LEU191      0.0019
     82  CD1       48.0760  -16.9430  -10.7370 C.3   191  LEU191      0.0001
     83  CD2       50.4150  -16.2590  -10.2270 C.3   191  LEU191      0.0001
     84  N         53.4070  -20.2270  -17.6650 N.3   204  ALA204     -0.1231
     85  CA        53.5720  -19.7490  -19.0380 C.3   204  ALA204      0.1694
     86  C         53.1780  -18.2810  -19.1210 C.2   204  ALA204      0.2592
     87  O         52.2520  -17.9330  -19.8550 O.2   204  ALA204     -0.2718
     88  CB        52.6960  -20.5950  -19.9960 C.3   204  ALA204      0.0304
     89  N         53.8720  -17.4340  -18.3650 N.am  205  ALA205     -0.1966
     90  CA        53.4460  -16.0450  -18.1670 C.3   205  ALA205      0.1728
     91  C         54.4080  -15.0000  -18.7510 C.2   205  ALA205      0.2617
     92  O         53.9840  -13.9460  -19.2340 O.2   205  ALA205     -0.2715
     93  CB        53.2340  -15.7660  -16.6760 C.3   205  ALA205      0.0334
     94  N         55.6990  -15.2810  -18.6980 N.am  206  GLY206     -0.1940
     95  CA        56.6750  -14.2730  -19.0740 C.3   206  GLY206      0.2014
     96  C         56.9320  -13.3160  -17.9170 C.2   206  GLY206      0.2639
     97  O         56.9550  -12.0880  -18.0890 O.2   206  GLY206     -0.2714
     98  N         57.1400  -13.8860  -16.7330 N.am  207  CYS207     -0.1967
     99  CA        57.4650  -13.1000  -15.5450 C.3   207  CYS207      0.1712
    100  C         58.4640  -13.8610  -14.6790 C.2   207  CYS207      0.2296
    101  O         58.1560  -14.9390  -14.1590 O.2   207  CYS207     -0.2864
    102  CB        56.2020  -12.7770  -14.7360 C.3   207  CYS207      0.0983
    103  SG        56.5020  -12.0650  -13.0880 S.3   207  CYS207     -0.0798
    104  N         57.9180  -15.6480  -10.9690 N.3   210  LEU210     -0.1245
    105  CA        56.4810  -15.5820  -10.7000 C.3   210  LEU210      0.1561
    106  C         56.0130  -16.6780   -9.7300 C.2   210  LEU210      0.2260
    107  O         55.0990  -16.4640   -8.9270 O.2   210  LEU210     -0.2867
    108  CB        55.6840  -15.6620  -12.0090 C.3   210  LEU210      0.0270
    109  CG        54.1620  -15.6590  -11.8940 C.3   210  LEU210      0.0019
    110  CD1       53.7160  -14.5260  -10.9800 C.3   210  LEU210      0.0001
    111  CD2       53.4910  -15.5770  -13.3060 C.3   210  LEU210      0.0001
    112  N         57.2240  -23.2060  -18.6940 N.3   224  VAL224     -0.1231
    113  CA        57.2460  -22.9290  -20.1380 C.3   224  VAL224      0.1692
    114  C         57.9980  -21.6490  -20.4590 C.2   224  VAL224      0.2593
    115  O         58.4830  -21.4570  -21.5830 O.2   224  VAL224     -0.2718
    116  CB        55.8140  -22.7590  -20.7300 C.3   224  VAL224      0.0266
    117  CG1       55.9020  -22.2930  -22.1980 C.3   224  VAL224      0.0020
    118  CG2       55.0370  -24.0370  -20.6270 C.3   224  VAL224      0.0020
    119  N         58.0820  -20.7680  -19.4730 N.am  225  GLY225     -0.1942
    120  CA        58.6210  -19.4420  -19.6830 C.3   225  GLY225      0.2014
    121  C         60.0640  -19.4130  -20.1340 C.2   225  GLY225      0.2639
    122  O         60.8670  -20.2830  -19.7800 O.2   225  GLY225     -0.2714
    123  N         60.3840  -18.3990  -20.9280 N.am  226  ILE226     -0.1963
    124  CA        61.7530  -18.1590  -21.3750 C.3   226  ILE226      0.1727
    125  C         62.0630  -16.6680  -21.2870 C.2   226  ILE226      0.2616
    126  O         61.5240  -15.8620  -22.0580 O.2   226  ILE226     -0.2715
    127  CB        61.9800  -18.6640  -22.8140 C.3   226  ILE226      0.0290
    128  CG1       62.0360  -20.1950  -22.8310 C.3   226  ILE226      0.0022
    129  CG2       63.2630  -18.0740  -23.3950 C.3   226  ILE226      0.0023
    130  CD1       61.8400  -20.8130  -24.2080 C.3   226  ILE226      0.0001
    131  N         62.9290  -16.3130  -20.3390 N.am  227  ASN227     -0.1972
    132  CA        63.2800  -14.9190  -20.0850 C.3   227  ASN227      0.1688
    133  C         64.7870  -14.6830  -20.1260 C.2   227  ASN227      0.2292
    134  O         65.5730  -15.5250  -19.6920 O.2   227  ASN227     -0.2864
    135  CB        62.7260  -14.4670  -18.7300 C.3   227  ASN227      0.1181
    136  CG        61.2160  -14.5890  -18.6450 C.2   227  ASN227      0.2629
    137  OD1       60.4930  -13.6000  -18.7720 O.2   227  ASN227     -0.2716
    138  ND2       60.7330  -15.8080  -18.4250 N.am  227  ASN227     -0.0877
    139  N         60.9220  -27.6960  -21.4380 N.3   257  VAL257     -0.1231
    140  CA        59.8680  -27.5700  -22.4340 C.3   257  VAL257      0.1692
    141  C         60.4000  -27.1420  -23.8060 C.2   257  VAL257      0.2592
    142  O         59.8880  -27.5720  -24.8460 O.2   257  VAL257     -0.2718
    143  CB        58.7960  -26.5690  -21.9700 C.3   257  VAL257      0.0266
    144  CG1       57.8120  -26.2500  -23.1240 C.3   257  VAL257      0.0020
    145  CG2       58.0750  -27.1020  -20.7450 C.3   257  VAL257      0.0020
    146  N         61.4290  -26.2980  -23.7980 N.am  258  GLY258     -0.1957
    147  CA        61.9970  -25.7560  -25.0230 C.3   258  GLY258      0.1869
    148  C         62.2850  -26.8240  -26.0560 C.2   258  GLY258      0.2309
    149  O         61.7590  -26.7950  -27.1730 O.2   258  GLY258     -0.2863
    150  N         59.0990  -28.4190  -27.3360 N.3   260  THR260     -0.1203
    151  CA        58.4210  -27.6110  -28.3260 C.3   260  THR260      0.1994
    152  C         58.9810  -27.9200  -29.7290 C.2   260  THR260      0.2617
    153  O         58.2360  -28.3500  -30.6230 O.2   260  THR260     -0.2717
    154  CB        58.5590  -26.1210  -27.9790 C.3   260  THR260      0.1784
    155  OG1       57.9890  -25.8920  -26.6810 O.3   260  THR260     -0.2211
    156  CG2       57.8410  -25.2620  -29.0010 C.3   260  THR260      0.0376
    157  N         60.2960  -27.7530  -29.8970 N.am  261  ILE261     -0.1979
    158  CA        60.9510  -28.0420  -31.1810 C.3   261  ILE261      0.1595
    159  C         60.6570  -29.4570  -31.6920 C.2   261  ILE261      0.2287
    160  O         60.3740  -29.6510  -32.8710 O.2   261  ILE261     -0.2864
    161  CB        62.4980  -27.8390  -31.1400 C.3   261  ILE261      0.0276
    162  CG1       62.8630  -26.4550  -30.6030 C.3   261  ILE261      0.0022
    163  CG2       63.0900  -28.0190  -32.5420 C.3   261  ILE261      0.0022
    164  CD1       62.2160  -25.3150  -31.3800 C.3   261  ILE261      0.0001
@<TRIPOS>BOND
     1     4     3    2
     2     3     2    1
     3   160   159    2
     4   163   161    1
     5     2     1    1
     6     2     5    1
     7     5     6    1
     8   159   158    1
     9   164   162    1
    10   158   161    1
    11   158   157    1
    12   161   162    1
    13   153   152    2
    14     6     8   ar
    15     6     7   ar
    16     8    10   ar
    17   157   152   am
    18   152   151    1
    19     7     9   ar
    20    50    48    1
    21    48    47    1
    22   156   154    1
    23    10    11   ar
    24    49    47    1
    25     9    11   ar
    26   151   154    1
    27   151   150    1
    28    47    44    1
    29    13    14    1
    30    44    43    1
    31    44    45    1
    32   154   155    1
    33    11    12    1
    34    46    45    2
    35   149   148    2
    36    45    51   am
    37    18    17    1
    38    14    17    1
    39    14    15    1
    40    17    19    1
    41   148   147    1
    42    15    16    2
    43    51    52    1
    44    39    40    2
    45    39    38    1
    46   147   146    1
    47   142   141    2
    48    57    55    1
    49    52    55    1
    50    52    53    1
    51    42    41    1
    52    41    38    1
    53    38    37    1
    54   130   128    1
    55    55    56    1
    56   141   146   am
    57   141   140    1
    58    53    54    2
    59   129   127    1
    60   144   143    1
    61    35    34    2
    62    37    34   am
    63   128   127    1
    64   127   124    1
    65   140   143    1
    66   140   139    1
    67    34    33    1
    68   117   116    1
    69   126   125    2
    70   143   145    1
    71   115   114    2
    72   124   125    1
    73   124   123    1
    74   125   131   am
    75   123   121   am
    76    33    36    1
    77    33    32    1
    78   116   118    1
    79   116   113    1
    80   114   113    1
    81   114   119   am
    82   131   132    1
    83   113   112    1
    84   121   122    2
    85   121   120    1
    86   133   132    1
    87   133   134    2
    88   132   135    1
    89    32    30   am
    90    88    85    1
    91    87    86    2
    92   120   119    1
    93    31    30    2
    94    30    29    1
    95    92    91    2
    96    86    85    1
    97    86    89   am
    98    95    94    1
    99    95    96    1
   100    85    84    1
   101   137   136    2
   102    91    94   am
   103    91    90    1
   104   135   136    1
   105   136   138   am
   106    89    90    1
   107    29    28    1
   108    90    93    1
   109    97    96    2
   110    96    98   am
   111    23    22    2
   112    28    22   am
   113    74    72    1
   114    62    63    1
   115    62    59    1
   116    98    99    1
   117    63    65   ar
   118    63    64   ar
   119    22    21    1
   120    65    67   ar
   121    64    66   ar
   122    72    73    1
   123    72    69    1
   124    67    66   ar
   125    59    60    1
   126    59    58    1
   127    68    69    1
   128    68    60   am
   129    73    75    1
   130    99   102    1
   131    99   100    1
   132    20    21    1
   133    21    24    1
   134    69    70    1
   135    60    61    2
   136   102   103    1
   137   100   101    2
   138    24    26    1
   139    24    25    1
   140    70    71    2
   141   111   109    1
   142    25    27    1
   143   108   109    1
   144   108   105    1
   145   109   110    1
   146   104   105    1
   147    82    81    1
   148   105   106    1
   149    83    81    1
   150   106   107    2
   151    81    80    1
   152    80    77    1
   153    77    76    1
   154    77    78    1
   155    79    78    2
