@<TRIPOS>MOLECULE
tmp/3p2vA01.pdb
 140 145 0 0 0
SMALL
GASTEIGER

@<TRIPOS>ATOM
      1  N         21.3230   19.9480  -10.4780 N.3    21  TRP21      -0.1241
      2  CA        21.7780   18.5720  -10.5500 C.3    21  TRP21       0.1605
      3  C         23.2450   18.5310  -11.0020 C.2    21  TRP21       0.2264
      4  O         23.5920   19.0760  -12.0490 O.2    21  TRP21      -0.2867
      5  CB        20.9210   17.7020  -11.4760 C.3    21  TRP21       0.0550
      6  CG        21.4030   16.2880  -11.6240 C.ar   21  TRP21       0.0003
      7  CD1       21.9830   15.4750  -10.6930 C.ar   21  TRP21       0.0946
      8  CD2       21.3360   15.5190  -12.8320 C.ar   21  TRP21       0.0152
      9  NE1       22.2760   14.2520  -11.2540 N.ar   21  TRP21      -0.2442
     10  CE2       21.8890   14.2490  -12.5660 C.ar   21  TRP21       0.0810
     11  CE3       20.8490   15.8060  -14.1100 C.ar   21  TRP21       0.0012
     12  CZ2       21.9650   13.2630  -13.5560 C.ar   21  TRP21       0.0191
     13  CZ3       20.9310   14.8280  -15.0690 C.ar   21  TRP21       0.0001
     14  CH2       21.4800   13.5760  -14.7940 C.ar   21  TRP21       0.0015
     15  N         17.8220   14.4200   -3.6510 N.3    48  VAL48      -0.1231
     16  CA        18.7480   13.4670   -4.2520 C.3    48  VAL48       0.1692
     17  C         19.9920   14.1170   -4.8310 C.2    48  VAL48       0.2592
     18  O         20.9990   13.4250   -5.0460 O.2    48  VAL48      -0.2718
     19  CB        18.0000   12.6000   -5.2910 C.3    48  VAL48       0.0266
     20  CG1       17.7360   13.3180   -6.5990 C.3    48  VAL48       0.0020
     21  CG2       18.8180   11.3260   -5.4860 C.3    48  VAL48       0.0020
     22  N         19.9960   15.4300   -5.0870 N.am   49  TYR49      -0.1976
     23  CA        21.1790   16.0950   -5.6010 C.3    49  TYR49       0.1639
     24  C         22.2250   16.2760   -4.4960 C.2    49  TYR49       0.2290
     25  O         23.3660   16.6290   -4.8160 O.2    49  TYR49      -0.2864
     26  CB        20.8200   17.4390   -6.2360 C.3    49  TYR49       0.0560
     27  CG        19.8240   17.3340   -7.3730 C.ar   49  TYR49      -0.0198
     28  CD1       19.5370   16.1310   -7.9950 C.ar   49  TYR49      -0.0009
     29  CD2       19.1580   18.4730   -7.8120 C.ar   49  TYR49      -0.0009
     30  CE1       18.6160   16.0710   -9.0350 C.ar   49  TYR49       0.0417
     31  CE2       18.2400   18.4140   -8.8380 C.ar   49  TYR49       0.0417
     32  CZ        17.9670   17.2030   -9.4520 C.ar   49  TYR49       0.1957
     33  OH        17.0360   17.2090  -10.4780 O.3    49  TYR49      -0.2866
     34  N         12.2410   12.2600   -3.4920 N.3    80  TRP80      -0.1241
     35  CA        12.9810   11.1890   -4.1820 C.3    80  TRP80       0.1605
     36  C         12.2190    9.8710   -4.0970 C.2    80  TRP80       0.2264
     37  O         11.3360    9.7200   -3.2520 O.2    80  TRP80      -0.2867
     38  CB        14.4310   11.1180   -3.6360 C.3    80  TRP80       0.0550
     39  CG        15.1670   10.0080   -4.3300 C.ar   80  TRP80       0.0003
     40  CD1       15.6610    8.8500   -3.8240 C.ar   80  TRP80       0.0946
     41  CD2       15.4460    9.9840   -5.7440 C.ar   80  TRP80       0.0152
     42  NE1       16.2450    8.1180   -4.8300 N.ar   80  TRP80      -0.2442
     43  CE2       16.1300    8.7810   -6.0150 C.ar   80  TRP80       0.0810
     44  CE3       15.1740   10.8840   -6.7800 C.ar   80  TRP80       0.0012
     45  CZ2       16.5380    8.4840   -7.3140 C.ar   80  TRP80       0.0191
     46  CZ3       15.5860   10.5820   -8.0750 C.ar   80  TRP80       0.0001
     47  CH2       16.2640    9.3740   -8.3130 C.ar   80  TRP80       0.0015
     48  N          9.4420   13.2940   -7.7590 N.3   111  HIS111     -0.1226
     49  CA        10.5510   13.3810   -8.7170 C.3   111  HIS111      0.1752
     50  C         10.4450   12.4590   -9.9260 C.2   111  HIS111      0.2596
     51  O         10.7450   12.8070  -11.0780 O.2   111  HIS111     -0.2718
     52  CB        11.8500   13.0750   -7.9410 C.3   111  HIS111      0.0759
     53  CG        13.0830   13.6360   -8.5580 C.ar  111  HIS111      0.0818
     54  ND1       14.1480   14.0860   -7.7940 N.ar  111  HIS111     -0.2268
     55  CD2       13.4520   13.8180   -9.8450 C.ar  111  HIS111      0.1154
     56  CE1       15.1050   14.5270   -8.5850 C.ar  111  HIS111      0.1986
     57  NE2       14.7080   14.3760   -9.8340 N.ar  111  HIS111     -0.2212
     58  N          9.9850   11.2440   -9.6760 N.am  112  TRP112     -0.1976
     59  CA         9.7280   10.1930  -10.6380 C.3   112  TRP112      0.1640
     60  C          8.4830    9.4300  -10.2090 C.2   112  TRP112      0.2290
     61  O          8.2550    9.3920   -8.9990 O.2   112  TRP112     -0.2864
     62  CB        10.8890    9.2000  -10.7250 C.3   112  TRP112      0.0576
     63  CG        12.1360    9.7920  -11.3130 C.ar  112  TRP112      0.0006
     64  CD1       13.1150   10.4810  -10.6850 C.ar  112  TRP112      0.0946
     65  CD2       12.5140    9.7230  -12.6990 C.ar  112  TRP112      0.0152
     66  NE1       14.0900   10.8540  -11.5860 N.ar  112  TRP112     -0.2442
     67  CE2       13.7420   10.3980  -12.8320 C.ar  112  TRP112      0.0810
     68  CE3       11.9300    9.1630  -13.8200 C.ar  112  TRP112      0.0012
     69  CZ2       14.3780   10.5090  -14.0630 C.ar  112  TRP112      0.0191
     70  CZ3       12.5600    9.2710  -15.0410 C.ar  112  TRP112      0.0001
     71  CH2       13.7800    9.9410  -15.1610 C.ar  112  TRP112      0.0015
     72  N         19.9010    5.4870   -2.2840 N.3   122  PHE122     -0.1227
     73  CA        18.9880    6.2580   -3.1310 C.3   122  PHE122      0.1736
     74  C         18.5020    5.4600   -4.3270 C.2   122  PHE122      0.2595
     75  O         17.4330    5.6770   -4.9000 O.2   122  PHE122     -0.2718
     76  CB        19.6500    7.5580   -3.6000 C.3   122  PHE122      0.0547
     77  CG        19.6920    8.6920   -2.5860 C.ar  122  PHE122     -0.0202
     78  CD1       18.7130    8.9040   -1.6310 C.ar  122  PHE122     -0.0042
     79  CD2       20.7610    9.5740   -2.5930 C.ar  122  PHE122     -0.0042
     80  CE1       18.7560    9.9330   -0.7140 C.ar  122  PHE122     -0.0003
     81  CE2       20.8120   10.6200   -1.6880 C.ar  122  PHE122     -0.0003
     82  CZ        19.8210   10.8160   -0.7490 C.ar  122  PHE122     -0.0000
     83  N         19.3330    4.5160   -4.7290 N.am  123  PHE123     -0.1976
     84  CA        18.9920    3.7260   -5.9130 C.3   123  PHE123      0.1639
     85  C         19.3390    2.2700   -5.6550 C.2   123  PHE123      0.2290
     86  O         20.3690    1.7660   -6.1290 O.2   123  PHE123     -0.2864
     87  CB        19.7400    4.3170   -7.0910 C.3   123  PHE123      0.0560
     88  CG        19.0030    4.4950   -8.3950 C.ar  123  PHE123     -0.0200
     89  CD1       18.4510    3.4040   -9.0380 C.ar  123  PHE123     -0.0042
     90  CD2       18.8940    5.7550   -8.9770 C.ar  123  PHE123     -0.0042
     91  CE1       17.7980    3.5340  -10.2490 C.ar  123  PHE123     -0.0003
     92  CE2       18.2200    5.8930  -10.1760 C.ar  123  PHE123     -0.0003
     93  CZ        17.6650    4.7950  -10.8020 C.ar  123  PHE123     -0.0000
     94  N         13.5290   20.1530  -18.5090 N.3   210  TYR210     -0.1241
     95  CA        14.8460   19.9170  -17.9180 C.3   210  TYR210      0.1605
     96  C         15.8320   19.4660  -19.0040 C.2   210  TYR210      0.2264
     97  O         15.4640   19.0980  -20.1190 O.2   210  TYR210     -0.2867
     98  CB        14.7420   18.9410  -16.7760 C.3   210  TYR210      0.0534
     99  CG        14.5590   17.4680  -16.8590 C.ar  210  TYR210     -0.0201
    100  CD1       15.4440   16.6090  -17.4860 C.ar  210  TYR210     -0.0009
    101  CD2       13.4630   16.8350  -16.2740 C.ar  210  TYR210     -0.0009
    102  CE1       15.2970   15.2470  -17.5780 C.ar  210  TYR210      0.0417
    103  CE2       13.2840   15.4630  -16.3280 C.ar  210  TYR210      0.0417
    104  CZ        14.2110   14.6630  -16.9780 C.ar  210  TYR210      0.1957
    105  OH        14.0670   13.3010  -17.0470 O.3   210  TYR210     -0.2866
    106  N         26.2720   11.6560  -16.1120 N.3   219  PRO219     -0.2102
    107  CA        27.3310   10.6930  -15.7980 C.3   219  PRO219      0.1504
    108  C         27.4220    9.5040  -16.7370 C.2   219  PRO219      0.2575
    109  O         28.3890    8.7450  -16.6260 O.2   219  PRO219     -0.2718
    110  CB        26.9580   10.1470  -14.4120 C.3   219  PRO219      0.0282
    111  CG        25.8130   10.9460  -13.9350 C.3   219  PRO219      0.0208
    112  CD        25.2140   11.6710  -15.0930 C.3   219  PRO219      0.0893
    113  N         26.4630    9.2990  -17.6250 N.am  220  TRP220     -0.1977
    114  CA        26.4870    8.1220  -18.4800 C.3   220  TRP220      0.1640
    115  C         26.7020    8.4830  -19.9430 C.2   220  TRP220      0.2290
    116  O         26.5010    7.6910  -20.8640 O.2   220  TRP220     -0.2864
    117  CB        25.1820    7.3310  -18.3150 C.3   220  TRP220      0.0576
    118  CG        23.9870    8.2310  -18.3930 C.ar  220  TRP220      0.0006
    119  CD1       23.3510    8.7380  -19.4900 C.ar  220  TRP220      0.0946
    120  CD2       23.2760    8.7340  -17.2560 C.ar  220  TRP220      0.0152
    121  NE1       22.2900    9.5250  -19.1030 N.ar  220  TRP220     -0.2442
    122  CE2       22.2310    9.5340  -17.7350 C.ar  220  TRP220      0.0810
    123  CE3       23.4450    8.5730  -15.8790 C.ar  220  TRP220      0.0012
    124  CZ2       21.3420   10.1790  -16.8720 C.ar  220  TRP220      0.0191
    125  CZ3       22.5650    9.2140  -15.0370 C.ar  220  TRP220      0.0001
    126  CH2       21.5320   10.0020  -15.5240 C.ar  220  TRP220      0.0015
    127  N         17.7430   11.2870  -19.8610 N.3   299  CYS299     -0.1235
    128  CA        17.3380   10.5980  -18.6640 C.3   299  CYS299      0.1677
    129  C         16.2600    9.5550  -18.9670 C.2   299  CYS299      0.2270
    130  O         15.0760    9.8450  -18.8740 O.2   299  CYS299     -0.2867
    131  CB        16.7700   11.5320  -17.5960 C.3   299  CYS299      0.0956
    132  SG        18.0350   12.4640  -16.7120 S.3   299  CYS299     -0.0801
    133  N         16.3020    6.4650  -17.4430 N.3   301  LEU301     -0.1245
    134  CA        16.0480    5.6320  -16.2700 C.3   301  LEU301      0.1561
    135  C         16.1230    4.1490  -16.6090 C.2   301  LEU301      0.2260
    136  O         15.2350    3.3750  -16.2820 O.2   301  LEU301     -0.2867
    137  CB        14.6680    5.9550  -15.6860 C.3   301  LEU301      0.0270
    138  CG        14.4900    5.5280  -14.2290 C.3   301  LEU301      0.0019
    139  CD1       15.3610    6.3850  -13.3180 C.3   301  LEU301      0.0001
    140  CD2       13.0210    5.5920  -13.8380 C.3   301  LEU301      0.0001
@<TRIPOS>BOND
     1   116   115    2
     2    97    96    2
     3   115   114    1
     4   127   128    1
     5   119   121   ar
     6   119   118   ar
     7   121   122   ar
     8    96    95    1
     9   129   130    2
    10   129   128    1
    11   128   131    1
    12    94    95    1
    13   114   117    1
    14   114   113    1
    15   118   117    1
    16   118   120   ar
    17    95    98    1
    18   122   120   ar
    19   122   124   ar
    20   113   108   am
    21   131   132    1
    22   102   100   ar
    23   102   104   ar
    24   100    99   ar
    25   133   134    1
    26   120   123   ar
    27   105   104    1
    28   104   103   ar
    29   124   126   ar
    30    99    98    1
    31    99   101   ar
    32   108   109    2
    33   108   107    1
    34   135   136    2
    35   135   134    1
    36   103   101   ar
    37   134   137    1
    38   106   107    1
    39   106   112    1
    40   123   125   ar
    41   107   110    1
    42   137   138    1
    43   126   125   ar
    44    71    70   ar
    45    71    69   ar
    46   112   111    1
    47    13    14   ar
    48    13    11   ar
    49    70    68   ar
    50    14    12   ar
    51   110   111    1
    52   138   140    1
    53   138   139    1
    54    11     8   ar
    55    69    67   ar
    56    68    65   ar
    57    12    10   ar
    58     8    10   ar
    59     8     6   ar
    60    67    65   ar
    61    67    66   ar
    62    65    63   ar
    63    10     9   ar
    64     4     3    2
    65     6     5    1
    66     6     7   ar
    67    66    64   ar
    68     5     2    1
    69    63    62    1
    70    63    64   ar
    71     9     7   ar
    72    51    50    2
    73     3     2    1
    74    93    91   ar
    75    93    92   ar
    76    62    59    1
    77    59    60    1
    78    59    58    1
    79     2     1    1
    80    33    32    1
    81    91    89   ar
    82    60    61    2
    83    92    90   ar
    84    50    58   am
    85    50    49    1
    86    55    57   ar
    87    55    53   ar
    88    57    56   ar
    89    32    30   ar
    90    32    31   ar
    91    89    88   ar
    92    30    28   ar
    93    90    88   ar
    94    31    29   ar
    95    49    52    1
    96    49    48    1
    97    56    54   ar
    98    53    52    1
    99    53    54   ar
   100    88    87    1
   101    47    46   ar
   102    47    45   ar
   103    46    44   ar
   104    28    27   ar
   105    29    27   ar
   106    27    26    1
   107    45    43   ar
   108    87    84    1
   109    44    41   ar
   110    20    19    1
   111    26    23    1
   112    86    85    2
   113    43    41   ar
   114    43    42   ar
   115    84    85    1
   116    84    83    1
   117    41    39   ar
   118    23    22    1
   119    23    24    1
   120    21    19    1
   121    19    16    1
   122    22    17   am
   123    18    17    2
   124    75    74    2
   125    17    16    1
   126    42    40   ar
   127    25    24    2
   128    83    74   am
   129    39    40   ar
   130    39    38    1
   131    74    73    1
   132    16    15    1
   133    35    36    1
   134    35    38    1
   135    35    34    1
   136    36    37    2
   137    76    73    1
   138    76    77    1
   139    73    72    1
   140    79    77   ar
   141    79    81   ar
   142    77    78   ar
   143    81    82   ar
   144    78    80   ar
   145    82    80   ar
