@<TRIPOS>MOLECULE
tmp/3p32A02.pdb
 118 114 0 0 0
SMALL
GASTEIGER

@<TRIPOS>ATOM
      1  N          3.1470   37.3230  -13.1830 N.3   169  GLU169     -0.1231
      2  CA         2.1420   36.9490  -12.1880 C.3   169  GLU169      0.1699
      3  C          2.6780   35.9450  -11.1660 C.2   169  GLU169      0.2592
      4  O          1.9990   35.6600  -10.1840 O.2   169  GLU169     -0.2718
      5  CB         0.8650   36.3680  -12.8220 C.3   169  GLU169      0.0402
      6  CG        -0.0030   37.3970  -13.6050 C.3   169  GLU169      0.1161
      7  CD         0.6440   37.8810  -14.9100 C.2   169  GLU169      0.3649
      8  OE1        1.5570   37.2530  -15.4430 O.co2 169  GLU169     -0.2457
      9  OE2        0.2340   38.9260  -15.4120 O.co2 169  GLU169     -0.2457
     10  N          3.8400   35.3640  -11.4180 N.am  170  LEU170     -0.1966
     11  CA         4.4980   34.4980  -10.4160 C.3   170  LEU170      0.1728
     12  C          5.2020   35.2800   -9.3140 C.2   170  LEU170      0.2616
     13  O          5.5100   34.7320   -8.2430 O.2   170  LEU170     -0.2715
     14  CB         5.5530   33.6140  -11.1100 C.3   170  LEU170      0.0311
     15  CG         5.0630   32.6560  -12.2050 C.3   170  LEU170      0.0022
     16  CD1        6.2510   31.8680  -12.7640 C.3   170  LEU170      0.0001
     17  CD2        3.9630   31.7160  -11.6680 C.3   170  LEU170      0.0001
     18  N          5.5070   36.5260   -9.5590 N.am  171  ALA171     -0.1963
     19  CA         6.3540   37.2720   -8.6670 C.3   171  ALA171      0.1728
     20  C          5.6720   37.7450   -7.3840 C.2   171  ALA171      0.2616
     21  O          4.6600   38.3530   -7.4320 O.2   171  ALA171     -0.2715
     22  CB         6.9160   38.4210   -9.3700 C.3   171  ALA171      0.0334
     23  N          6.3320   37.5140   -6.2620 N.am  172  ASP172     -0.1971
     24  CA         5.9840   38.0970   -4.9990 C.3   172  ASP172      0.1709
     25  C          6.5860   39.4980   -4.8210 C.2   172  ASP172      0.2293
     26  O          6.0650   40.2690   -4.1340 O.2   172  ASP172     -0.2864
     27  CB         6.3460   37.1880   -3.8280 C.3   172  ASP172      0.1436
     28  CG         5.6450   35.8500   -3.8840 C.2   172  ASP172      0.3671
     29  OD1        4.4440   35.7910   -3.9790 O.co2 172  ASP172     -0.2456
     30  OD2        6.3380   34.8900   -3.8980 O.co2 172  ASP172     -0.2456
     31  N         -3.8220   43.1150   -9.7310 N.3   202  TYR202     -0.1241
     32  CA        -4.2240   42.7930   -8.3670 C.3   202  TYR202      0.1605
     33  C         -5.1430   43.9070   -7.7830 C.2   202  TYR202      0.2264
     34  O         -4.8090   44.4890   -6.7820 O.2   202  TYR202     -0.2867
     35  CB        -2.9810   42.6170   -7.4550 C.3   202  TYR202      0.0534
     36  CG        -2.0000   41.4950   -7.7960 C.ar  202  TYR202     -0.0201
     37  CD1       -2.0810   40.2930   -7.1840 C.ar  202  TYR202     -0.0009
     38  CD2       -0.9770   41.6660   -8.7010 C.ar  202  TYR202     -0.0009
     39  CE1       -1.2140   39.2810   -7.4780 C.ar  202  TYR202      0.0417
     40  CE2       -0.0910   40.6570   -9.0020 C.ar  202  TYR202      0.0417
     41  CZ        -0.2020   39.4630   -8.3900 C.ar  202  TYR202      0.1957
     42  OH         0.6180   38.4150   -8.6230 O.3   202  TYR202     -0.2866
     43  N         -6.6130   43.1250   -4.0940 N.3   205  GLU205     -0.1245
     44  CA        -5.8050   42.2690   -3.2350 C.3   205  GLU205      0.1567
     45  C         -5.6590   42.8860   -1.8650 C.2   205  GLU205      0.2260
     46  O         -5.3370   44.0200   -1.7620 O.2   205  GLU205     -0.2867
     47  CB        -4.4080   42.0870   -3.8210 C.3   205  GLU205      0.0388
     48  CG        -3.4120   41.4140   -2.9370 C.3   205  GLU205      0.1160
     49  CD        -3.7590   40.0110   -2.6310 C.2   205  GLU205      0.3649
     50  OE1       -4.3340   39.3660   -3.4740 O.co2 205  GLU205     -0.2457
     51  OE2       -3.4760   39.5630   -1.5580 O.co2 205  GLU205     -0.2457
     52  N         -4.0440   41.0630    1.0920 N.3   207  LEU207     -0.1231
     53  CA        -2.9620   40.5040    1.8830 C.3   207  LEU207      0.1693
     54  C         -1.5720   40.9140    1.4290 C.2   207  LEU207      0.2592
     55  O         -0.8320   41.4160    2.1960 O.2   207  LEU207     -0.2718
     56  CB        -3.0450   38.9970    1.9440 C.3   207  LEU207      0.0284
     57  CG        -2.0200   38.4150    2.9040 C.3   207  LEU207      0.0019
     58  CD1       -2.1580   38.9580    4.2590 C.3   207  LEU207      0.0001
     59  CD2       -2.0000   36.9790    2.8940 C.3   207  LEU207      0.0001
     60  N         -1.2600   40.6930    0.1690 N.am  208  TRP208     -0.1976
     61  CA         0.0480   41.0170   -0.3790 C.3   208  TRP208      0.1640
     62  C          0.0030   41.3980   -1.8460 C.2   208  TRP208      0.2290
     63  O         -0.1030   40.5720   -2.6490 O.2   208  TRP208     -0.2864
     64  CB         1.0450   39.8790   -0.1780 C.3   208  TRP208      0.0576
     65  CG         2.4210   40.2000   -0.6070 C.ar  208  TRP208      0.0006
     66  CD1        2.9900   39.9480   -1.8010 C.ar  208  TRP208      0.0946
     67  CD2        3.4040   40.8630    0.1630 C.ar  208  TRP208      0.0152
     68  NE1        4.2560   40.4160   -1.8390 N.ar  208  TRP208     -0.2442
     69  CE2        4.5450   40.9870   -0.6420 C.ar  208  TRP208      0.0810
     70  CE3        3.4280   41.3950    1.4370 C.ar  208  TRP208      0.0012
     71  CZ2        5.6720   41.5990   -0.2060 C.ar  208  TRP208      0.0191
     72  CZ3        4.5700   41.9960    1.8750 C.ar  208  TRP208      0.0001
     73  CH2        5.6850   42.0810    1.0590 C.ar  208  TRP208      0.0015
     74  N          2.2680   42.6050   -4.8100 N.3   210  PRO210     -0.2116
     75  CA         3.7280   42.6120   -5.0320 C.3   210  PRO210      0.1372
     76  C          4.2880   44.0170   -5.1740 C.2   210  PRO210      0.2244
     77  O          3.8570   44.7510   -6.0480 O.2   210  PRO210     -0.2868
     78  CB         3.8760   41.8250   -6.3580 C.3   210  PRO210      0.0268
     79  CG         2.7070   40.8650   -6.3120 C.3   210  PRO210      0.0207
     80  CD         1.5740   41.6490   -5.6980 C.3   210  PRO210      0.0892
     81  N          7.4190   40.0870    3.4540 N.3   233  HIS233     -0.1241
     82  CA         6.5700   39.0540    2.8070 C.3   233  HIS233      0.1621
     83  C          6.3040   37.8520    3.7370 C.2   233  HIS233      0.2264
     84  O          5.1630   37.4160    3.9240 O.2   233  HIS233     -0.2867
     85  CB         7.1950   38.5890    1.4860 C.3   233  HIS233      0.0745
     86  CG         6.3530   37.6270    0.7160 C.ar  233  HIS233      0.0817
     87  ND1        6.7860   36.3670    0.3650 N.ar  233  HIS233     -0.2268
     88  CD2        5.1060   37.7530    0.1990 C.ar  233  HIS233      0.1154
     89  CE1        5.8360   35.7490   -0.3190 C.ar  233  HIS233      0.1986
     90  NE2        4.8040   36.5690   -0.4250 N.ar  233  HIS233     -0.2212
     91  N          2.6340   36.9230    5.4070 N.3   237  LEU237     -0.1245
     92  CA         2.0520   35.6080    5.1270 C.3   237  LEU237      0.1561
     93  C          1.9430   34.7640    6.3980 C.2   237  LEU237      0.2260
     94  O          0.9720   34.0390    6.5730 O.2   237  LEU237     -0.2867
     95  CB         2.8220   34.8480    4.0190 C.3   237  LEU237      0.0270
     96  CG         2.2770   35.1640    2.5950 C.3   237  LEU237      0.0019
     97  CD1        2.3380   36.6470    2.2880 C.3   237  LEU237      0.0001
     98  CD2        3.0420   34.3590    1.5420 C.3   237  LEU237      0.0001
     99  N         -0.6320   31.7880    5.9750 N.3   242  GLU242     -0.1245
    100  CA        -0.4590   31.3710    4.5880 C.3   242  GLU242      0.1567
    101  C          0.9500   30.8800    4.2650 C.2   242  GLU242      0.2260
    102  O          1.1410   30.2310    3.2330 O.2   242  GLU242     -0.2867
    103  CB        -0.8480   32.4970    3.6320 C.3   242  GLU242      0.0388
    104  CG        -2.3140   32.9370    3.7930 C.3   242  GLU242      0.1160
    105  CD        -3.2930   32.0410    3.0550 C.2   242  GLU242      0.3649
    106  OE1       -2.8610   31.1450    2.2940 O.co2 242  GLU242     -0.2457
    107  OE2       -4.5110   32.2450    3.2390 O.co2 242  GLU242     -0.2457
    108  N          1.0870   27.5830    2.0310 N.3   246  ARG246     -0.1197
    109  CA         1.8120   27.5280    0.7570 C.3   246  ARG246      0.1779
    110  C          2.7610   26.3110    0.7060 C.2   246  ARG246      0.2305
    111  O          2.7540   25.5490   -0.2710 O.2   246  ARG246     -0.2863
    112  CB         2.5610   28.8610    0.4770 C.2   246  ARG246     -0.0007
    113  CG         3.5160   28.8780   -0.7840 C.2   246  ARG246      0.0176
    114  CD         3.9100   30.3140   -1.3520 C.3   246  ARG246      0.2464
    115  NE         4.9010   30.2550   -2.4480 N.pl3 246  ARG246     -0.0815
    116  CZ         5.3860   31.3020   -3.1420 C.cat 246  ARG246      0.5349
    117  NH1        5.0020   32.5510   -2.8830 N.pl3 246  ARG246      0.1354
    118  NH2        6.2740   31.1050   -4.1240 N.pl3 246  ARG246      0.1354
@<TRIPOS>BOND
     1     8     7   ar
     2     9     7   ar
     3     7     6    1
     4     6     5    1
     5     1     2    1
     6     5     2    1
     7    16    15    1
     8    15    17    1
     9    15    14    1
    10     2     3    1
    11    10     3   am
    12    10    11    1
    13     3     4    2
    14    14    11    1
    15    11    12    1
    16    31    32    1
    17    18    12   am
    18    18    19    1
    19    22    19    1
    20    12    13    2
    21    40    38   ar
    22    40    41   ar
    23    38    36   ar
    24    19    20    1
    25    42    41    1
    26    41    39   ar
    27    32    33    1
    28    32    35    1
    29    36    35    1
    30    36    37   ar
    31    33    34    2
    32    39    37   ar
    33    21    20    2
    34    20    23   am
    35    78    79    1
    36    78    75    1
    37    79    80    1
    38    23    24    1
    39    77    76    2
    40    80    74    1
    41    76    75    1
    42    75    74    1
    43    24    25    1
    44    24    27    1
    45    25    26    2
    46   118   116    1
    47    43    44    1
    48    29    28   ar
    49    30    28   ar
    50    28    27    1
    51    47    44    1
    52    47    48    1
    53    50    49   ar
    54    44    45    1
    55   116   117    1
    56   116   115    2
    57    48    49    1
    58    63    62    2
    59    49    51   ar
    60   115   114    1
    61    45    46    2
    62    62    61    1
    63    68    66   ar
    64    68    69   ar
    65    66    65   ar
    66   114   113    1
    67   113   112    2
    68    69    71   ar
    69    69    67   ar
    70    65    64    1
    71    65    67   ar
    72    90    89   ar
    73    90    88   ar
    74    61    64    1
    75    61    60    1
    76    89    87   ar
    77   111   110    2
    78    71    73   ar
    79    67    70   ar
    80    60    54   am
    81    88    86   ar
    82    87    86   ar
    83   112   109    1
    84   110   109    1
    85    86    85    1
    86   109   108    1
    87    73    72   ar
    88    52    53    1
    89    54    53    1
    90    54    55    2
    91    70    72   ar
    92    85    82    1
    93    98    96    1
    94    53    56    1
    95    56    57    1
    96    97    96    1
    97   106   105   ar
    98    96    95    1
    99    82    81    1
   100    82    83    1
   101    59    57    1
   102    57    58    1
   103   105   107   ar
   104   105   104    1
   105   102   101    2
   106   103   104    1
   107   103   100    1
   108    83    84    2
   109    95    92    1
   110   101   100    1
   111   100    99    1
   112    92    91    1
   113    92    93    1
   114    93    94    2
