@<TRIPOS>MOLECULE
tmp/3p32A00.pdb
 96 92 0 0 0
SMALL
GASTEIGER

@<TRIPOS>ATOM
      1  N         18.7420   36.5810  -19.2630 N.3    58  PRO58      -0.2102
      2  CA        20.2110   36.6380  -19.2670 C.3    58  PRO58       0.1504
      3  C         20.7060   38.0790  -19.3510 C.2    58  PRO58       0.2576
      4  O         20.2000   38.8700  -20.1560 O.2    58  PRO58      -0.2718
      5  CB        20.5840   35.8520  -20.5340 C.3    58  PRO58       0.0282
      6  CG        19.5460   34.8170  -20.6230 C.3    58  PRO58       0.0208
      7  CD        18.2450   35.4810  -20.1200 C.3    58  PRO58       0.0893
      8  N         21.6650   38.4170  -18.4980 N.am   59  GLY59      -0.1943
      9  CA        22.2390   39.7640  -18.4620 C.3    59  GLY59       0.2014
     10  C         21.5060   40.8400  -17.6720 C.2    59  GLY59       0.2639
     11  O         21.9910   41.9700  -17.5900 O.2    59  GLY59      -0.2714
     12  N         20.3520   40.5060  -17.0790 N.am   60  VAL60      -0.1963
     13  CA        19.6280   41.4570  -16.2290 C.3    60  VAL60       0.1727
     14  C         20.3890   41.7690  -14.9230 C.2    60  VAL60       0.2617
     15  O         20.1750   42.8120  -14.3140 O.2    60  VAL60      -0.2715
     16  CB        18.1670   40.9810  -15.9100 C.3    60  VAL60       0.0290
     17  CG1       18.1710   39.8460  -14.8710 C.3    60  VAL60       0.0023
     18  CG2       17.3250   42.1470  -15.4370 C.3    60  VAL60       0.0023
     19  N         21.2490   40.8450  -14.5070 N.am   61  GLY61      -0.1940
     20  CA        22.0720   41.0090  -13.3050 C.3    61  GLY61       0.2014
     21  C         21.7890   40.0710  -12.1360 C.2    61  GLY61       0.2639
     22  O         22.0960   40.4160  -10.9800 O.2    61  GLY61      -0.2714
     23  N         21.2340   38.8910  -12.4190 N.am   62  LYS62      -0.1963
     24  CA        20.9040   37.9250  -11.3440 C.3    62  LYS62       0.1728
     25  C         22.1420   37.4990  -10.5390 C.2    62  LYS62       0.2617
     26  O         22.0960   37.4780   -9.3120 O.2    62  LYS62      -0.2715
     27  CB        20.2130   36.6600  -11.8850 C.3    62  LYS62       0.0311
     28  CG        18.8920   36.8630  -12.6290 C.3    62  LYS62       0.0038
     29  CD        18.3540   35.5090  -13.1740 C.3    62  LYS62       0.0206
     30  CE        19.2330   34.8630  -14.2940 C.3    62  LYS62       0.1093
     31  NZ        19.4770   35.8170  -15.4420 N.3    62  LYS62      -0.1314
     32  N         23.2370   37.1380  -11.2180 N.am   63  SER63      -0.1936
     33  CA        24.4060   36.6270  -10.4930 C.3    63  SER63       0.2055
     34  C         25.0690   37.7260   -9.6660 C.2    63  SER63       0.2643
     35  O         25.5060   37.4760   -8.5490 O.2    63  SER63      -0.2714
     36  CB        25.4110   35.9490  -11.4430 C.3    63  SER63       0.2130
     37  OG        26.1140   36.9320  -12.1780 O.3    63  SER63      -0.2179
     38  N         25.1040   38.9440  -10.2020 N.am   64  THR64      -0.1950
     39  CA        25.6140   40.0910   -9.4820 C.3    64  THR64       0.1897
     40  C         24.7560   40.3820   -8.2210 C.2    64  THR64       0.2313
     41  O         25.2880   40.5800   -7.1020 O.2    64  THR64      -0.2863
     42  CB        25.6470   41.3210  -10.4310 C.3    64  THR64       0.1794
     43  OG1       26.4890   41.0100  -11.5580 O.3    64  THR64      -0.2208
     44  CG2       26.1960   42.5310   -9.7360 C.3    64  THR64       0.0378
     45  N         18.1920   30.1670   -8.1980 N.3   130  GLU130     -0.1245
     46  CA        18.2440   30.9880   -9.4140 C.3   130  GLU130      0.1567
     47  C         17.7230   30.1580  -10.6030 C.2   130  GLU130      0.2260
     48  O         18.0660   28.9820  -10.7340 O.2   130  GLU130     -0.2867
     49  CB        19.7110   31.3660   -9.6800 C.3   130  GLU130      0.0388
     50  CG        19.9000   32.4640  -10.7010 C.3   130  GLU130      0.1160
     51  CD        21.3590   32.6500  -11.1360 C.2   130  GLU130      0.3649
     52  OE1       21.6140   33.5840  -11.9280 O.co2 130  GLU130     -0.2457
     53  OE2       22.2410   31.8830  -10.6960 O.co2 130  GLU130     -0.2457
     54  N         16.2880   46.4530  -11.9640 N.3   177  ASN177     -0.1225
     55  CA        17.7320   46.5200  -11.7740 C.3   177  ASN177      0.1785
     56  C         18.4270   47.4460  -12.8100 C.2   177  ASN177      0.2597
     57  O         17.8870   47.7040  -13.8830 O.2   177  ASN177     -0.2718
     58  CB        18.3670   45.1200  -11.8620 C.3   177  ASN177      0.1169
     59  CG        19.8150   45.1020  -11.3430 C.2   177  ASN177      0.2627
     60  OD1       20.1190   45.7650  -10.3600 O.2   177  ASN177     -0.2716
     61  ND2       20.7020   44.3450  -12.0080 N.am  177  ASN177     -0.0877
     62  N         19.6130   47.9030  -12.4430 N.am  178  LYS178     -0.1980
     63  CA        20.5000   48.7900  -13.2290 C.3   178  LYS178      0.1596
     64  C         19.9650   50.2000  -13.1510 C.2   178  LYS178      0.2287
     65  O         20.0250   50.9450  -14.1200 O.2   178  LYS178     -0.2864
     66  CB        20.6440   48.3540  -14.6930 C.3   178  LYS178      0.0298
     67  CG        20.8550   46.8750  -14.9220 C.3   178  LYS178      0.0038
     68  CD        21.3370   46.6040  -16.3570 C.3   178  LYS178      0.0206
     69  CE        21.9560   45.2080  -16.4290 C.3   178  LYS178      0.1093
     70  NZ        22.5140   44.8810  -17.7650 N.3   178  LYS178     -0.1314
     71  N         21.0150   52.9900  -12.4880 N.3   180  ASP180     -0.1239
     72  CA        22.3040   53.7030  -12.3490 C.3   180  ASP180      0.1674
     73  C         22.7370   54.4220  -13.6380 C.2   180  ASP180      0.2266
     74  O         22.0570   54.3380  -14.6850 O.2   180  ASP180     -0.2867
     75  CB        23.4120   52.7520  -11.8890 C.3   180  ASP180      0.1410
     76  CG        23.5120   51.5080  -12.7510 C.2   180  ASP180      0.3668
     77  OD1       23.6680   51.6280  -13.9930 O.co2 180  ASP180     -0.2456
     78  OD2       23.4350   50.3960  -12.1870 O.co2 180  ASP180     -0.2456
     79  N         20.4710   48.8330   -7.8220 N.3   216  SER216     -0.1202
     80  CA        21.6710   48.8110   -8.6690 C.3   216  SER216      0.2020
     81  C         22.6240   47.7580   -8.1050 C.2   216  SER216      0.2619
     82  O         23.4520   48.0450   -7.2200 O.2   216  SER216     -0.2717
     83  CB        22.3200   50.1950   -8.7610 C.3   216  SER216      0.2103
     84  OG        23.4600   50.1340   -9.6070 O.3   216  SER216     -0.2182
     85  N         22.4580   46.5230   -8.5870 N.am  217  ALA217     -0.1965
     86  CA        23.1660   45.3750   -8.0370 C.3   217  ALA217      0.1728
     87  C         24.6760   45.5810   -8.1800 C.2   217  ALA217      0.2616
     88  O         25.4320   45.2400   -7.2790 O.2   217  ALA217     -0.2715
     89  CB        22.7370   44.0990   -8.7350 C.3   217  ALA217      0.0334
     90  N         25.0870   46.1730   -9.3060 N.am  218  VAL218     -0.1977
     91  CA        26.5210   46.4250   -9.5540 C.3   218  VAL218      0.1596
     92  C         27.1280   47.4820   -8.6030 C.2   218  VAL218      0.2287
     93  O         28.3120   47.4110   -8.2840 O.2   218  VAL218     -0.2864
     94  CB        26.7870   46.7890  -11.0360 C.3   218  VAL218      0.0276
     95  CG1       26.3360   48.2290  -11.3580 C.3   218  VAL218      0.0022
     96  CG2       28.2550   46.5630  -11.4120 C.3   218  VAL218      0.0022
@<TRIPOS>BOND
     1     6     5    1
     2     6     7    1
     3     5     2    1
     4     4     3    2
     5     7     1    1
     6     3     2    1
     7     3     8   am
     8     2     1    1
     9     8     9    1
    10     9    10    1
    11    70    69    1
    12    10    11    2
    13    10    12   am
    14    12    13    1
    15    69    68    1
    16    68    67    1
    17    13    16    1
    18    13    14    1
    19    16    18    1
    20    16    17    1
    21    31    30    1
    22    14    19   am
    23    14    15    2
    24    67    66    1
    25    66    63    1
    26    74    73    2
    27    19    20    1
    28    30    29    1
    29    65    64    2
    30    77    76   ar
    31    57    56    2
    32    73    72    1
    33    20    21    1
    34    63    64    1
    35    63    62    1
    36    29    28    1
    37    56    62   am
    38    56    55    1
    39    76    78   ar
    40    76    75    1
    41    28    27    1
    42    71    72    1
    43    23    21   am
    44    23    24    1
    45    72    75    1
    46    37    36    1
    47    21    22    2
    48    61    59   am
    49    54    55    1
    50    52    51   ar
    51    27    24    1
    52    58    55    1
    53    58    59    1
    54    43    42    1
    55    36    33    1
    56    96    94    1
    57    95    94    1
    58    24    25    1
    59    59    60    2
    60    32    25   am
    61    32    33    1
    62    51    50    1
    63    51    53   ar
    64    94    91    1
    65    48    47    2
    66    50    49    1
    67    47    46    1
    68    25    26    2
    69    33    34    1
    70    42    44    1
    71    42    39    1
    72    38    34   am
    73    38    39    1
    74    49    46    1
    75    34    35    2
    76    84    83    1
    77    91    90    1
    78    91    92    1
    79    39    40    1
    80    46    45    1
    81    90    87   am
    82    83    80    1
    83    89    86    1
    84    80    81    1
    85    80    79    1
    86    92    93    2
    87    85    81   am
    88    85    86    1
    89    40    41    2
    90    87    86    1
    91    87    88    2
    92    81    82    2
