@<TRIPOS>MOLECULE
tmp/3p37B00.pdb
 219 219 0 0 0
SMALL
GASTEIGER

@<TRIPOS>ATOM
      1  N         42.4520    3.6060   -6.9230 N.3    40  SER40      -0.1202
      2  CA        43.9070    3.5940   -6.9510 C.3    40  SER40       0.2020
      3  C         44.5770    4.9280   -6.5970 C.2    40  SER40       0.2619
      4  O         45.7770    4.9690   -6.3420 O.2    40  SER40      -0.2717
      5  CB        44.4300    3.0350   -8.2890 C.3    40  SER40       0.2103
      6  OG        43.8040    3.6300   -9.4120 O.3    40  SER40      -0.2182
      7  N         43.8010    6.0070   -6.5790 N.am   41  LYS41      -0.1965
      8  CA        44.3010    7.3460   -6.2530 C.3    41  LYS41       0.1728
      9  C         43.1550    8.1900   -5.7360 C.2    41  LYS41       0.2616
     10  O         42.0160    8.0260   -6.1810 O.2    41  LYS41      -0.2715
     11  CB        44.8970    8.0520   -7.4850 C.3    41  LYS41       0.0311
     12  CG        46.1210    7.3940   -8.0920 C.3    41  LYS41       0.0038
     13  CD        46.7160    8.2170   -9.2300 C.3    41  LYS41       0.0206
     14  CE        47.8300    7.4440   -9.9160 C.3    41  LYS41       0.1093
     15  NZ        48.5380    8.2370  -10.9820 N.3    41  LYS41      -0.1314
     16  N         43.4510    9.0940   -4.8030 N.am   42  TRP42      -0.1960
     17  CA        42.4590   10.0570   -4.3340 C.3    42  TRP42       0.1771
     18  C         43.0820   11.4050   -3.9890 C.2    42  TRP42       0.2620
     19  O         44.2630   11.4970   -3.6490 O.2    42  TRP42      -0.2715
     20  CB        41.6260    9.5040   -3.1660 C.3    42  TRP42       0.0590
     21  CG        42.4170    9.1270   -1.9520 C.ar   42  TRP42       0.0006
     22  CD1       42.8920    7.8930   -1.6430 C.ar   42  TRP42       0.0946
     23  CD2       42.8110    9.9920   -0.8810 C.ar   42  TRP42       0.0152
     24  NE1       43.5710    7.9290   -0.4460 N.ar   42  TRP42      -0.2442
     25  CE2       43.5410    9.2090    0.0400 C.ar   42  TRP42       0.0810
     26  CE3       42.6230   11.3530   -0.6140 C.ar   42  TRP42       0.0012
     27  CZ2       44.0790    9.7360    1.2110 C.ar   42  TRP42       0.0191
     28  CZ3       43.1600   11.8810    0.5540 C.ar   42  TRP42       0.0001
     29  CH2       43.8810   11.0730    1.4500 C.ar   42  TRP42       0.0015
     30  N         42.2720   12.4490   -4.1110 N.am   43  VAL43      -0.1963
     31  CA        42.6640   13.8200   -3.8140 C.3    43  VAL43       0.1727
     32  C         41.5200   14.4590   -3.0240 C.2    43  VAL43       0.2616
     33  O         40.4420   14.7040   -3.5680 O.2    43  VAL43      -0.2715
     34  CB        42.9240   14.6220   -5.1150 C.3    43  VAL43       0.0290
     35  CG1       43.2090   16.0740   -4.8050 C.3    43  VAL43       0.0023
     36  CG2       44.0800   14.0240   -5.8920 C.3    43  VAL43       0.0023
     37  N         41.7500   14.6980   -1.7380 N.am   44  ASP44      -0.1957
     38  CA        40.7300   15.2610   -0.8530 C.3    44  ASP44       0.1840
     39  C         40.8240   16.7800   -0.8310 C.2    44  ASP44       0.2622
     40  O         41.6520   17.3480   -0.1150 O.2    44  ASP44      -0.2715
     41  CB        40.8870   14.6840    0.5580 C.3    44  ASP44       0.1450
     42  CG        39.8930   15.2630    1.5650 C.2    44  ASP44       0.3671
     43  OD1       39.1290   16.1980    1.2460 O.co2  44  ASP44      -0.2456
     44  OD2       39.8810   14.7660    2.7040 O.co2  44  ASP44      -0.2456
     45  N         39.9640   17.4250   -1.6170 N.am   45  TYR45      -0.1974
     46  CA        39.9160   18.8850   -1.7090 C.3    45  TYR45       0.1639
     47  C         38.5760   19.4300   -1.1960 C.2    45  TYR45       0.2290
     48  O         38.1600   20.5290   -1.5730 O.2    45  TYR45      -0.2864
     49  CB        40.1370   19.3260   -3.1620 C.3    45  TYR45       0.0560
     50  CG        40.9290   20.6090   -3.3550 C.ar   45  TYR45      -0.0198
     51  CD1       41.5370   20.8820   -4.5780 C.ar   45  TYR45      -0.0009
     52  CD2       41.0790   21.5420   -2.3260 C.ar   45  TYR45      -0.0009
     53  CE1       42.2650   22.0510   -4.7850 C.ar   45  TYR45       0.0417
     54  CE2       41.8110   22.7170   -2.5190 C.ar   45  TYR45       0.0417
     55  CZ        42.4020   22.9620   -3.7550 C.ar   45  TYR45       0.1957
     56  OH        43.1290   24.1150   -3.9640 O.3    45  TYR45      -0.2866
     57  N         37.4520   21.0260    1.1150 N.3    47  ASP47      -0.1225
     58  CA        37.3900   22.3750    1.6840 C.3    47  ASP47       0.1805
     59  C         37.1430   23.4450    0.6160 C.2    47  ASP47       0.2598
     60  O         36.9480   24.6240    0.9410 O.2    47  ASP47      -0.2718
     61  CB        38.6570   22.6940    2.4980 C.3    47  ASP47       0.1424
     62  CG        39.9470   22.4300    1.7220 C.2    47  ASP47       0.3668
     63  OD1       40.8370   23.3100    1.7410 O.co2  47  ASP47      -0.2456
     64  OD2       40.0770   21.3440    1.1020 O.co2  47  ASP47      -0.2456
     65  N         37.1490   23.0270   -0.6500 N.am   48  LYS48      -0.1966
     66  CA        36.8810   23.9270   -1.7730 C.3    48  LYS48       0.1728
     67  C         35.9590   23.3290   -2.8360 C.2    48  LYS48       0.2616
     68  O         34.9310   23.9210   -3.1690 O.2    48  LYS48      -0.2715
     69  CB        38.1820   24.4070   -2.4230 C.3    48  LYS48       0.0311
     70  CG        38.6150   25.7970   -2.0040 C.3    48  LYS48       0.0038
     71  CD        39.4010   26.4730   -3.1190 C.3    48  LYS48       0.0206
     72  CE        39.5060   27.9760   -2.8960 C.3    48  LYS48       0.1093
     73  NZ        40.0820   28.6840   -4.0770 N.3    48  LYS48      -0.1314
     74  N         36.3270   22.1630   -3.3630 N.am   49  TYR49      -0.1974
     75  CA        35.6220   21.5870   -4.5090 C.3    49  TYR49       0.1639
     76  C         34.9620   20.2380   -4.2290 C.2    49  TYR49       0.2290
     77  O         33.7630   20.0630   -4.4720 O.2    49  TYR49      -0.2864
     78  CB        36.5610   21.4700   -5.7140 C.3    49  TYR49       0.0560
     79  CG        37.3060   22.7410   -6.0570 C.ar   49  TYR49      -0.0198
     80  CD1       38.6970   22.7800   -6.0250 C.ar   49  TYR49      -0.0009
     81  CD2       36.6210   23.9050   -6.4180 C.ar   49  TYR49      -0.0009
     82  CE1       39.3910   23.9440   -6.3440 C.ar   49  TYR49       0.0417
     83  CE2       37.3090   25.0750   -6.7380 C.ar   49  TYR49       0.0417
     84  CZ        38.6930   25.0850   -6.6990 C.ar   49  TYR49       0.1957
     85  OH        39.3810   26.2360   -7.0130 O.3    49  TYR49      -0.2866
     86  N         37.3350   21.4440  -13.5990 N.3   106  LEU106     -0.1245
     87  CA        37.7940   20.9920  -12.2910 C.3   106  LEU106      0.1561
     88  C         38.2740   19.5470  -12.3210 C.2   106  LEU106      0.2260
     89  O         39.3290   19.2360  -11.7730 O.2   106  LEU106     -0.2867
     90  CB        36.7070   21.1820  -11.2270 C.3   106  LEU106      0.0270
     91  CG        36.4780   22.6090  -10.7120 C.3   106  LEU106      0.0019
     92  CD1       35.2060   22.6830   -9.8850 C.3   106  LEU106      0.0001
     93  CD2       37.6720   23.1230   -9.9110 C.3   106  LEU106      0.0001
     94  N         41.7430   19.2290  -13.6820 N.3   109  TYR109     -0.1227
     95  CA        42.7520   19.6010  -12.6940 C.3   109  TYR109      0.1736
     96  C         43.0560   18.4220  -11.7770 C.2   109  TYR109      0.2595
     97  O         44.2180   18.1620  -11.4740 O.2   109  TYR109     -0.2718
     98  CB        42.3100   20.8070  -11.8530 C.3   109  TYR109      0.0548
     99  CG        42.0950   22.1150  -12.6010 C.ar  109  TYR109     -0.0200
    100  CD1       41.2420   23.0910  -12.0830 C.ar  109  TYR109     -0.0009
    101  CD2       42.7390   22.3840  -13.8160 C.ar  109  TYR109     -0.0009
    102  CE1       41.0350   24.2980  -12.7450 C.ar  109  TYR109      0.0417
    103  CE2       42.5320   23.5890  -14.4910 C.ar  109  TYR109      0.0417
    104  CZ        41.6800   24.5410  -13.9480 C.ar  109  TYR109      0.1957
    105  OH        41.4670   25.7370  -14.6010 O.3   109  TYR109     -0.2866
    106  N         42.0080   17.7150  -11.3480 N.am  110  PHE110     -0.1976
    107  CA        42.1540   16.5080  -10.5280 C.3   110  PHE110      0.1639
    108  C         42.8790   15.4090  -11.2920 C.2   110  PHE110      0.2290
    109  O         43.7110   14.7000  -10.7270 O.2   110  PHE110     -0.2864
    110  CB        40.7920   15.9770  -10.0510 C.3   110  PHE110      0.0560
    111  CG        40.2140   16.7280   -8.8860 C.ar  110  PHE110     -0.0200
    112  CD1       39.2330   17.6970   -9.0840 C.ar  110  PHE110     -0.0042
    113  CD2       40.6410   16.4630   -7.5890 C.ar  110  PHE110     -0.0042
    114  CE1       38.6890   18.3960   -8.0100 C.ar  110  PHE110     -0.0003
    115  CE2       40.1030   17.1570   -6.5020 C.ar  110  PHE110     -0.0003
    116  CZ        39.1250   18.1260   -6.7160 C.ar  110  PHE110     -0.0000
    117  N         46.6100   16.4490  -11.7370 N.3   113  TYR113     -0.1241
    118  CA        47.2650   16.3470  -10.4350 C.3   113  TYR113      0.1605
    119  C         47.6260   14.9050  -10.0970 C.2   113  TYR113      0.2264
    120  O         48.7530   14.6240   -9.6970 O.2   113  TYR113     -0.2867
    121  CB        46.3930   16.9410   -9.3260 C.3   113  TYR113      0.0534
    122  CG        47.0530   16.9350   -7.9660 C.ar  113  TYR113     -0.0201
    123  CD1       47.7620   18.0480   -7.5100 C.ar  113  TYR113     -0.0009
    124  CD2       46.9720   15.8160   -7.1340 C.ar  113  TYR113     -0.0009
    125  CE1       48.3770   18.0470   -6.2610 C.ar  113  TYR113      0.0417
    126  CE2       47.5810   15.8020   -5.8800 C.ar  113  TYR113      0.0417
    127  CZ        48.2790   16.9210   -5.4500 C.ar  113  TYR113      0.1957
    128  OH        48.8750   16.9160   -4.2110 O.3   113  TYR113     -0.2866
    129  N         51.5880   13.3600   -9.9230 N.3   117  HIS117     -0.1226
    130  CA        52.0340   13.3870   -8.5280 C.3   117  HIS117      0.1752
    131  C         51.8350   12.0900   -7.7610 C.2   117  HIS117      0.2596
    132  O         52.6180   11.7710   -6.8650 O.2   117  HIS117     -0.2718
    133  CB        51.3650   14.5290   -7.7550 C.3   117  HIS117      0.0759
    134  CG        51.6790   15.8930   -8.2840 C.ar  117  HIS117      0.0818
    135  ND1       52.9620   16.3940   -8.3470 N.ar  117  HIS117     -0.2268
    136  CD2       50.8700   16.8760   -8.7470 C.ar  117  HIS117      0.1154
    137  CE1       52.9320   17.6180   -8.8440 C.ar  117  HIS117      0.1986
    138  NE2       51.6750   17.9340   -9.0970 N.ar  117  HIS117     -0.2212
    139  N         50.7980   11.3390   -8.1040 N.am  118  LEU118     -0.1966
    140  CA        50.3730   10.2300   -7.2540 C.3   118  LEU118      0.1728
    141  C         50.6190    8.8560   -7.8520 C.2   118  LEU118      0.2616
    142  O         50.5100    8.6630   -9.0570 O.2   118  LEU118     -0.2715
    143  CB        48.8970   10.3830   -6.8460 C.3   118  LEU118      0.0311
    144  CG        48.4170   11.7230   -6.2670 C.3   118  LEU118      0.0022
    145  CD1       46.9680   11.6170   -5.8080 C.3   118  LEU118      0.0001
    146  CD2       49.3120   12.2390   -5.1350 C.3   118  LEU118      0.0001
    147  N         50.9470    7.9100   -6.9800 N.am  119  LEU119     -0.1977
    148  CA        51.1620    6.5210   -7.3510 C.3   119  LEU119      0.1596
    149  C         49.8470    5.7630   -7.4670 C.2   119  LEU119      0.2287
    150  O         48.8680    6.1050   -6.8160 O.2   119  LEU119     -0.2864
    151  CB        52.0450    5.8410   -6.3030 C.3   119  LEU119      0.0297
    152  CG        53.5680    5.8550   -6.4570 C.3   119  LEU119      0.0022
    153  CD1       54.0840    7.0570   -7.2660 C.3   119  LEU119      0.0001
    154  CD2       54.2220    5.7680   -5.0820 C.3   119  LEU119      0.0001
    155  N         47.6350    2.6880   -6.6680 N.3   121  ALA121     -0.1245
    156  CA        47.4430    1.5650   -5.7500 C.3   121  ALA121      0.1562
    157  C         47.0310    0.2930   -6.4900 C.2   121  ALA121      0.2260
    158  O         46.2310    0.3370   -7.4160 O.2   121  ALA121     -0.2867
    159  CB        46.4130    1.9150   -4.6640 C.3   121  ALA121      0.0290
    160  N         36.8100   10.5900    5.9810 N.3   141  ARG141     -0.1245
    161  CA        38.0650   10.2220    6.6550 C.3   141  ARG141      0.1563
    162  C         37.9520   10.2530    8.1820 C.2   141  ARG141      0.2260
    163  O         37.2110   11.0570    8.7420 O.2   141  ARG141     -0.2867
    164  CB        39.2670   11.0760    6.2090 C.3   141  ARG141      0.0307
    165  CG        38.9590   12.5140    5.8080 C.3   141  ARG141      0.0489
    166  CD        39.9740   13.5730    6.3150 C.3   141  ARG141      0.2205
    167  NE        41.3200   13.0950    6.6630 N.pl3 141  ARG141     -0.0865
    168  CZ        42.3250   12.9160    5.8020 C.cat 141  ARG141      0.5346
    169  NH1       43.5030   12.4950    6.2500 N.pl3 141  ARG141      0.1354
    170  NH2       42.1620   13.1370    4.4990 N.pl3 141  ARG141      0.1354
    171  N         41.5530    2.7150    3.2320 N.3   158  ASN158     -0.1225
    172  CA        42.9920    2.9290    3.1390 C.3   158  ASN158      0.1785
    173  C         43.5110    3.4680    4.4650 C.2   158  ASN158      0.2597
    174  O         43.1400    4.5660    4.8730 O.2   158  ASN158     -0.2718
    175  CB        43.3130    3.9110    2.0050 C.3   158  ASN158      0.1169
    176  CG        43.1060    3.3130    0.6190 C.2   158  ASN158      0.2627
    177  OD1       42.4370    2.2880    0.4540 O.2   158  ASN158     -0.2716
    178  ND2       43.6880    3.9560   -0.3900 N.am  158  ASN158     -0.0877
    179  N         44.3500    2.6900    5.1470 N.am  159  PHE159     -0.1962
    180  CA        44.9160    3.1070    6.4410 C.3   159  PHE159      0.1771
    181  C         46.1500    4.0010    6.2710 C.2   159  PHE159      0.2619
    182  O         47.0990    3.6320    5.5920 O.2   159  PHE159     -0.2715
    183  CB        45.2360    1.8900    7.3110 C.3   159  PHE159      0.0574
    184  CG        44.0260    1.0790    7.6840 C.ar  159  PHE159     -0.0200
    185  CD1       43.6290   -0.0020    6.9030 C.ar  159  PHE159     -0.0042
    186  CD2       43.2810    1.4020    8.8080 C.ar  159  PHE159     -0.0042
    187  CE1       42.5090   -0.7490    7.2310 C.ar  159  PHE159     -0.0003
    188  CE2       42.1510    0.6550    9.1550 C.ar  159  PHE159     -0.0003
    189  CZ        41.7660   -0.4240    8.3670 C.ar  159  PHE159     -0.0000
    190  N         46.1170    5.1740    6.9000 N.am  160  PHE160     -0.1974
    191  CA        47.1150    6.2220    6.6920 C.3   160  PHE160      0.1639
    192  C         48.5160    5.8910    7.1940 C.2   160  PHE160      0.2290
    193  O         49.5080    6.2540    6.5530 O.2   160  PHE160     -0.2864
    194  CB        46.6720    7.5310    7.3640 C.3   160  PHE160      0.0560
    195  CG        45.4380    8.1580    6.7620 C.ar  160  PHE160     -0.0200
    196  CD1       44.5150    8.8080    7.5790 C.ar  160  PHE160     -0.0042
    197  CD2       45.1980    8.1090    5.3920 C.ar  160  PHE160     -0.0042
    198  CE1       43.3780    9.3970    7.0420 C.ar  160  PHE160     -0.0003
    199  CE2       44.0620    8.6950    4.8460 C.ar  160  PHE160     -0.0003
    200  CZ        43.1530    9.3420    5.6730 C.ar  160  PHE160     -0.0000
    201  N         49.8480    2.2770    5.5890 N.3   163  HIS163     -0.1241
    202  CA        49.5190    2.2310    4.1570 C.3   163  HIS163      0.1621
    203  C         48.8930    0.9150    3.6810 C.2   163  HIS163      0.2264
    204  O         48.8580    0.6270    2.4790 O.2   163  HIS163     -0.2867
    205  CB        50.7170    2.6630    3.2960 C.3   163  HIS163      0.0745
    206  CG        51.3060    3.9690    3.7230 C.ar  163  HIS163      0.0817
    207  ND1       50.7560    5.1820    3.3710 N.ar  163  HIS163     -0.2268
    208  CD2       52.3700    4.2530    4.5110 C.ar  163  HIS163      0.1154
    209  CE1       51.4630    6.1580    3.9110 C.ar  163  HIS163      0.1986
    210  NE2       52.4500    5.6220    4.6070 N.ar  163  HIS163     -0.2212
    211  N         45.5820   -1.5990    3.1240 N.3   165  LYS165     -0.1245
    212  CA        44.2990   -1.3040    2.4780 C.3   165  LYS165      0.1561
    213  C         43.3820   -2.5200    2.4700 C.2   165  LYS165      0.2260
    214  O         43.8510   -3.6580    2.3160 O.2   165  LYS165     -0.2867
    215  CB        44.5240   -0.8410    1.0350 C.3   165  LYS165      0.0271
    216  CG        45.2110    0.5110    0.8870 C.3   165  LYS165      0.0035
    217  CD        45.6920    0.7080   -0.5370 C.3   165  LYS165      0.0206
    218  CE        46.5510    1.9520   -0.6810 C.3   165  LYS165      0.1093
    219  NZ        47.8830    1.8590   -0.0030 N.3   165  LYS165     -0.1314
@<TRIPOS>BOND
     1   105   104    1
     2   103   104   ar
     3   103   101   ar
     4   104   102   ar
     5   101    99   ar
     6    94    95    1
     7    86    87    1
     8   102   100   ar
     9    95    98    1
    10    95    96    1
    11    99   100   ar
    12    99    98    1
    13    88    87    1
    14    88    89    2
    15    87    90    1
    16    96    97    2
    17    96   106   am
    18   117   118    1
    19   106   107    1
    20   108   109    2
    21   108   107    1
    22    90    91    1
    23    15    14    1
    24    91    93    1
    25    91    92    1
    26   107   110    1
    27   118   119    1
    28   118   121    1
    29   119   120    2
    30   110   111    1
    31   129   130    1
    32    14    13    1
    33     6     5    1
    34   121   122    1
    35    13    12    1
    36   138   137   ar
    37   138   136   ar
    38   112   111   ar
    39   112   114   ar
    40   142   141    2
    41   111   113   ar
    42   137   135   ar
    43   136   134   ar
    44   130   131    1
    45   130   133    1
    46   135   134   ar
    47     5     2    1
    48   134   133    1
    49   139   131   am
    50   139   140    1
    51    12    11    1
    52   114   116   ar
    53   122   123   ar
    54   122   124   ar
    55   141   140    1
    56   141   147   am
    57   131   132    2
    58   113   115   ar
    59   123   125   ar
    60    11     8    1
    61   149   148    1
    62   149   150    2
    63   158   157    2
    64   148   147    1
    65   148   151    1
    66   153   152    1
    67   140   143    1
    68   124   126   ar
    69    85    84    1
    70     2     1    1
    71     2     3    1
    72   143   144    1
    73    83    84   ar
    74    83    81   ar
    75   116   115   ar
    76    84    82   ar
    77   155   156    1
    78     3     7   am
    79     3     4    2
    80     7     8    1
    81   157   156    1
    82   152   151    1
    83   152   154    1
    84    81    79   ar
    85    82    80   ar
    86   144   145    1
    87   144   146    1
    88   125   127   ar
    89     8     9    1
    90    10     9    2
    91    79    80   ar
    92    79    78    1
    93    36    34    1
    94   126   127   ar
    95   156   159    1
    96     9    16   am
    97    78    75    1
    98   127   128    1
    99    34    35    1
   100    34    31    1
   101    16    17    1
   102    53    51   ar
   103    53    55   ar
   104    51    50   ar
   105    75    76    1
   106    75    74    1
   107    77    76    2
   108    17    18    1
   109    17    20    1
   110    30    18   am
   111    30    31    1
   112    73    72    1
   113    18    19    2
   114    56    55    1
   115    31    32    1
   116    55    54   ar
   117    33    32    2
   118    74    67   am
   119    50    49    1
   120    50    52   ar
   121    68    67    2
   122    20    21    1
   123    49    46    1
   124    71    72    1
   125    71    70    1
   126    32    37   am
   127    67    66    1
   128    54    52   ar
   129    69    70    1
   130    69    66    1
   131    21    22   ar
   132    21    23   ar
   133    66    65    1
   134    37    38    1
   135    46    45    1
   136    46    47    1
   137    22    24   ar
   138    45    39   am
   139    48    47    2
   140    23    26   ar
   141    23    25   ar
   142    38    39    1
   143    38    41    1
   144    39    40    2
   145   218   217    1
   146   218   219    1
   147    65    59   am
   148    26    28   ar
   149   217   216    1
   150    24    25   ar
   151   178   176   am
   152    25    27   ar
   153   177   176    2
   154    28    29   ar
   155    41    42    1
   156    59    60    2
   157    59    58    1
   158   176   175    1
   159   216   215    1
   160   215   212    1
   161    64    62   ar
   162    57    58    1
   163    27    29   ar
   164    43    42   ar
   165    42    44   ar
   166    58    61    1
   167    62    63   ar
   168    62    61    1
   169   175   172    1
   170   214   213    2
   171   213   212    1
   172   212   211    1
   173   204   203    2
   174   172   171    1
   175   172   173    1
   176   205   206    1
   177   205   202    1
   178   207   206   ar
   179   207   209   ar
   180   203   202    1
   181   206   208   ar
   182   209   210   ar
   183   202   201    1
   184   173   174    2
   185   173   179   am
   186   170   168    1
   187   208   210   ar
   188   199   197   ar
   189   199   200   ar
   190   179   180    1
   191   197   195   ar
   192   182   181    2
   193   200   198   ar
   194   168   169    1
   195   168   167    2
   196   165   164    1
   197   165   166    1
   198   160   161    1
   199   164   161    1
   200   181   180    1
   201   181   190   am
   202   166   167    1
   203   180   183    1
   204   193   192    2
   205   161   162    1
   206   191   190    1
   207   191   192    1
   208   191   194    1
   209   195   194    1
   210   195   196   ar
   211   185   187   ar
   212   185   184   ar
   213   198   196   ar
   214   187   189   ar
   215   183   184    1
   216   184   186   ar
   217   162   163    2
   218   189   188   ar
   219   186   188   ar
