@<TRIPOS>MOLECULE
tmp/3p3cA00.pdb
 180 173 0 0 0
SMALL
GASTEIGER

@<TRIPOS>ATOM
      1  N        -14.8510   25.0040  -17.6780 N.3    17  ILE17      -0.1231
      2  CA       -13.9870   23.9570  -17.1550 C.3    17  ILE17       0.1692
      3  C        -12.7050   23.7600  -17.9700 C.2    17  ILE17       0.2592
      4  O        -11.6670   23.4210  -17.4090 O.2    17  ILE17      -0.2718
      5  CB       -14.7430   22.6180  -17.0090 C.3    17  ILE17       0.0266
      6  CG1      -14.0020   21.7190  -16.0200 C.3    17  ILE17       0.0019
      7  CG2      -14.9180   21.9350  -18.3550 C.3    17  ILE17       0.0020
      8  CD1      -14.7140   20.4320  -15.7060 C.3    17  ILE17       0.0001
      9  N        -12.7600   23.9850  -19.2790 N.am   18  HIS18      -0.1976
     10  CA       -11.5790   23.7660  -20.1140 C.3    18  HIS18       0.1656
     11  C        -10.7510   25.0190  -20.3760 C.2    18  HIS18       0.2291
     12  O         -9.5270   24.9620  -20.3340 O.2    18  HIS18      -0.2864
     13  CB       -11.9650   23.0830  -21.4240 C.3    18  HIS18       0.0771
     14  CG       -12.4110   21.6750  -21.2300 C.ar   18  HIS18       0.0820
     15  ND1      -11.6270   20.7370  -20.5930 N.ar   18  HIS18      -0.2267
     16  CD2      -13.5710   21.0540  -21.5400 C.ar   18  HIS18       0.1154
     17  CE1      -12.2790   19.5900  -20.5390 C.ar   18  HIS18       0.1986
     18  NE2      -13.4610   19.7560  -21.1050 N.ar   18  HIS18      -0.2212
     19  N        -12.8900   15.3890  -24.8490 N.3    57  HIS57      -0.1241
     20  CA       -13.1530   15.8470  -23.4760 C.3    57  HIS57       0.1621
     21  C        -14.3220   16.8250  -23.3580 C.2    57  HIS57       0.2264
     22  O        -14.7350   17.1700  -22.2520 O.2    57  HIS57      -0.2867
     23  CB       -11.9040   16.4420  -22.8300 C.3    57  HIS57       0.0745
     24  CG       -10.7490   15.4950  -22.7790 C.ar   57  HIS57       0.0817
     25  ND1      -10.6560   14.4800  -21.8500 N.ar   57  HIS57      -0.2268
     26  CD2       -9.6430   15.4030  -23.5520 C.ar   57  HIS57       0.1154
     27  CE1       -9.5370   13.8070  -22.0520 C.ar   57  HIS57       0.1986
     28  NE2       -8.9040   14.3460  -23.0780 N.ar   57  HIS57      -0.2212
     29  N        -22.3460   20.4000  -24.1510 N.3    72  GLU72      -0.1231
     30  CA       -23.1000   19.1800  -23.8780 C.3    72  GLU72       0.1699
     31  C        -24.0370   19.2510  -22.6680 C.2    72  GLU72       0.2592
     32  O        -25.1050   18.6410  -22.6830 O.2    72  GLU72      -0.2718
     33  CB       -22.1600   17.9710  -23.7520 C.3    72  GLU72       0.0402
     34  CG       -21.1210   18.0670  -22.6440 C.3    72  GLU72       0.1161
     35  CD       -19.7790   18.6100  -23.1160 C.2    72  GLU72       0.3649
     36  OE1      -19.7330   19.3400  -24.1280 O.co2  72  GLU72      -0.2457
     37  OE2      -18.7600   18.2990  -22.4640 O.co2  72  GLU72      -0.2457
     38  N        -23.6610   19.9910  -21.6330 N.am   73  HIS73      -0.1976
     39  CA       -24.4620   20.0080  -20.4130 C.3    73  HIS73       0.1656
     40  C        -25.7000   20.8970  -20.5450 C.2    73  HIS73       0.2291
     41  O        -26.7920   20.5080  -20.1280 O.2    73  HIS73      -0.2864
     42  CB       -23.5990   20.4150  -19.2210 C.3    73  HIS73       0.0771
     43  CG       -22.3490   19.6020  -19.0910 C.ar   73  HIS73       0.0820
     44  ND1      -21.1180   20.1600  -18.8200 N.ar   73  HIS73      -0.2267
     45  CD2      -22.1390   18.2690  -19.2100 C.ar   73  HIS73       0.1154
     46  CE1      -20.2050   19.2060  -18.7720 C.ar   73  HIS73       0.1986
     47  NE2      -20.7990   18.0490  -19.0050 N.ar   73  HIS73      -0.2212
     48  N        -19.5160   16.1070  -13.7960 N.3   178  THR178     -0.1203
     49  CA       -18.3780   15.6940  -14.5870 C.3   178  THR178      0.1994
     50  C        -17.2910   15.1790  -13.6490 C.2   178  THR178      0.2618
     51  O        -17.2280   15.5700  -12.4820 O.2   178  THR178     -0.2717
     52  CB       -17.8580   16.8640  -15.4380 C.3   178  THR178      0.1784
     53  OG1      -16.9120   16.3790  -16.3930 O.3   178  THR178     -0.2211
     54  CG2      -17.2120   17.9280  -14.5700 C.3   178  THR178      0.0376
     55  N        -16.4440   14.2950  -14.1630 N.am  179  PHE179     -0.1961
     56  CA       -15.4500   13.6310  -13.3360 C.3   179  PHE179      0.1771
     57  C        -14.1540   13.4400  -14.1030 C.2   179  PHE179      0.2619
     58  O        -14.1310   13.4880  -15.3340 O.2   179  PHE179     -0.2715
     59  CB       -15.9770   12.2770  -12.8460 C.3   179  PHE179      0.0574
     60  CG       -16.2860   11.3040  -13.9520 C.ar  179  PHE179     -0.0200
     61  CD1      -15.3590   10.3480  -14.3340 C.ar  179  PHE179     -0.0042
     62  CD2      -17.5050   11.3470  -14.6110 C.ar  179  PHE179     -0.0042
     63  CE1      -15.6440    9.4540  -15.3540 C.ar  179  PHE179     -0.0003
     64  CE2      -17.7920   10.4550  -15.6280 C.ar  179  PHE179     -0.0003
     65  CZ       -16.8610    9.5090  -16.0000 C.ar  179  PHE179     -0.0000
     66  N        -13.0740   13.2360  -13.3580 N.am  180  ALA180     -0.1977
     67  CA       -11.7610   13.0000  -13.9330 C.3   180  ALA180      0.1597
     68  C        -10.9530   12.1260  -12.9960 C.2   180  ALA180      0.2287
     69  O        -11.1940   12.0970  -11.7920 O.2   180  ALA180     -0.2864
     70  CB       -11.0410   14.3150  -14.1750 C.3   180  ALA180      0.0319
     71  N         -5.1260   13.7830  -15.3860 N.3   185  ILE185     -0.1245
     72  CA        -5.2770   15.2330  -15.3900 C.3   185  ILE185      0.1561
     73  C         -4.0560   15.9610  -15.9660 C.2   185  ILE185      0.2260
     74  O         -4.2070   16.9700  -16.6500 O.2   185  ILE185     -0.2867
     75  CB        -5.6210   15.7640  -13.9830 C.3   185  ILE185      0.0252
     76  CG1       -7.0520   15.3620  -13.6120 C.3   185  ILE185      0.0019
     77  CG2       -5.4820   17.2770  -13.9300 C.3   185  ILE185      0.0019
     78  CD1       -7.4370   15.6970  -12.1870 C.3   185  ILE185      0.0001
     79  N         -4.3870   15.9670  -19.7160 N.3   188  ILE188     -0.1231
     80  CA        -5.4780   16.8360  -20.1310 C.3   188  ILE188      0.1692
     81  C         -5.0310   18.2960  -20.1180 C.2   188  ILE188      0.2591
     82  O         -5.3200   19.0530  -21.0430 O.2   188  ILE188     -0.2718
     83  CB        -6.7130   16.6260  -19.2370 C.3   188  ILE188      0.0266
     84  CG1       -7.2820   15.2280  -19.4890 C.3   188  ILE188      0.0019
     85  CG2       -7.7630   17.6870  -19.5150 C.3   188  ILE188      0.0020
     86  CD1       -8.3750   14.8190  -18.5350 C.3   188  ILE188      0.0001
     87  N         -4.3030   18.6900  -19.0820 N.am  189  LYS189     -0.1980
     88  CA        -3.8010   20.0540  -19.0090 C.3   189  LYS189      0.1596
     89  C         -2.7300   20.3030  -20.0680 C.2   189  LYS189      0.2287
     90  O         -2.6620   21.3830  -20.6480 O.2   189  LYS189     -0.2864
     91  CB        -3.2650   20.3530  -17.6110 C.3   189  LYS189      0.0298
     92  CG        -4.3550   20.4090  -16.5540 C.3   189  LYS189      0.0038
     93  CD        -3.8310   20.9490  -15.2370 C.3   189  LYS189      0.0206
     94  CE        -4.9680   21.2280  -14.2710 C.3   189  LYS189      0.1093
     95  NZ        -4.5200   22.0060  -13.0830 N.3   189  LYS189     -0.1314
     96  N         -8.9310   21.4790  -19.4530 N.3   194  GLY194     -0.1225
     97  CA        -9.0870   21.3800  -18.0100 C.3   194  GLY194      0.1811
     98  C         -8.6030   22.5610  -17.1820 C.2   194  GLY194      0.2280
     99  O         -8.3960   22.4130  -15.9790 O.2   194  GLY194     -0.2866
    100  N        -10.8430   23.3280  -14.1990 N.3   197  GLY197     -0.1210
    101  CA       -11.2230   22.2120  -13.3560 C.3   197  GLY197      0.1956
    102  C        -10.7210   22.3540  -11.9340 C.2   197  GLY197      0.2613
    103  O         -9.5760   22.7300  -11.7040 O.2   197  GLY197     -0.2717
    104  N        -11.5870   22.0420  -10.9770 N.am  198  SER198     -0.1938
    105  CA       -11.2340   22.0810   -9.5640 C.3   198  SER198      0.2055
    106  C        -12.1750   21.1680   -8.8030 C.2   198  SER198      0.2642
    107  O        -13.1330   20.6510   -9.3640 O.2   198  SER198     -0.2714
    108  CB       -11.3680   23.4970   -9.0130 C.3   198  SER198      0.2130
    109  OG       -12.7330   23.8150   -8.8040 O.3   198  SER198     -0.2179
    110  N        -11.9190   20.9840   -7.5170 N.am  199  LEU199     -0.1977
    111  CA       -12.8010   20.1720   -6.6890 C.3   199  LEU199      0.1596
    112  C        -14.1600   20.8410   -6.4910 C.2   199  LEU199      0.2287
    113  O        -15.0830   20.2190   -5.9740 O.2   199  LEU199     -0.2864
    114  CB       -12.1520   19.8730   -5.3380 C.3   199  LEU199      0.0297
    115  CG       -10.8580   19.0560   -5.4030 C.3   199  LEU199      0.0022
    116  CD1      -10.3520   18.7440   -4.0050 C.3   199  LEU199      0.0001
    117  CD2      -11.0610   17.7710   -6.1960 C.3   199  LEU199      0.0001
    118  N        -15.6430   19.4740  -10.3090 N.3   202  THR202     -0.1218
    119  CA       -15.2760   18.1800  -10.8630 C.3   202  THR202      0.1862
    120  C        -15.1510   17.1500   -9.7550 C.2   202  THR202      0.2287
    121  O        -14.5420   17.4170   -8.7240 O.2   202  THR202     -0.2866
    122  CB       -13.9170   18.2520  -11.5850 C.3   202  THR202      0.1770
    123  OG1      -13.9560   19.2650  -12.5960 O.3   202  THR202     -0.2211
    124  CG2      -13.5710   16.9220  -12.2310 C.3   202  THR202      0.0375
    125  N        -13.1670   14.3350   -8.6560 N.3   204  VAL204     -0.1245
    126  CA       -11.8330   13.8490   -8.9750 C.3   204  VAL204      0.1561
    127  C        -11.5540   12.5660   -8.2030 C.2   204  VAL204      0.2260
    128  O        -11.6530   12.5270   -6.9790 O.2   204  VAL204     -0.2867
    129  CB       -10.7600   14.9100   -8.6690 C.3   204  VAL204      0.0252
    130  CG1       -9.3750   14.3710   -8.9860 C.3   204  VAL204      0.0019
    131  CG2      -11.0320   16.1780   -9.4680 C.3   204  VAL204      0.0019
    132  N        -11.1270   12.5110   -4.0450 N.3   211  TYR211     -0.1241
    133  CA       -10.4790   13.7340   -3.5730 C.3   211  TYR211      0.1605
    134  C        -11.4610   14.7230   -2.9430 C.2   211  TYR211      0.2264
    135  O        -11.1360   15.3880   -1.9610 O.2   211  TYR211     -0.2867
    136  CB        -9.7350   14.4160   -4.7200 C.3   211  TYR211      0.0534
    137  CG        -8.4250   13.7550   -5.0920 C.ar  211  TYR211     -0.0201
    138  CD1       -8.4020   12.5740   -5.8220 C.ar  211  TYR211     -0.0009
    139  CD2       -7.2120   14.3210   -4.7220 C.ar  211  TYR211     -0.0009
    140  CE1       -7.2070   11.9710   -6.1660 C.ar  211  TYR211      0.0417
    141  CE2       -6.0130   13.7260   -5.0610 C.ar  211  TYR211      0.0417
    142  CZ        -6.0160   12.5520   -5.7820 C.ar  211  TYR211      0.1957
    143  OH        -4.8240   11.9580   -6.1200 O.3   211  TYR211     -0.2866
    144  N        -23.4930   10.6880  -15.0540 N.3   225  HIS225     -0.1226
    145  CA       -23.0170   11.8260  -15.8190 C.3   225  HIS225      0.1752
    146  C        -22.7870   11.4650  -17.2830 C.2   225  HIS225      0.2595
    147  O        -23.0600   12.2690  -18.1700 O.2   225  HIS225     -0.2718
    148  CB       -21.7410   12.4260  -15.2390 C.3   225  HIS225      0.0759
    149  CG       -21.3490   13.6920  -15.9250 C.ar  225  HIS225      0.0818
    150  ND1      -21.9350   14.9030  -15.6310 N.ar  225  HIS225     -0.2268
    151  CD2      -20.4940   13.9260  -16.9490 C.ar  225  HIS225      0.1154
    152  CE1      -21.4320   15.8360  -16.4180 C.ar  225  HIS225      0.1986
    153  NE2      -20.5610   15.2680  -17.2300 N.ar  225  HIS225     -0.2212
    154  N        -22.2830   10.2650  -17.5450 N.am  226  LYS226     -0.1980
    155  CA       -22.0620    9.8350  -18.9200 C.3   226  LYS226      0.1596
    156  C        -23.3830    9.7350  -19.6840 C.2   226  LYS226      0.2287
    157  O        -23.4430   10.0560  -20.8700 O.2   226  LYS226     -0.2864
    158  CB       -21.3110    8.5060  -18.9510 C.3   226  LYS226      0.0298
    159  CG       -19.8110    8.6470  -18.7230 C.3   226  LYS226      0.0038
    160  CD       -19.1190    9.1900  -19.9710 C.3   226  LYS226      0.0206
    161  CE       -17.6060    9.2090  -19.8290 C.3   226  LYS226      0.1093
    162  NZ       -16.9560    9.6630  -21.0930 N.3   226  LYS226     -0.1314
    163  N        -24.2760   13.3190  -20.4890 N.3   229  ASP229     -0.1239
    164  CA       -23.4890   13.7490  -21.6490 C.3   229  ASP229      0.1674
    165  C        -24.0920   13.2560  -22.9580 C.2   229  ASP229      0.2266
    166  O        -24.2170   14.0090  -23.9210 O.2   229  ASP229     -0.2867
    167  CB       -22.0630   13.1920  -21.5730 C.3   229  ASP229      0.1410
    168  CG       -21.1470   14.0000  -20.6760 C.2   229  ASP229      0.3668
    169  OD1      -21.4930   15.1400  -20.3040 O.co2 229  ASP229     -0.2456
    170  OD2      -20.0530   13.4820  -20.3590 O.co2 229  ASP229     -0.2456
    171  N        -17.7560   11.5300  -26.2390 N.3   252  HIS252     -0.1241
    172  CA       -18.3200   12.4900  -27.1850 C.3   252  HIS252      0.1621
    173  C        -18.0330   12.1290  -28.6330 C.2   252  HIS252      0.2264
    174  O        -18.8870   12.3010  -29.4880 O.2   252  HIS252     -0.2867
    175  CB       -17.8040   13.8990  -26.9050 C.3   252  HIS252      0.0745
    176  CG       -18.1110   14.3830  -25.5270 C.ar  252  HIS252      0.0817
    177  ND1      -19.3990   14.5520  -25.0680 N.ar  252  HIS252     -0.2268
    178  CD2      -17.2980   14.7170  -24.4990 C.ar  252  HIS252      0.1154
    179  CE1      -19.3650   14.9770  -23.8180 C.ar  252  HIS252      0.1986
    180  NE2      -18.1020   15.0840  -23.4480 N.ar  252  HIS252     -0.2212
@<TRIPOS>BOND
     1   174   173    2
     2   173   172    1
     3   172   175    1
     4   172   171    1
     5   175   176    1
     6   176   177   ar
     7   176   178   ar
     8   177   179   ar
     9    19    20    1
    10   178   180   ar
    11    29    30    1
    12    36    35   ar
    13   166   165    2
    14    30    33    1
    15    30    31    1
    16   179   180   ar
    17    33    34    1
    18    26    28   ar
    19    26    24   ar
    20    20    21    1
    21    20    23    1
    22    21    22    2
    23    35    34    1
    24    35    37   ar
    25    28    27   ar
    26   165   164    1
    27    23    24    1
    28    24    25   ar
    29    32    31    2
    30    31    38   am
    31    27    25   ar
    32   164   167    1
    33   164   163    1
    34    38    39    1
    35   167   168    1
    36    16    14   ar
    37    16    18   ar
    38    13    14    1
    39    13    10    1
    40    14    15   ar
    41    18    17   ar
    42   162   161    1
    43    82    81    2
    44   157   156    2
    45   168   170   ar
    46   168   169   ar
    47    90    89    2
    48    15    17   ar
    49    40    39    1
    50    40    41    2
    51    39    42    1
    52    11    12    2
    53    11    10    1
    54    80    81    1
    55    80    79    1
    56    80    83    1
    57    81    87   am
    58    10     9    1
    59    89    88    1
    60   160   161    1
    61   160   159    1
    62   156   155    1
    63    85    83    1
    64    84    83    1
    65    84    86    1
    66    96    97    1
    67     9     3   am
    68    42    43    1
    69    45    43   ar
    70    45    47   ar
    71    43    44   ar
    72    87    88    1
    73    88    91    1
    74    47    46   ar
    75   158   155    1
    76   158   159    1
    77   155   154    1
    78    44    46   ar
    79     7     5    1
    80   147   146    2
    81    97    98    1
    82     3     4    2
    83     3     2    1
    84     1     2    1
    85    91    92    1
    86   154   146   am
    87   146   145    1
    88   153   151   ar
    89   153   152   ar
    90    98    99    2
    91     2     5    1
    92     5     6    1
    93   151   149   ar
    94    74    73    2
    95    92    93    1
    96   152   150   ar
    97    53    52    1
    98     6     8    1
    99    65    64   ar
   100    65    63   ar
   101    73    72    1
   102   149   150   ar
   103   149   148    1
   104   145   148    1
   105   145   144    1
   106    64    62   ar
   107    52    49    1
   108    52    54    1
   109    72    71    1
   110    72    75    1
   111    63    61   ar
   112    58    57    2
   113    93    94    1
   114    62    60   ar
   115    49    48    1
   116    49    50    1
   117    61    60   ar
   118    94    95    1
   119   100   101    1
   120    70    67    1
   121    55    50   am
   122    55    56    1
   123    57    66   am
   124    57    56    1
   125    75    77    1
   126    75    76    1
   127    60    59    1
   128    67    66    1
   129    67    68    1
   130    50    51    2
   131    76    78    1
   132   101   102    1
   133    56    59    1
   134    68    69    2
   135   123   122    1
   136   124   122    1
   137   102   103    2
   138   102   104   am
   139   122   119    1
   140   104   105    1
   141   119   118    1
   142   119   120    1
   143   120   121    2
   144   105   108    1
   145   105   106    1
   146   131   129    1
   147   107   106    2
   148   108   109    1
   149   130   129    1
   150   126   129    1
   151   126   125    1
   152   126   127    1
   153   106   110   am
   154   127   128    2
   155   110   111    1
   156   111   112    1
   157   111   114    1
   158   112   113    2
   159   117   115    1
   160   140   138   ar
   161   140   142   ar
   162   143   142    1
   163   138   137   ar
   164   142   141   ar
   165   115   114    1
   166   115   116    1
   167   137   139   ar
   168   137   136    1
   169   141   139   ar
   170   136   133    1
   171   132   133    1
   172   133   134    1
   173   134   135    2
