@<TRIPOS>MOLECULE
tmp/3p3eA00.pdb
 165 157 0 0 0
SMALL
GASTEIGER

@<TRIPOS>ATOM
      1  N        -24.3870   11.2010    2.5230 N.3    18  LEU18      -0.1231
      2  CA       -25.0890   12.0420    1.5630 C.3    18  LEU18       0.1693
      3  C        -26.5930   11.8200    1.6210 C.2    18  LEU18       0.2592
      4  O        -27.3690   12.7670    1.7320 O.2    18  LEU18      -0.2718
      5  CB       -24.6020   11.7380    0.1510 C.3    18  LEU18       0.0284
      6  CG       -25.3950   12.4000   -0.9770 C.3    18  LEU18       0.0019
      7  CD1      -25.3040   13.9150   -0.8870 C.3    18  LEU18       0.0001
      8  CD2      -24.8920   11.9080   -2.3230 C.3    18  LEU18       0.0001
      9  N        -27.0040   10.5620    1.5190 N.am   19  HIS19      -0.1976
     10  CA       -28.4180   10.2210    1.5120 C.3    19  HIS19       0.1656
     11  C        -29.0470   10.5050    2.8700 C.2    19  HIS19       0.2291
     12  O        -30.1070   11.1280    2.9610 O.2    19  HIS19      -0.2864
     13  CB       -28.6130    8.7380    1.1790 C.3    19  HIS19       0.0771
     14  CG       -28.0380    8.3250   -0.1400 C.ar   19  HIS19       0.0820
     15  ND1      -27.7750    9.2160   -1.1570 N.ar   19  HIS19      -0.2267
     16  CD2      -27.6780    7.1060   -0.6070 C.ar   19  HIS19       0.1154
     17  CE1      -27.2760    8.5650   -2.1940 C.ar   19  HIS19       0.1986
     18  NE2      -27.2070    7.2830   -1.8850 N.ar   19  HIS19      -0.2212
     19  N        -28.8450    5.5740   -8.0830 N.3    62  MET62      -0.1245
     20  CA       -27.8960    6.6800   -8.1750 C.3    62  MET62       0.1570
     21  C        -26.6770    6.4510   -7.2850 C.2    62  MET62       0.2261
     22  O        -25.8450    7.3400   -7.1180 O.2    62  MET62      -0.2867
     23  CB       -28.5770    8.0030   -7.8200 C.3    62  MET62       0.0387
     24  CG       -29.7070    8.3770   -8.7690 C.3    62  MET62       0.0595
     25  SD       -29.1910    8.4520  -10.4990 S.3    62  MET62      -0.1393
     26  CE       -28.1690    9.9240  -10.4940 C.3    62  MET62       0.0692
     27  N        -19.1570    3.6870   -3.7600 N.3    77  GLU77      -0.1231
     28  CA       -18.4590    3.8400   -5.0340 C.3    77  GLU77       0.1699
     29  C        -17.2530    4.7840   -5.0260 C.2    77  GLU77       0.2592
     30  O        -16.2790    4.5260   -5.7200 O.2    77  GLU77      -0.2718
     31  CB       -19.4360    4.2490   -6.1430 C.3    77  GLU77       0.0402
     32  CG       -20.1630    5.5650   -5.9040 C.3    77  GLU77       0.1161
     33  CD       -21.5370    5.3970   -5.2710 C.2    77  GLU77       0.3649
     34  OE1      -21.7850    4.3660   -4.6150 O.co2  77  GLU77      -0.2457
     35  OE2      -22.3780    6.3050   -5.4290 O.co2  77  GLU77      -0.2457
     36  N        -17.3020    5.8750   -4.2680 N.am   78  HIS78      -0.1976
     37  CA       -16.1980    6.8300   -4.3070 C.3    78  HIS78       0.1656
     38  C        -14.9870    6.3110   -3.5320 C.2    78  HIS78       0.2291
     39  O        -13.8480    6.4520   -3.9750 O.2    78  HIS78      -0.2864
     40  CB       -16.6470    8.2040   -3.8020 C.3    78  HIS78       0.0771
     41  CG       -17.8020    8.7750   -4.5700 C.ar   78  HIS78       0.0820
     42  ND1      -18.5820    9.8030   -4.0920 N.ar   78  HIS78      -0.2267
     43  CD2      -18.3090    8.4560   -5.7860 C.ar   78  HIS78       0.1154
     44  CE1      -19.5240   10.0910   -4.9750 C.ar   78  HIS78       0.1986
     45  NE2      -19.3800    9.2880   -6.0140 N.ar   78  HIS78      -0.2212
     46  N        -19.0610   14.6170   -7.2540 N.3   190  THR190     -0.1203
     47  CA       -20.3950   14.2320   -7.6590 C.3   190  THR190      0.1994
     48  C        -21.1800   15.4810   -8.0460 C.2   190  THR190      0.2618
     49  O        -20.8340   16.5980   -7.6530 O.2   190  THR190     -0.2717
     50  CB       -21.1280   13.4910   -6.5330 C.3   190  THR190      0.1784
     51  OG1      -22.3440   12.9360   -7.0420 O.3   190  THR190     -0.2211
     52  CG2      -21.4450   14.4270   -5.3770 C.3   190  THR190      0.0376
     53  N        -22.2320   15.2870   -8.8290 N.am  191  PHE191     -0.1961
     54  CA       -23.0500   16.3970   -9.2880 C.3   191  PHE191      0.1771
     55  C        -24.5100   16.0000   -9.3020 C.2   191  PHE191      0.2620
     56  O        -24.8480   14.8210   -9.3840 O.2   191  PHE191     -0.2715
     57  CB       -22.6160   16.8650  -10.6800 C.3   191  PHE191      0.0574
     58  CG       -22.7840   15.8310  -11.7610 C.ar  191  PHE191     -0.0200
     59  CD1      -21.7740   14.9210  -12.0290 C.ar  191  PHE191     -0.0042
     60  CD2      -23.9400   15.7830  -12.5230 C.ar  191  PHE191     -0.0042
     61  CE1      -21.9170   13.9790  -13.0300 C.ar  191  PHE191     -0.0003
     62  CE2      -24.0890   14.8410  -13.5260 C.ar  191  PHE191     -0.0003
     63  CZ       -23.0770   13.9400  -13.7790 C.ar  191  PHE191     -0.0000
     64  N        -25.3740   16.9980   -9.2100 N.am  192  GLY192     -0.1954
     65  CA       -26.7960   16.7660   -9.2530 C.3   192  GLY192      0.1869
     66  C        -27.5070   17.9590   -9.8420 C.2   192  GLY192      0.2309
     67  O        -27.0560   19.1000   -9.7140 O.2   192  GLY192     -0.2863
     68  N        -32.3470   17.1250   -7.0000 N.3   197  ILE197     -0.1245
     69  CA       -31.9860   17.3110   -5.6060 C.3   197  ILE197      0.1561
     70  C        -33.2020   17.7690   -4.8090 C.2   197  ILE197      0.2260
     71  O        -33.4340   17.3000   -3.7000 O.2   197  ILE197     -0.2867
     72  CB       -30.8430   18.3290   -5.4530 C.3   197  ILE197      0.0252
     73  CG1      -29.5590   17.7710   -6.0720 C.3   197  ILE197      0.0019
     74  CG2      -30.6120   18.6570   -3.9880 C.3   197  ILE197      0.0019
     75  CD1      -28.4500   18.7920   -6.1900 C.3   197  ILE197      0.0001
     76  N        -35.4550   14.8220   -4.1010 N.3   200  LEU200     -0.1231
     77  CA       -34.9200   14.0060   -3.0220 C.3   200  LEU200      0.1693
     78  C        -35.1580   14.6740   -1.6690 C.2   200  LEU200      0.2591
     79  O        -35.6930   14.0580   -0.7490 O.2   200  LEU200     -0.2718
     80  CB       -33.4280   13.7440   -3.2360 C.3   200  LEU200      0.0284
     81  CG       -33.0850   12.8330   -4.4180 C.3   200  LEU200      0.0019
     82  CD1      -31.5980   12.8860   -4.7320 C.3   200  LEU200      0.0001
     83  CD2      -33.5300   11.4030   -4.1450 C.3   200  LEU200      0.0001
     84  N        -34.7740   15.9380   -1.5460 N.am  201  ARG201     -0.1980
     85  CA       -34.8980   16.6400   -0.2770 C.3   201  ARG201      0.1597
     86  C        -36.3540   16.7510    0.1580 C.2   201  ARG201      0.2287
     87  O        -36.6460   16.7350    1.3480 O.2   201  ARG201     -0.2864
     88  CB       -34.2530   18.0250   -0.3570 C.3   201  ARG201      0.0334
     89  CG       -32.7450   17.9700   -0.5350 C.3   201  ARG201      0.0492
     90  CD       -32.1110   19.3470   -0.5420 C.3   201  ARG201      0.2205
     91  NE       -32.1270   19.9670    0.7800 N.pl3 201  ARG201     -0.0865
     92  CZ       -31.2550   19.6960    1.7460 C.cat 201  ARG201      0.5346
     93  NH1      -31.3480   20.3130    2.9130 N.pl3 201  ARG201      0.1354
     94  NH2      -30.2910   18.8070    1.5490 N.pl3 201  ARG201      0.1354
     95  N        -31.2220   12.8470    0.5500 N.3   206  ALA206     -0.1245
     96  CA       -30.0960   13.7180    0.2170 C.3   206  ALA206      0.1562
     97  C        -29.8230   14.7170    1.3350 C.2   206  ALA206      0.2260
     98  O        -29.4020   15.8460    1.0810 O.2   206  ALA206     -0.2867
     99  CB       -30.3580   14.4520   -1.0900 C.3   206  ALA206      0.0290
    100  N        -26.3480   16.4090    1.5890 N.3   209  GLY209     -0.1210
    101  CA       -25.8860   17.2080    0.4710 C.3   209  GLY209      0.1956
    102  C        -25.7760   18.6820    0.7980 C.2   209  GLY209      0.2613
    103  O        -26.5650   19.2300    1.5700 O.2   209  GLY209     -0.2717
    104  N        -24.7740   19.3180    0.2030 N.am  210  SER210     -0.1938
    105  CA       -24.5770   20.7530    0.3110 C.3   210  SER210      0.2055
    106  C        -23.7330   21.2070   -0.8710 C.2   210  SER210      0.2642
    107  O        -23.1750   20.3870   -1.5960 O.2   210  SER210     -0.2714
    108  CB       -23.8770   21.1030    1.6240 C.3   210  SER210      0.2130
    109  OG       -22.5250   20.6860    1.6050 O.3   210  SER210     -0.2179
    110  N        -23.6360   22.5150   -1.0760 N.am  211  VAL211     -0.1977
    111  CA       -22.7720   23.0230   -2.1310 C.3   211  VAL211      0.1596
    112  C        -21.3130   22.7410   -1.7830 C.2   211  VAL211      0.2287
    113  O        -20.4270   22.8820   -2.6270 O.2   211  VAL211     -0.2864
    114  CB       -22.9690   24.5340   -2.3630 C.3   211  VAL211      0.0276
    115  CG1      -24.3950   24.8160   -2.8110 C.3   211  VAL211      0.0022
    116  CG2      -22.6280   25.3190   -1.1070 C.3   211  VAL211      0.0022
    117  N        -20.9420   18.8080   -3.3190 N.3   214  ALA214     -0.1245
    118  CA       -21.5240   18.4300   -4.5960 C.3   214  ALA214      0.1562
    119  C        -21.5500   19.6120   -5.5470 C.2   214  ALA214      0.2260
    120  O        -21.7090   20.7570   -5.1260 O.2   214  ALA214     -0.2867
    121  CB       -22.9320   17.9050   -4.3960 C.3   214  ALA214      0.0290
    122  N        -23.7460   21.5180   -7.9780 N.3   216  VAL216     -0.1245
    123  CA       -25.1620   21.6900   -8.2380 C.3   216  VAL216      0.1561
    124  C        -25.3120   22.4650   -9.5360 C.2   216  VAL216      0.2260
    125  O        -24.6990   23.5120   -9.7000 O.2   216  VAL216     -0.2867
    126  CB       -25.8470   22.4650   -7.0950 C.3   216  VAL216      0.0252
    127  CG1      -27.3360   22.6090   -7.3640 C.3   216  VAL216      0.0019
    128  CG2      -25.5990   21.7720   -5.7610 C.3   216  VAL216      0.0019
    129  N        -16.2440   12.5780  -13.2460 N.3   237  HIS237     -0.1226
    130  CA       -16.8810   11.9290  -12.1120 C.3   237  HIS237      0.1752
    131  C        -17.5540   10.6210  -12.5210 C.2   237  HIS237      0.2595
    132  O        -17.5530    9.6560  -11.7580 O.2   237  HIS237     -0.2718
    133  CB       -17.8980   12.7980  -11.3780 C.3   237  HIS237      0.0759
    134  CG       -18.3920   12.1350  -10.1330 C.ar  237  HIS237      0.0818
    135  ND1      -17.6820   12.1630   -8.9530 N.ar  237  HIS237     -0.2268
    136  CD2      -19.4630   11.3380   -9.9080 C.ar  237  HIS237      0.1154
    137  CE1      -18.3180   11.4490   -8.0410 C.ar  237  HIS237      0.1986
    138  NE2      -19.3970   10.9270   -8.5970 N.ar  237  HIS237     -0.2212
    139  N        -18.1460   10.5830  -13.7120 N.am  238  LYS238     -0.1980
    140  CA       -18.7480    9.3450  -14.2010 C.3   238  LYS238      0.1596
    141  C        -17.6860    8.2550  -14.3250 C.2   238  LYS238      0.2287
    142  O        -17.9400    7.0890  -14.0320 O.2   238  LYS238     -0.2864
    143  CB       -19.4430    9.5710  -15.5450 C.3   238  LYS238      0.0298
    144  CG       -20.6060   10.5410  -15.4780 C.3   238  LYS238      0.0038
    145  CD       -21.7370   10.0250  -14.6070 C.3   238  LYS238      0.0206
    146  CE       -22.4350    8.8280  -15.2240 C.3   238  LYS238      0.1093
    147  NZ       -23.6340    8.4470  -14.4330 N.3   238  LYS238     -0.1314
    148  N        -16.8720    7.0600  -10.8510 N.3   241  ASP241     -0.1239
    149  CA       -17.9390    6.1610  -10.4260 C.3   241  ASP241      0.1674
    150  C        -17.7560    4.7700  -11.0420 C.2   241  ASP241      0.2266
    151  O        -17.9080    3.7530  -10.3590 O.2   241  ASP241     -0.2867
    152  CB       -19.3190    6.7360  -10.7950 C.3   241  ASP241      0.1410
    153  CG       -19.8490    7.7420   -9.7500 C.2   241  ASP241      0.3668
    154  OD1      -19.3580    7.7630   -8.6160 O.co2 241  ASP241     -0.2456
    155  OD2      -20.7730    8.5320  -10.0230 O.co2 241  ASP241     -0.2456
    156  N        -24.8350    3.3650  -12.0250 N.3   264  HIS264     -0.1241
    157  CA       -24.4490    2.2620  -11.1570 C.3   264  HIS264      0.1621
    158  C        -25.2240    0.9720  -11.4170 C.2   264  HIS264      0.2264
    159  O        -24.6650   -0.1150  -11.3070 O.2   264  HIS264     -0.2867
    160  CB       -24.5550    2.6940   -9.6950 C.3   264  HIS264      0.0745
    161  CG       -23.5800    3.7680   -9.3330 C.ar  264  HIS264      0.0817
    162  ND1      -22.2200    3.5720   -9.3880 N.ar  264  HIS264     -0.2268
    163  CD2      -23.7560    5.0510   -8.9460 C.ar  264  HIS264      0.1154
    164  CE1      -21.5950    4.6770   -9.0370 C.ar  264  HIS264      0.1986
    165  NE2      -22.5060    5.5910   -8.7640 N.ar  264  HIS264     -0.2212
@<TRIPOS>BOND
     1   143   144    1
     2   143   140    1
     3   144   145    1
     4   146   145    1
     5   146   147    1
     6   141   140    1
     7   141   142    2
     8   140   139    1
     9    63    62   ar
    10    63    61   ar
    11   139   131   am
    12    62    60   ar
    13   129   130    1
    14    61    59   ar
    15    60    58   ar
    16   131   130    1
    17   131   132    2
    18   130   133    1
    19    59    58   ar
    20   156   157    1
    21    58    57    1
    22   158   159    2
    23   158   157    1
    24   133   134    1
    25   157   160    1
    26   150   149    1
    27   150   151    2
    28   148   149    1
    29   152   149    1
    30   152   153    1
    31    57    54    1
    32    25    26    1
    33    25    24    1
    34   134   136   ar
    35   134   135   ar
    36   155   153   ar
    37   136   138   ar
    38    66    67    2
    39    66    65    1
    40   153   154   ar
    41   125   124    2
    42   160   161    1
    43   124   123    1
    44   162   161   ar
    45   162   164   ar
    46    56    55    2
    47   161   163   ar
    48    55    54    1
    49    55    64   am
    50    54    53    1
    51    65    64    1
    52   164   165   ar
    53   135   137   ar
    54   163   165   ar
    55    53    48   am
    56    24    23    1
    57   138   137   ar
    58   123   122    1
    59   123   126    1
    60    20    19    1
    61    20    23    1
    62    20    21    1
    63    48    47    1
    64    48    49    2
    65    47    46    1
    66    47    50    1
    67   127   126    1
    68    21    22    2
    69   126   128    1
    70    51    50    1
    71    68    69    1
    72    50    52    1
    73    75    73    1
    74    31    32    1
    75    31    28    1
    76    73    72    1
    77    45    43   ar
    78    45    44   ar
    79    32    33    1
    80    43    41   ar
    81    30    29    2
    82    69    72    1
    83    69    70    1
    84   119   120    2
    85   119   118    1
    86    72    74    1
    87    35    33   ar
    88    33    34   ar
    89    28    29    1
    90    28    27    1
    91    29    36   am
    92    44    42   ar
    93    70    71    2
    94    82    81    1
    95   118   121    1
    96   118   117    1
    97    41    42   ar
    98    41    40    1
    99    81    83    1
   100    81    80    1
   101    37    36    1
   102    37    40    1
   103    37    38    1
   104    76    77    1
   105    39    38    2
   106    80    77    1
   107    77    78    1
   108   115   114    1
   109   113   112    2
   110   114   111    1
   111   114   116    1
   112     8     6    1
   113    17    18   ar
   114    17    15   ar
   115   111   112    1
   116   111   110    1
   117    18    16   ar
   118    78    84   am
   119    78    79    2
   120   107   106    2
   121    84    85    1
   122    15    14   ar
   123    99    96    1
   124   110   106   am
   125     6     7    1
   126     6     5    1
   127   106   105    1
   128    16    14   ar
   129    90    89    1
   130    90    91    1
   131    89    88    1
   132    88    85    1
   133    85    86    1
   134    14    13    1
   135     5     2    1
   136    86    87    2
   137   104   105    1
   138   104   102   am
   139    96    95    1
   140    96    97    1
   141   105   108    1
   142   101   102    1
   143   101   100    1
   144    91    92    2
   145   102   103    2
   146    98    97    2
   147    13    10    1
   148    10     9    1
   149    10    11    1
   150     9     3   am
   151    94    92    1
   152     2     3    1
   153     2     1    1
   154   109   108    1
   155     3     4    2
   156    92    93    1
   157    11    12    2
