@<TRIPOS>MOLECULE
tmp/3p3jA00.pdb
 158 155 0 0 0
SMALL
GASTEIGER

@<TRIPOS>ATOM
      1  N         29.4250    1.4130   10.3530 N.3     2  TRP2       -0.1241
      2  CA        28.7670    0.4200   11.2010 C.3     2  TRP2        0.1605
      3  C         27.7450   -0.4570   10.4850 C.2     2  TRP2        0.2264
      4  O         27.1380   -0.0490    9.4920 O.2     2  TRP2       -0.2867
      5  CB        28.0900    1.0960   12.3970 C.3     2  TRP2        0.0550
      6  CG        26.8640    1.8830   12.0500 C.ar    2  TRP2        0.0003
      7  CD1       26.8070    3.1930   11.6640 C.ar    2  TRP2        0.0946
      8  CD2       25.5120    1.4110   12.0730 C.ar    2  TRP2        0.0152
      9  NE1       25.5000    3.5670   11.4510 N.ar    2  TRP2       -0.2442
     10  CE2       24.6850    2.4920   11.6940 C.ar    2  TRP2        0.0810
     11  CE3       24.9170    0.1770   12.3760 C.ar    2  TRP2        0.0012
     12  CZ2       23.2930    2.3790   11.6130 C.ar    2  TRP2        0.0191
     13  CZ3       23.5320    0.0640   12.2940 C.ar    2  TRP2        0.0001
     14  CH2       22.7370    1.1620   11.9160 C.ar    2  TRP2        0.0015
     15  N         12.8240    2.2060    5.8240 N.3    64  ASN64      -0.1240
     16  CA        11.9940    3.1520    6.5610 C.3    64  ASN64       0.1653
     17  C         10.7810    3.6200    5.7740 C.2    64  ASN64       0.2266
     18  O         10.8940    3.9740    4.6010 O.2    64  ASN64      -0.2867
     19  CB        12.7900    4.4170    6.9150 C.3    64  ASN64       0.1155
     20  CG        13.9470    4.1580    7.8560 C.2    64  ASN64       0.2627
     21  OD1       14.8050    5.0230    8.0390 O.2    64  ASN64      -0.2716
     22  ND2       13.9760    2.9840    8.4650 N.am   64  ASN64      -0.0877
     23  N          7.1910   10.0300   12.7720 N.3    88  ILE88      -0.1231
     24  CA         8.0620   10.4550   11.6810 C.3    88  ILE88       0.1692
     25  C          8.3650    9.2910   10.7310 C.2    88  ILE88       0.2591
     26  O          8.4440    9.4780    9.5170 O.2    88  ILE88      -0.2718
     27  CB         9.3790   11.0930   12.2230 C.3    88  ILE88       0.0266
     28  CG1       10.3110   11.4400   11.0590 C.3    88  ILE88       0.0019
     29  CG2       10.0540   10.1650   13.2180 C.3    88  ILE88       0.0020
     30  CD1       11.5620   12.2030   11.4770 C.3    88  ILE88       0.0001
     31  N          8.4970    8.0810   11.2710 N.am   89  GLN89      -0.1979
     32  CA         8.7750    6.9130   10.4350 C.3    89  GLN89       0.1601
     33  C          8.6220    5.6200   11.2140 C.2    89  GLN89       0.2287
     34  O          8.5030    5.6330   12.4370 O.2    89  GLN89      -0.2864
     35  CB        10.2110    6.9710    9.8910 C.3    89  GLN89       0.0394
     36  CG        11.2960    6.9640   10.9780 C.3    89  GLN89       0.0908
     37  CD        12.0250    5.6310   11.1010 C.2    89  GLN89       0.2608
     38  OE1       11.4070    4.5810   11.2650 O.2    89  GLN89      -0.2717
     39  NE2       13.3510    5.6760   11.0260 N.am   89  GLN89      -0.0878
     40  N          9.9990    1.2660   10.9630 N.3    91  HIS91      -0.1241
     41  CA        10.8860    0.3080   10.3220 C.3    91  HIS91       0.1621
     42  C         10.8480   -0.9590   11.1510 C.2    91  HIS91       0.2264
     43  O         10.2110   -1.0010   12.2020 O.2    91  HIS91      -0.2867
     44  CB        12.3220    0.8310   10.2840 C.3    91  HIS91       0.0745
     45  CG        12.8920    1.0930   11.6410 C.ar   91  HIS91       0.0817
     46  ND1       12.6900    2.2800   12.3130 N.ar   91  HIS91      -0.2268
     47  CD2       13.5760    0.2900   12.4880 C.ar   91  HIS91       0.1154
     48  CE1       13.2200    2.1940   13.5200 C.ar   91  HIS91       0.1986
     49  NE2       13.7620    0.9950   13.6500 N.ar   91  HIS91      -0.2212
     50  N         13.1450   -4.7650   12.4160 N.3    93  HIS93      -0.1241
     51  CA        14.4040   -5.4540   12.6810 C.3    93  HIS93       0.1621
     52  C         13.9580   -6.9060   12.5730 C.2    93  HIS93       0.2264
     53  O         12.9190   -7.2650   13.1200 O.2    93  HIS93      -0.2867
     54  CB        14.9000   -5.1780   14.0960 C.3    93  HIS93       0.0745
     55  CG        15.2580   -3.7470   14.3380 C.ar   93  HIS93       0.0817
     56  ND1       16.5250   -3.2460   14.1190 N.ar   93  HIS93      -0.2268
     57  CD2       14.5050   -2.7030   14.7490 C.ar   93  HIS93       0.1154
     58  CE1       16.5330   -1.9520   14.3870 C.ar   93  HIS93       0.1986
     59  NE2       15.3200   -1.5990   14.7700 N.ar   93  HIS93      -0.2212
     60  N          9.1340   -0.8740   14.8540 N.3   116  HIS116     -0.1241
     61  CA         9.3950    0.3330   15.6260 C.3   116  HIS116      0.1621
     62  C          8.7490    1.5420   14.9660 C.2   116  HIS116      0.2264
     63  O          9.1070    1.9160   13.8460 O.2   116  HIS116     -0.2867
     64  CB        10.9010    0.5790   15.7430 C.3   116  HIS116      0.0745
     65  CG        11.6050   -0.3850   16.6470 C.ar  116  HIS116      0.0817
     66  ND1       12.9730   -0.5470   16.6400 N.ar  116  HIS116     -0.2268
     67  CD2       11.1340   -1.2120   17.6080 C.ar  116  HIS116      0.1154
     68  CE1       13.3150   -1.4320   17.5580 C.ar  116  HIS116      0.1986
     69  NE2       12.2170   -1.8510   18.1610 N.ar  116  HIS116     -0.2212
     70  N          8.5220    5.2990   15.2520 N.3   118  VAL118     -0.1245
     71  CA         9.2800    6.3920   15.8550 C.3   118  VAL118      0.1561
     72  C          8.5340    7.7230   15.9070 C.2   118  VAL118      0.2260
     73  O          7.9980    8.1800   14.8950 O.2   118  VAL118     -0.2867
     74  CB        10.6130    6.5810   15.0900 C.3   118  VAL118      0.0252
     75  CG1       11.5100    7.5770   15.8130 C.3   118  VAL118      0.0019
     76  CG2       11.3190    5.2360   14.9470 C.3   118  VAL118      0.0019
     77  N         13.0510   16.9510   14.8260 N.3   127  PHE127     -0.1241
     78  CA        13.6470   15.6730   15.1910 C.3   127  PHE127      0.1605
     79  C         15.0980   15.7890   15.6570 C.2   127  PHE127      0.2264
     80  O         15.4850   15.1720   16.6520 O.2   127  PHE127     -0.2867
     81  CB        13.5650   14.7150   13.9990 C.3   127  PHE127      0.0534
     82  CG        14.0730   13.3380   14.2930 C.ar  127  PHE127     -0.0203
     83  CD1       13.2700   12.4100   14.9440 C.ar  127  PHE127     -0.0042
     84  CD2       15.3690   12.9720   13.9390 C.ar  127  PHE127     -0.0042
     85  CE1       13.7470   11.1370   15.2380 C.ar  127  PHE127     -0.0003
     86  CE2       15.8530   11.7010   14.2320 C.ar  127  PHE127     -0.0003
     87  CZ        15.0390   10.7830   14.8820 C.ar  127  PHE127     -0.0000
     88  N         16.3790   14.4600   19.5450 N.3   131  VAL131     -0.1245
     89  CA        17.2990   13.3740   19.8900 C.3   131  VAL131      0.1561
     90  C         18.3890   13.7890   20.8750 C.2   131  VAL131      0.2260
     91  O         19.1240   12.9470   21.3860 O.2   131  VAL131     -0.2867
     92  CB        17.9540   12.7390   18.6250 C.3   131  VAL131      0.0252
     93  CG1       16.8780   12.1390   17.7320 C.3   131  VAL131      0.0019
     94  CG2       18.7620   13.7730   17.8600 C.3   131  VAL131      0.0019
     95  N          9.3450    5.5790   21.1360 N.3   139  VAL139     -0.1245
     96  CA         9.2730    4.5670   20.1000 C.3   139  VAL139      0.1561
     97  C          8.3320    3.4800   20.5730 C.2   139  VAL139      0.2260
     98  O          8.4710    2.9590   21.6800 O.2   139  VAL139     -0.2867
     99  CB        10.6560    3.9530   19.7820 C.3   139  VAL139      0.0252
    100  CG1       10.5190    2.9420   18.6570 C.3   139  VAL139      0.0019
    101  CG2       11.6350    5.0520   19.3770 C.3   139  VAL139      0.0019
    102  N         18.4310    4.8920   21.3000 N.3   194  LEU194     -0.1231
    103  CA        18.2470    4.4630   19.9200 C.3   194  LEU194      0.1693
    104  C         19.0010    3.1370   19.9250 C.2   194  LEU194      0.2593
    105  O         20.0120    3.0050   20.6280 O.2   194  LEU194     -0.2718
    106  CB        18.9430    5.4220   18.9550 C.3   194  LEU194      0.0284
    107  CG        18.4710    6.8730   18.9350 C.3   194  LEU194      0.0019
    108  CD1       19.3610    7.6800   17.9910 C.3   194  LEU194      0.0001
    109  CD2       17.0180    6.9340   18.4950 C.3   194  LEU194      0.0001
    110  N         18.5360    2.1590   19.1550 N.am  195  THR195     -0.1939
    111  CA        19.2120    0.8620   19.1190 C.3   195  THR195      0.2028
    112  C         20.2700    0.7640   18.0170 C.2   195  THR195      0.2643
    113  O         20.8840   -0.2900   17.8270 O.2   195  THR195     -0.2714
    114  CB        18.2120   -0.3000   18.9490 C.3   195  THR195      0.1808
    115  OG1       17.5890   -0.2150   17.6610 O.3   195  THR195     -0.2208
    116  CG2       17.1470   -0.2530   20.0400 C.3   195  THR195      0.0379
    117  N         20.4680    1.8530   17.2800 N.am  196  THR196     -0.1937
    118  CA        21.4850    1.8910   16.2320 C.3   196  THR196      0.2013
    119  C         22.3200    3.1400   16.4430 C.2   196  THR196      0.2484
    120  O         21.8620    4.1070   17.0500 O.2   196  THR196     -0.2729
    121  CB        20.8890    2.0070   14.8150 C.3   196  THR196      0.1807
    122  OG1       20.2860    3.2990   14.6580 O.3   196  THR196     -0.2208
    123  CG2       19.8570    0.9260   14.5680 C.3   196  THR196      0.0379
    124  N         23.5680    3.1310   15.9600 N.am  197  PRO197     -0.2715
    125  CA        24.3920    4.3270   16.1350 C.3   197  PRO197      0.1521
    126  C         23.5970    5.5120   15.5760 C.2   197  PRO197      0.2440
    127  O         22.8630    5.3610   14.5920 O.2   197  PRO197     -0.2731
    128  CB        25.6290    4.0000   15.3100 C.3   197  PRO197      0.0310
    129  CG        25.7780    2.5090   15.5390 C.3   197  PRO197      0.0237
    130  CD        24.3530    2.0020   15.4230 C.3   197  PRO197      0.0939
    131  N         23.7470    6.7080   16.1680 N.am  198  PRO198     -0.2727
    132  CA        24.5840    7.0980   17.3090 C.3   198  PRO198      0.1402
    133  C         24.2030    6.6230   18.7140 C.2   198  PRO198      0.2269
    134  O         24.8250    7.0470   19.6880 O.2   198  PRO198     -0.2865
    135  CB        24.5980    8.6170   17.2060 C.3   198  PRO198      0.0296
    136  CG        23.2130    8.9070   16.7300 C.3   198  PRO198      0.0237
    137  CD        23.0390    7.8840   15.6280 C.3   198  PRO198      0.0939
    138  N         15.2700    8.1080   24.2190 N.3   203  VAL203     -0.1245
    139  CA        14.0150    7.4060   23.9830 C.3   203  VAL203      0.1561
    140  C         13.2210    6.8590   25.1550 C.2   203  VAL203      0.2260
    141  O         13.7710    6.2540   26.0730 O.2   203  VAL203     -0.2867
    142  CB        14.2400    6.1990   23.0220 C.3   203  VAL203      0.0252
    143  CG1       12.8950    5.5620   22.6510 C.3   203  VAL203      0.0019
    144  CG2       14.9840    6.6410   21.7740 C.3   203  VAL203      0.0019
    145  N         10.8070    4.1170   25.7290 N.3   205  TRP205     -0.1241
    146  CA        10.3290    2.9320   25.0380 C.3   205  TRP205      0.1605
    147  C          8.9770    2.4610   25.5450 C.2   205  TRP205      0.2264
    148  O          8.7400    2.3940   26.7490 O.2   205  TRP205     -0.2867
    149  CB        11.3360    1.7810   25.1660 C.3   205  TRP205      0.0550
    150  CG        12.4530    1.8780   24.1880 C.ar  205  TRP205      0.0003
    151  CD1       13.6770    2.4550   24.3840 C.ar  205  TRP205      0.0946
    152  CD2       12.4220    1.4590   22.8210 C.ar  205  TRP205      0.0152
    153  NE1       14.4050    2.4260   23.2190 N.ar  205  TRP205     -0.2442
    154  CE2       13.6570    1.8190   22.2440 C.ar  205  TRP205      0.0810
    155  CE3       11.4650    0.8140   22.0240 C.ar  205  TRP205      0.0012
    156  CZ2       13.9620    1.5580   20.9070 C.ar  205  TRP205      0.0191
    157  CZ3       11.7660    0.5560   20.7000 C.ar  205  TRP205      0.0001
    158  CH2       13.0040    0.9260   20.1520 C.ar  205  TRP205      0.0015
@<TRIPOS>BOND
     1    18    17    2
     2    17    16    1
     3    15    16    1
     4    16    19    1
     5    19    20    1
     6    20    21    2
     7    20    22   am
     8     4     3    2
     9    26    25    2
    10    35    32    1
    11    35    36    1
    12    44    41    1
    13    44    45    1
    14    41    40    1
    15    41    42    1
    16     1     2    1
    17    32    33    1
    18    32    31    1
    19     3     2    1
    20    25    31   am
    21    25    24    1
    22    36    37    1
    23    39    37   am
    24    28    30    1
    25    28    27    1
    26    37    38    2
    27    42    43    2
    28     2     5    1
    29    33    34    2
    30     9     7   ar
    31     9    10   ar
    32    12    10   ar
    33    12    14   ar
    34    45    46   ar
    35    45    47   ar
    36     7     6   ar
    37    24    27    1
    38    24    23    1
    39    10     8   ar
    40    14    13   ar
    41     6     8   ar
    42     6     5    1
    43     8    11   ar
    44    27    29    1
    45    13    11   ar
    46    46    48   ar
    47    50    51    1
    48    47    49   ar
    49    52    51    1
    50    52    53    2
    51    51    54    1
    52    48    49   ar
    53    63    62    2
    54    84    86   ar
    55    84    82   ar
    56    81    82    1
    57    81    78    1
    58    54    55    1
    59    56    55   ar
    60    56    58   ar
    61    86    87   ar
    62    82    83   ar
    63    55    57   ar
    64    58    59   ar
    65   123   121    1
    66   127   126    2
    67   122   121    1
    68    57    59   ar
    69   121   118    1
    70    77    78    1
    71    60    61    1
    72    87    85   ar
    73    73    72    2
    74    83    85   ar
    75    76    74    1
    76    62    61    1
    77    74    75    1
    78    74    71    1
    79    78    79    1
    80    70    71    1
    81   128   129    1
    82   128   125    1
    83   130   129    1
    84   130   124    1
    85   126   125    1
    86   126   131   am
    87    61    64    1
    88   137   131    1
    89   137   136    1
    90    79    80    2
    91    64    65    1
    92    71    72    1
    93   124   125    1
    94   124   119   am
    95   131   132    1
    96   118   119    1
    97   118   117    1
    98   119   120    2
    99    66    65   ar
   100    66    68   ar
   101    65    67   ar
   102   136   135    1
   103   135   132    1
   104   117   112   am
   105   132   133    1
   106    68    69   ar
   107    67    69   ar
   108   115   114    1
   109    93    92    1
   110   113   112    2
   111    94    92    1
   112   108   107    1
   113   112   111    1
   114   109   107    1
   115    92    89    1
   116   100    99    1
   117   133   134    2
   118   107   106    1
   119   114   111    1
   120   114   116    1
   121   106   103    1
   122   111   110    1
   123   110   104   am
   124   101    99    1
   125    88    89    1
   126    99    96    1
   127    89    90    1
   128   103   104    1
   129   103   102    1
   130   104   105    2
   131    96    97    1
   132    96    95    1
   133   158   157   ar
   134   158   156   ar
   135    97    98    2
   136   157   155   ar
   137    90    91    2
   138   156   154   ar
   139   144   142    1
   140   155   152   ar
   141   154   152   ar
   142   154   153   ar
   143   143   142    1
   144   152   150   ar
   145   142   139    1
   146   153   151   ar
   147   139   138    1
   148   139   140    1
   149   150   151   ar
   150   150   149    1
   151   146   149    1
   152   146   147    1
   153   146   145    1
   154   140   141    2
   155   147   148    2
