@<TRIPOS>MOLECULE
tmp/3p3nA00.pdb
 261 247 0 0 0
SMALL
GASTEIGER

@<TRIPOS>ATOM
      1  N         19.4570   30.3340   37.3210 N.3    94  TYR94      -0.1241
      2  CA        20.4670   29.4230   37.8450 C.3    94  TYR94       0.1605
      3  C         21.3950   30.1460   38.8310 C.2    94  TYR94       0.2264
      4  O         21.8320   31.2860   38.5830 O.2    94  TYR94      -0.2867
      5  CB        21.3090   28.8540   36.6890 C.3    94  TYR94       0.0534
      6  CG        22.6430   28.2510   37.1130 C.ar   94  TYR94      -0.0201
      7  CD1       22.7080   27.0290   37.7920 C.ar   94  TYR94      -0.0009
      8  CD2       23.8460   28.9240   36.8590 C.ar   94  TYR94      -0.0009
      9  CE1       23.9450   26.4900   38.2110 C.ar   94  TYR94       0.0417
     10  CE2       25.0810   28.3950   37.2730 C.ar   94  TYR94       0.0417
     11  CZ        25.1250   27.1780   37.9470 C.ar   94  TYR94       0.1957
     12  OH        26.3500   26.6470   38.3280 O.3    94  TYR94      -0.2866
     13  N         24.8380   29.2320   41.4840 N.3    96  ASP96      -0.1239
     14  CA        25.8970   28.3240   41.9230 C.3    96  ASP96       0.1674
     15  C         25.8530   28.2950   43.4460 C.2    96  ASP96       0.2266
     16  O         26.1060   29.3070   44.1050 O.2    96  ASP96      -0.2867
     17  CB        27.2480   28.8660   41.4480 C.3    96  ASP96       0.1410
     18  CG        28.4090   27.9950   41.8600 C.2    96  ASP96       0.3668
     19  OD1       28.2520   27.2550   42.8570 O.co2  96  ASP96      -0.2456
     20  OD2       29.4730   28.0590   41.1960 O.co2  96  ASP96      -0.2456
     21  N         28.8840   29.2840   45.6320 N.3    99  LYS99      -0.1245
     22  CA        29.0730   30.7140   45.8030 C.3    99  LYS99       0.1561
     23  C         28.0670   31.3600   46.7330 C.2    99  LYS99       0.2260
     24  O         28.1370   32.5520   46.9720 O.2    99  LYS99      -0.2867
     25  CB        29.0380   31.4190   44.4450 C.3    99  LYS99       0.0271
     26  CG        30.2710   31.1970   43.6530 C.3    99  LYS99       0.0035
     27  CD        30.1970   31.7570   42.2730 C.3    99  LYS99       0.0206
     28  CE        31.4950   31.4330   41.5430 C.3    99  LYS99       0.1093
     29  NZ        31.5200   31.7020   40.0770 N.3    99  LYS99      -0.1314
     30  N         16.8610   18.8580   35.4850 N.3   139  GLN139     -0.1245
     31  CA        18.1190   19.0900   34.7890 C.3   139  GLN139      0.1566
     32  C         19.1070   18.1620   35.4400 C.2   139  GLN139      0.2260
     33  O         19.4830   18.3620   36.5930 O.2   139  GLN139     -0.2867
     34  CB        18.5550   20.5490   34.9610 C.3   139  GLN139      0.0367
     35  CG        17.4820   21.5240   34.5300 C.3   139  GLN139      0.0905
     36  CD        17.9330   22.9630   34.5640 C.2   139  GLN139      0.2608
     37  OE1       17.1540   23.8670   34.2610 O.2   139  GLN139     -0.2717
     38  NE2       19.1980   23.1890   34.9270 N.am  139  GLN139     -0.0878
     39  N         23.5010   17.2050   29.3560 N.3   178  LEU178     -0.1245
     40  CA        22.4790   17.5520   30.3170 C.3   178  LEU178      0.1561
     41  C         21.0860   17.1830   29.7580 C.2   178  LEU178      0.2260
     42  O         20.7170   17.5350   28.6210 O.2   178  LEU178     -0.2867
     43  CB        22.5920   19.0390   30.6450 C.3   178  LEU178      0.0270
     44  CG        21.6790   19.5270   31.7630 C.3   178  LEU178      0.0019
     45  CD1       22.0330   18.7370   33.0390 C.3   178  LEU178      0.0001
     46  CD2       21.8260   21.0530   31.9640 C.3   178  LEU178      0.0001
     47  N         14.5320   29.8140   30.9830 N.3   188  THR188     -0.1218
     48  CA        15.8920   29.7910   31.5250 C.3   188  THR188      0.1862
     49  C         16.4160   31.1660   31.0520 C.2   188  THR188      0.2287
     50  O         16.7240   31.3480   29.8590 O.2   188  THR188     -0.2866
     51  CB        16.7680   28.6680   30.9040 C.3   188  THR188      0.1770
     52  OG1       16.3270   27.3780   31.3800 O.3   188  THR188     -0.2211
     53  CG2       18.2580   28.8780   31.2520 C.3   188  THR188      0.0375
     54  N         22.0190   33.8700   29.8110 N.3   191  HIS191     -0.1241
     55  CA        23.3020   33.6530   30.4550 C.3   191  HIS191      0.1621
     56  C         24.2100   33.1120   29.3990 C.2   191  HIS191      0.2264
     57  O         23.7580   32.8290   28.2670 O.2   191  HIS191     -0.2867
     58  CB        23.2130   32.5930   31.5360 C.3   191  HIS191      0.0745
     59  CG        22.8730   31.2410   30.9980 C.ar  191  HIS191      0.0817
     60  ND1       21.5970   30.9050   30.6020 N.ar  191  HIS191     -0.2268
     61  CD2       23.6530   30.1780   30.6980 C.ar  191  HIS191      0.1154
     62  CE1       21.6060   29.6920   30.0820 C.ar  191  HIS191      0.1986
     63  NE2       22.8410   29.2290   30.1280 N.ar  191  HIS191     -0.2212
     64  N         27.7400   30.3220   28.7180 N.3   193  ASP193     -0.1225
     65  CA        28.4620   29.1870   29.2770 C.3   193  ASP193      0.1805
     66  C         29.8490   29.2460   28.7470 C.2   193  ASP193      0.2598
     67  O         30.0760   29.7890   27.6580 O.2   193  ASP193     -0.2718
     68  CB        27.7920   27.8590   28.8720 C.3   193  ASP193      0.1424
     69  CG        26.3640   27.7290   29.4090 C.2   193  ASP193      0.3668
     70  OD1       26.1850   27.8540   30.6220 O.co2 193  ASP193     -0.2456
     71  OD2       25.4070   27.5010   28.6280 O.co2 193  ASP193     -0.2456
     72  N         30.7920   28.7200   29.5240 N.am  194  GLU194     -0.1965
     73  CA        32.1810   28.7170   29.0870 C.3   194  GLU194      0.1733
     74  C         32.5190   27.4830   28.2740 C.2   194  GLU194      0.2616
     75  O         33.6500   27.0050   28.3370 O.2   194  GLU194     -0.2715
     76  CB        33.1460   28.7800   30.2710 C.3   194  GLU194      0.0429
     77  CG        33.0350   30.0060   31.1220 C.3   194  GLU194      0.1163
     78  CD        34.1710   30.1200   32.1330 C.2   194  GLU194      0.3649
     79  OE1       33.9450   29.8190   33.3330 O.co2 194  GLU194     -0.2457
     80  OE2       35.2910   30.5010   31.7140 O.co2 194  GLU194     -0.2457
     81  N         31.5660   26.9380   27.5310 N.am  195  GLN195     -0.1977
     82  CA        31.8660   25.7670   26.7110 C.3   195  GLN195      0.1601
     83  C         31.0840   25.7860   25.4220 C.2   195  GLN195      0.2287
     84  O         30.1140   26.5270   25.2940 O.2   195  GLN195     -0.2864
     85  CB        31.5370   24.4780   27.4590 C.3   195  GLN195      0.0394
     86  CG        32.3710   24.2470   28.7280 C.3   195  GLN195      0.0908
     87  CD        32.1450   22.8620   29.3570 C.2   195  GLN195      0.2608
     88  OE1       32.2510   22.7090   30.5730 O.2   195  GLN195     -0.2717
     89  NE2       31.8530   21.8550   28.5290 N.am  195  GLN195     -0.0878
     90  N         26.6010   34.3040   38.7660 N.3   229  ASP229     -0.1225
     91  CA        27.7290   34.5460   37.8540 C.3   229  ASP229      0.1805
     92  C         27.3690   34.0000   36.4510 C.2   229  ASP229      0.2598
     93  O         26.8810   32.8750   36.3250 O.2   229  ASP229     -0.2718
     94  CB        28.9690   33.8160   38.3600 C.3   229  ASP229      0.1424
     95  CG        30.1250   33.8710   37.3820 C.2   229  ASP229      0.3668
     96  OD1       30.3120   34.9110   36.6970 O.co2 229  ASP229     -0.2456
     97  OD2       30.8730   32.8780   37.3060 O.co2 229  ASP229     -0.2456
     98  N         27.6170   34.8080   35.4180 N.am  230  ARG230     -0.1966
     99  CA        27.3340   34.4530   34.0240 C.3   230  ARG230      0.1729
    100  C         25.8690   34.6550   33.6090 C.2   230  ARG230      0.2616
    101  O         25.5630   34.5930   32.4360 O.2   230  ARG230     -0.2715
    102  CB        27.7670   33.0110   33.7020 C.3   230  ARG230      0.0348
    103  CG        29.2590   32.7910   33.7760 C.3   230  ARG230      0.0492
    104  CD        29.6390   31.3720   33.3790 C.3   230  ARG230      0.2205
    105  NE        29.1630   30.4230   34.3750 N.pl3 230  ARG230     -0.0865
    106  CZ        28.1230   29.5970   34.2360 C.cat 230  ARG230      0.5346
    107  NH1       27.3990   29.5680   33.1090 N.pl3 230  ARG230      0.1354
    108  NH2       27.7920   28.7990   35.2540 N.pl3 230  ARG230      0.1354
    109  N         24.9690   34.9000   34.5510 N.am  231  GLN231     -0.1977
    110  CA        23.5720   35.1580   34.1910 C.3   231  GLN231      0.1601
    111  C         23.4440   36.6970   34.0440 C.2   231  GLN231      0.2287
    112  O         24.2010   37.4430   34.6570 O.2   231  GLN231     -0.2864
    113  CB        22.5950   34.7090   35.2910 C.3   231  GLN231      0.0394
    114  CG        22.8350   33.3630   35.9560 C.3   231  GLN231      0.0908
    115  CD        23.1380   32.2450   34.9740 C.2   231  GLN231      0.2608
    116  OE1       22.3130   31.9010   34.1260 O.2   231  GLN231     -0.2717
    117  NE2       24.3350   31.6690   35.0830 N.am  231  GLN231     -0.0878
    118  N         30.4770   28.9750   22.3730 N.3   267  MET267     -0.1230
    119  CA        30.9790   29.3140   23.7070 C.3   267  MET267      0.1702
    120  C         30.9260   30.8450   23.8840 C.2   267  MET267      0.2592
    121  O         31.2810   31.6000   22.9680 O.2   267  MET267     -0.2718
    122  CB        32.4210   28.8040   23.8600 C.3   267  MET267      0.0401
    123  CG        32.9090   28.7380   25.3230 C.3   267  MET267      0.0596
    124  SD        34.6600   28.2450   25.5980 S.3   267  MET267     -0.1393
    125  CE        35.4220   28.8780   23.9640 C.3   267  MET267      0.0692
    126  N         30.4540   31.2880   25.0530 N.am  268  TYR268     -0.1976
    127  CA        30.3390   32.7220   25.3970 C.3   268  TYR268      0.1639
    128  C         29.0810   33.4080   24.8930 C.2   268  TYR268      0.2290
    129  O         28.7600   34.5150   25.3650 O.2   268  TYR268     -0.2864
    130  CB        31.5590   33.5220   24.9040 C.3   268  TYR268      0.0560
    131  CG        32.8010   33.2620   25.7100 C.ar  268  TYR268     -0.0198
    132  CD1       32.8700   33.6290   27.0680 C.ar  268  TYR268     -0.0009
    133  CD2       33.8840   32.5890   25.1480 C.ar  268  TYR268     -0.0009
    134  CE1       33.9850   33.3200   27.8390 C.ar  268  TYR268      0.0417
    135  CE2       35.0040   32.2720   25.9090 C.ar  268  TYR268      0.0417
    136  CZ        35.0490   32.6330   27.2470 C.ar  268  TYR268      0.1957
    137  OH        36.1480   32.2770   27.9880 O.3   268  TYR268     -0.2866
    138  N         28.0560   19.3050   25.9560 N.3   288  TRP288     -0.1241
    139  CA        29.0140   20.3560   26.2810 C.3   288  TRP288      0.1605
    140  C         30.4550   19.9170   26.0650 C.2   288  TRP288      0.2264
    141  O         30.8700   18.9270   26.6530 O.2   288  TRP288     -0.2867
    142  CB        28.8150   20.8120   27.7400 C.3   288  TRP288      0.0550
    143  CG        27.8440   21.9500   27.9250 C.ar  288  TRP288      0.0003
    144  CD1       27.7660   23.0930   27.1740 C.ar  288  TRP288      0.0946
    145  CD2       26.8660   22.0940   28.9550 C.ar  288  TRP288      0.0152
    146  NE1       26.8040   23.9320   27.6720 N.ar  288  TRP288     -0.2442
    147  CE2       26.2350   23.3480   28.7640 C.ar  288  TRP288      0.0810
    148  CE3       26.4580   21.2880   30.0250 C.ar  288  TRP288      0.0012
    149  CZ2       25.2220   23.8140   29.5980 C.ar  288  TRP288      0.0191
    150  CZ3       25.4420   21.7470   30.8630 C.ar  288  TRP288      0.0001
    151  CH2       24.8340   22.9990   30.6440 C.ar  288  TRP288      0.0015
    152  N         34.6500   21.2450   26.0280 N.3   290  LYS290     -0.1245
    153  CA        35.5900   22.3030   26.4420 C.3   290  LYS290      0.1561
    154  C         36.0090   22.9400   25.1430 C.2   290  LYS290      0.2260
    155  O         36.1930   22.2510   24.1510 O.2   290  LYS290     -0.2867
    156  CB        36.8510   21.7380   27.1330 C.3   290  LYS290      0.0271
    157  CG        36.6720   21.3300   28.5900 C.3   290  LYS290      0.0035
    158  CD        36.4620   22.6230   29.3720 C.3   290  LYS290      0.0206
    159  CE        35.7560   22.4350   30.7020 C.3   290  LYS290      0.1093
    160  NZ        36.6100   21.8100   31.7560 N.3   290  LYS290     -0.1314
    161  N         43.8040   28.4060   23.9230 N.3   294  THR294     -0.1218
    162  CA        44.2030   29.7280   23.4530 C.3   294  THR294      0.1862
    163  C         45.3010   29.5470   22.4180 C.2   294  THR294      0.2287
    164  O         46.2700   28.8380   22.6690 O.2   294  THR294     -0.2866
    165  CB        44.7960   30.5600   24.5790 C.3   294  THR294      0.1770
    166  OG1       43.9760   30.4470   25.7510 O.3   294  THR294     -0.2211
    167  CG2       44.8970   32.0200   24.1490 C.3   294  THR294      0.0375
    168  N         48.6790   35.3830   19.9680 N.3   298  ILE298     -0.1245
    169  CA        47.4830   36.1930   20.0750 C.3   298  ILE298      0.1561
    170  C         47.4740   37.2410   18.9720 C.2   298  ILE298      0.2260
    171  O         48.4740   37.8980   18.7170 O.2   298  ILE298     -0.2867
    172  CB        47.4270   36.8840   21.4460 C.3   298  ILE298      0.0252
    173  CG1       47.2340   35.8450   22.5590 C.3   298  ILE298      0.0019
    174  CG2       46.3250   37.9310   21.4940 C.3   298  ILE298      0.0019
    175  CD1       45.9590   35.0270   22.4470 C.3   298  ILE298      0.0001
    176  N         45.9000   40.7820   17.3970 N.3   300  TYR300     -0.1241
    177  CA        45.2600   41.9970   17.8860 C.3   300  TYR300      0.1605
    178  C         44.5730   42.7510   16.7800 C.2   300  TYR300      0.2264
    179  O         45.0100   42.7000   15.6340 O.2   300  TYR300     -0.2867
    180  CB        46.2850   42.9130   18.5620 C.3   300  TYR300      0.0534
    181  CG        46.7390   42.3740   19.8760 C.ar  300  TYR300     -0.0201
    182  CD1       45.9320   42.4980   21.0100 C.ar  300  TYR300     -0.0009
    183  CD2       47.9310   41.6670   19.9860 C.ar  300  TYR300     -0.0009
    184  CE1       46.3050   41.9280   22.2230 C.ar  300  TYR300      0.0417
    185  CE2       48.3070   41.0880   21.1920 C.ar  300  TYR300      0.0417
    186  CZ        47.4860   41.2210   22.3050 C.ar  300  TYR300      0.1957
    187  OH        47.8160   40.6190   23.4910 O.3   300  TYR300     -0.2866
    188  N         41.8950   42.0420   20.1280 N.3   302  LEU302     -0.1245
    189  CA        41.2580   40.8530   20.6730 C.3   302  LEU302      0.1561
    190  C         39.7980   40.6840   20.2720 C.2   302  LEU302      0.2260
    191  O         39.1060   41.6670   19.9830 O.2   302  LEU302     -0.2867
    192  CB        41.3770   40.8990   22.1920 C.3   302  LEU302      0.0270
    193  CG        42.4900   40.1050   22.8810 C.3   302  LEU302      0.0019
    194  CD1       43.6060   39.7990   21.9320 C.3   302  LEU302      0.0001
    195  CD2       42.9650   40.8810   24.0880 C.3   302  LEU302      0.0001
    196  N         37.4550   37.0710   24.0830 N.3   306  GLN306     -0.1245
    197  CA        38.7270   37.1200   24.8100 C.3   306  GLN306      0.1566
    198  C         38.7120   38.2250   25.8860 C.2   306  GLN306      0.2260
    199  O         39.2260   38.0290   26.9950 O.2   306  GLN306     -0.2867
    200  CB        39.8660   37.3430   23.8280 C.3   306  GLN306      0.0367
    201  CG        39.9920   36.1420   22.8890 C.3   306  GLN306      0.0905
    202  CD        41.0640   36.3420   21.8780 C.2   306  GLN306      0.2608
    203  OE1       40.9570   37.2250   21.0200 O.2   306  GLN306     -0.2717
    204  NE2       42.1270   35.5400   21.9730 N.am  306  GLN306     -0.0878
    205  N         37.0220   36.9560   28.7780 N.3   309  ALA309     -0.1231
    206  CA        37.8950   36.0360   29.5290 C.3   309  ALA309      0.1694
    207  C         38.7770   36.8190   30.4910 C.2   309  ALA309      0.2591
    208  O         39.0150   36.3960   31.6450 O.2   309  ALA309     -0.2718
    209  CB        38.7890   35.2340   28.5640 C.3   309  ALA309      0.0304
    210  N         39.2640   37.9560   29.9900 N.am  310  ILE310     -0.1980
    211  CA        40.1210   38.8510   30.7570 C.3   310  ILE310      0.1595
    212  C         39.3560   39.4880   31.9160 C.2   310  ILE310      0.2287
    213  O         39.8390   39.4920   33.0470 O.2   310  ILE310     -0.2864
    214  CB        40.6890   39.9590   29.8640 C.3   310  ILE310      0.0276
    215  CG1       41.6340   39.3540   28.8120 C.3   310  ILE310      0.0022
    216  CG2       41.3720   41.0060   30.7200 C.3   310  ILE310      0.0022
    217  CD1       42.2090   40.3670   27.8030 C.3   310  ILE310      0.0001
    218  N         36.6840   38.3990   33.4910 N.3   312  ARG312     -0.1231
    219  CA        36.4260   37.3800   34.5150 C.3   312  ARG312      0.1694
    220  C         37.7260   37.1430   35.3220 C.2   312  ARG312      0.2592
    221  O         37.7010   37.0530   36.5530 O.2   312  ARG312     -0.2718
    222  CB        35.9920   36.0640   33.8700 C.3   312  ARG312      0.0321
    223  CG        34.6400   36.0450   33.0870 C.3   312  ARG312      0.0489
    224  CD        34.3370   34.6190   32.6250 C.3   312  ARG312      0.2205
    225  NE        34.1920   33.7480   33.7880 N.pl3 312  ARG312     -0.0865
    226  CZ        33.0940   33.7190   34.5150 C.cat 312  ARG312      0.5346
    227  NH1       32.0750   34.4720   34.1700 N.pl3 312  ARG312      0.1354
    228  NH2       33.0370   33.0110   35.6280 N.pl3 312  ARG312      0.1354
    229  N         38.8600   37.0620   34.6330 N.am  313  ASN313     -0.1960
    230  CA        40.0920   36.8020   35.3470 C.3   313  ASN313      0.1819
    231  C         40.4780   37.9230   36.3020 C.2   313  ASN313      0.2621
    232  O         40.8050   37.6420   37.4460 O.2   313  ASN313     -0.2715
    233  CB        41.2120   36.4430   34.3750 C.3   313  ASN313      0.1195
    234  CG        41.0680   34.9980   33.8470 C.2   313  ASN313      0.2630
    235  OD1       40.5820   34.1060   34.5700 O.2   313  ASN313     -0.2716
    236  ND2       41.4970   34.7610   32.6070 N.am  313  ASN313     -0.0877
    237  N         40.4130   39.1770   35.8440 N.am  314  ILE314     -0.1977
    238  CA        40.6870   40.3220   36.6880 C.3   314  ILE314      0.1596
    239  C         39.7890   40.2040   37.9340 C.2   314  ILE314      0.2287
    240  O         40.2600   40.3490   39.0470 O.2   314  ILE314     -0.2864
    241  CB        40.3150   41.6090   35.9640 C.3   314  ILE314      0.0276
    242  CG1       41.1320   41.7250   34.6970 C.3   314  ILE314      0.0022
    243  CG2       40.4890   42.8250   36.8780 C.3   314  ILE314      0.0022
    244  CD1       42.6330   41.8740   34.9460 C.3   314  ILE314      0.0001
    245  N         38.4590   37.6040   39.2890 N.3   316  LYS316     -0.1231
    246  CA        38.8330   36.4520   40.1210 C.3   316  LYS316      0.1693
    247  C         40.0920   36.7930   40.9120 C.2   316  LYS316      0.2591
    248  O         40.1200   36.5980   42.1080 O.2   316  LYS316     -0.2718
    249  CB        39.0750   35.2230   39.2470 C.3   316  LYS316      0.0285
    250  CG        37.8020   34.6050   38.6810 C.3   316  LYS316      0.0035
    251  CD        38.1680   33.5950   37.5740 C.3   316  LYS316      0.0206
    252  CE        37.0180   32.6620   37.2180 C.3   316  LYS316      0.1093
    253  NZ        37.5670   31.5230   36.3760 N.3   316  LYS316     -0.1314
    254  N         41.1130   37.2990   40.2360 N.am  317  MET317     -0.1979
    255  CA        42.3520   37.6950   40.8740 C.3   317  MET317      0.1605
    256  C         42.1320   38.7190   41.9990 C.2   317  MET317      0.2287
    257  O         42.6140   38.5100   43.1190 O.2   317  MET317     -0.2864
    258  CB        43.3120   38.2810   39.8440 C.3   317  MET317      0.0413
    259  CG        43.8960   37.2680   38.9190 C.3   317  MET317      0.0598
    260  SD        45.0270   38.0220   37.7350 S.3   317  MET317     -0.1393
    261  CE        46.5070   38.1480   38.7560 C.3   317  MET317      0.0692
@<TRIPOS>BOND
     1   179   178    2
     2   178   177    1
     3   176   177    1
     4   177   180    1
     5   180   181    1
     6   171   170    2
     7   170   169    1
     8   181   183   ar
     9   181   182   ar
    10   168   169    1
    11   191   190    2
    12   183   185   ar
    13   169   172    1
    14   188   189    1
    15   190   189    1
    16   189   192    1
    17   182   184   ar
    18   203   202    2
    19   185   186   ar
    20   172   174    1
    21   172   173    1
    22   202   204   am
    23   202   201    1
    24   194   193    1
    25   192   193    1
    26   184   186   ar
    27   186   187    1
    28   118   119    1
    29   163   164    2
    30   163   162    1
    31   175   173    1
    32   193   195    1
    33   201   200    1
    34   121   120    2
    35   162   161    1
    36   162   165    1
    37   119   122    1
    38   119   120    1
    39   200   197    1
    40   122   123    1
    41   120   126   am
    42   125   124    1
    43   196   197    1
    44   167   165    1
    45   155   154    2
    46   165   166    1
    47   197   198    1
    48   128   129    2
    49   128   127    1
    50   130   127    1
    51   130   131    1
    52   126   127    1
    53   154   153    1
    54   133   131   ar
    55   133   135   ar
    56    84    83    2
    57   123   124    1
    58    83    82    1
    59   131   132   ar
    60   198   199    2
    61   135   136   ar
    62   138   139    1
    63   152   153    1
    64   140   139    1
    65   140   141    2
    66   139   142    1
    67   153   156    1
    68    82    85    1
    69    82    81    1
    70   132   134   ar
    71   156   157    1
    72   144   146   ar
    73   144   143   ar
    74   136   134   ar
    75   136   137    1
    76    85    86    1
    77    81    74   am
    78    67    66    2
    79   146   147   ar
    80   142   143    1
    81   217   215    1
    82   143   145   ar
    83    57    56    2
    84    74    75    2
    85    74    73    1
    86    89    87   am
    87   209   206    1
    88   157   158    1
    89    42    41    2
    90    71    69   ar
    91    64    65    1
    92    86    87    1
    93    66    65    1
    94    66    72   am
    95   147   145   ar
    96   147   149   ar
    97   205   206    1
    98   215   214    1
    99    68    65    1
   100    68    69    1
   101   145   148   ar
   102    73    72    1
   103    73    76    1
   104    39    40    1
   105    87    88    2
   106   158   159    1
   107    56    55    1
   108    69    70   ar
   109   206   207    1
   110   149   151   ar
   111    41    40    1
   112    54    55    1
   113    50    49    2
   114   214   216    1
   115   214   211    1
   116   210   207   am
   117   210   211    1
   118   148   150   ar
   119    62    63   ar
   120    62    60   ar
   121    63    61   ar
   122    76    77    1
   123    40    43    1
   124    55    58    1
   125   207   208    2
   126    60    59   ar
   127   151   150   ar
   128    43    44    1
   129    61    59   ar
   130   159   160    1
   131   211   212    1
   132    51    53    1
   133    51    52    1
   134    51    48    1
   135    47    48    1
   136    59    58    1
   137    49    48    1
   138    77    78    1
   139    80    78   ar
   140    44    46    1
   141    44    45    1
   142   212   213    2
   143    78    79   ar
   144   101   100    2
   145   236   234   am
   146   224   223    1
   147   224   225    1
   148   223   222    1
   149   107   106    1
   150   104   103    1
   151   104   105    1
   152   218   219    1
   153   100    99    1
   154   100   109   am
   155   102   103    1
   156   102    99    1
   157   225   226    2
   158   234   233    1
   159   234   235    2
   160   222   219    1
   161    99    98    1
   162   111   110    1
   163   111   112    2
   164   116   115    2
   165   227   226    1
   166   110   109    1
   167   110   113    1
   168   106   105    2
   169   106   108    1
   170    37    36    2
   171   233   230    1
   172   219   220    1
   173   226   228    1
   174    35    36    1
   175    35    34    1
   176    36    38   am
   177   229   220   am
   178   229   230    1
   179   242   244    1
   180   242   241    1
   181    31    34    1
   182    31    32    1
   183    31    30    1
   184   115   117   am
   185   115   114    1
   186   113   114    1
   187   220   221    2
   188   230   231    1
   189    98    92   am
   190    32    33    2
   191   237   231   am
   192   237   238    1
   193   241   238    1
   194   241   243    1
   195   231   232    2
   196    93    92    2
   197   253   252    1
   198    92    91    1
   199   238   239    1
   200     5     6    1
   201     5     2    1
   202    96    95   ar
   203     8     6   ar
   204     8    10   ar
   205     6     7   ar
   206   252   251    1
   207    10    11   ar
   208    97    95   ar
   209     1     2    1
   210    95    94    1
   211   251   250    1
   212   260   261    1
   213   260   259    1
   214     7     9   ar
   215     2     3    1
   216    91    94    1
   217    91    90    1
   218   239   240    2
   219    11     9   ar
   220    11    12    1
   221     4     3    2
   222   250   249    1
   223   259   258    1
   224   249   246    1
   225   245   246    1
   226   258   255    1
   227    29    28    1
   228   246   247    1
   229   254   255    1
   230   254   247   am
   231   255   256    1
   232   247   248    2
   233    20    18   ar
   234    17    18    1
   235    17    14    1
   236    13    14    1
   237    28    27    1
   238    18    19   ar
   239    14    15    1
   240   256   257    2
   241    27    26    1
   242    15    16    2
   243    26    25    1
   244    25    22    1
   245    21    22    1
   246    22    23    1
   247    23    24    2
