@<TRIPOS>MOLECULE
tmp/3p3sB00.pdb
 69 63 0 0 0
SMALL
GASTEIGER

@<TRIPOS>ATOM
      1  N          1.8270   -7.7370  -29.3740 N.3     5  LYS5       -0.1245
      2  CA         2.7060   -6.5640  -29.4200 C.3     5  LYS5        0.1561
      3  C          3.3660   -6.3770  -28.0860 C.2     5  LYS5        0.2260
      4  O          2.7080   -6.3840  -27.0310 O.2     5  LYS5       -0.2867
      5  CB         1.9250   -5.2990  -29.7760 C.3     5  LYS5        0.0271
      6  CG         2.8270   -4.0180  -29.9300 C.3     5  LYS5        0.0035
      7  CD         2.0010   -2.8610  -30.5050 C.3     5  LYS5        0.0206
      8  CE         2.8510   -1.6090  -30.7580 C.3     5  LYS5        0.1093
      9  NZ         2.1420   -0.6270  -31.6390 N.3     5  LYS5       -0.1314
     10  N          6.2180   -4.0470  -25.8290 N.3     7  LEU7       -0.1245
     11  CA         6.9070   -2.7780  -25.6780 C.3     7  LEU7        0.1561
     12  C          7.8010   -2.8080  -24.4250 C.2     7  LEU7        0.2260
     13  O          7.5210   -3.4860  -23.4430 O.2     7  LEU7       -0.2867
     14  CB         5.9100   -1.6190  -25.6090 C.3     7  LEU7        0.0270
     15  CG         5.0440   -1.3640  -26.8440 C.3     7  LEU7        0.0019
     16  CD1        4.0170   -0.2350  -26.5940 C.3     7  LEU7        0.0001
     17  CD2        5.8240   -1.1690  -28.1560 C.3     7  LEU7        0.0001
     18  N         -5.6080   -7.9440  -30.5050 N.3    96  THR96      -0.1218
     19  CA        -4.2300   -7.5510  -30.2250 C.3    96  THR96       0.1862
     20  C         -3.9900   -7.7080  -28.7550 C.2    96  THR96       0.2287
     21  O         -4.7090   -7.1380  -27.9190 O.2    96  THR96      -0.2866
     22  CB        -3.9220   -6.1290  -30.6600 C.3    96  THR96       0.1770
     23  OG1       -3.9810   -6.0760  -32.0810 O.3    96  THR96      -0.2211
     24  CG2       -2.4970   -5.7240  -30.2480 C.3    96  THR96       0.0375
     25  N         -1.3580   -6.8480  -26.1470 N.3    98  ALA98      -0.1231
     26  CA        -0.2120   -5.9680  -25.9350 C.3    98  ALA98       0.1694
     27  C          0.3530   -6.1340  -24.5360 C.2    98  ALA98       0.2592
     28  O         -0.3820   -6.3250  -23.5410 O.2    98  ALA98      -0.2718
     29  CB        -0.6180   -4.5090  -26.1510 C.3    98  ALA98       0.0304
     30  N          1.6680   -6.0790  -24.4350 N.am   99  ALA99      -0.1966
     31  CA         2.3410   -6.1590  -23.1490 C.3    99  ALA99       0.1728
     32  C          3.3760   -5.0580  -23.1030 C.2    99  ALA99       0.2616
     33  O          4.1820   -4.9220  -24.0490 O.2    99  ALA99      -0.2715
     34  CB         3.0440   -7.5200  -22.9800 C.3    99  ALA99       0.0334
     35  N          3.3650   -4.3060  -22.0080 N.am  100  LEU100     -0.1977
     36  CA         4.3250   -3.2490  -21.7310 C.3   100  LEU100      0.1596
     37  C          5.1670   -3.7190  -20.5750 C.2   100  LEU100      0.2287
     38  O          4.6470   -3.9540  -19.4650 O.2   100  LEU100     -0.2864
     39  CB         3.5770   -1.9620  -21.3770 C.3   100  LEU100      0.0297
     40  CG         4.4650   -0.7440  -21.0560 C.3   100  LEU100      0.0022
     41  CD1        5.3160   -0.2930  -22.2360 C.3   100  LEU100      0.0001
     42  CD2        3.6110    0.4140  -20.5710 C.3   100  LEU100      0.0001
     43  N          2.3270   -4.6540  -17.7710 N.3   107  SER107     -0.1202
     44  CA         0.9100   -4.4190  -17.9880 C.3   107  SER107      0.2020
     45  C          0.5360   -5.0800  -19.2940 C.2   107  SER107      0.2619
     46  O          1.3200   -5.1050  -20.2440 O.2   107  SER107     -0.2717
     47  CB         0.5830   -2.9190  -17.9920 C.3   107  SER107      0.2103
     48  OG         1.1950   -2.2360  -19.0710 O.3   107  SER107     -0.2182
     49  N         -0.6650   -5.6280  -19.3440 N.am  108  THR108     -0.1938
     50  CA        -1.1240   -6.2200  -20.5360 C.3   108  THR108      0.2028
     51  C         -2.5730   -5.7970  -20.7720 C.2   108  THR108      0.2642
     52  O         -3.3590   -5.6520  -19.8280 O.2   108  THR108     -0.2714
     53  CB        -1.0530   -7.7170  -20.5060 C.3   108  THR108      0.1808
     54  OG1       -1.3700   -8.1980  -21.7970 O.3   108  THR108     -0.2208
     55  CG2       -2.0280   -8.3910  -19.4760 C.3   108  THR108      0.0379
     56  N         -2.8850   -5.5960  -22.0310 N.am  109  THR109     -0.1950
     57  CA        -4.2550   -5.1870  -22.4410 C.3   109  THR109      0.1897
     58  C         -4.6050   -5.9020  -23.7050 C.2   109  THR109      0.2313
     59  O         -3.7500   -6.4400  -24.4210 O.2   109  THR109     -0.2863
     60  CB        -4.5160   -3.6090  -22.6300 C.3   109  THR109      0.1794
     61  OG1       -5.9420   -3.3440  -22.6480 O.3   109  THR109     -0.2208
     62  CG2       -3.8980   -3.0660  -23.9100 C.3   109  THR109      0.0378
     63  N         -6.8980   -5.3740  -27.2380 N.3   111  VAL111     -0.1245
     64  CA        -7.6940   -4.5360  -28.1630 C.3   111  VAL111      0.1561
     65  C         -8.4360   -5.4780  -29.0810 C.2   111  VAL111      0.2260
     66  O         -7.8320   -6.2480  -29.8400 O.2   111  VAL111     -0.2867
     67  CB        -6.8140   -3.5630  -28.9370 C.3   111  VAL111      0.0252
     68  CG1       -7.6600   -2.6600  -29.8200 C.3   111  VAL111      0.0019
     69  CG2       -5.8930   -2.7680  -27.9660 C.3   111  VAL111      0.0019
@<TRIPOS>BOND
     1    23    22    1
     2     9     8    1
     3     8     7    1
     4    22    24    1
     5    22    19    1
     6    18    19    1
     7     7     6    1
     8    19    20    1
     9     6     5    1
    10    66    65    2
    11    68    67    1
    12     5     2    1
    13     2     1    1
    14     2     3    1
    15    65    64    1
    16    67    64    1
    17    67    69    1
    18    20    21    2
    19    64    63    1
    20    17    15    1
    21     3     4    2
    22    15    16    1
    23    15    14    1
    24    29    26    1
    25    25    26    1
    26    26    27    1
    27    10    11    1
    28    11    14    1
    29    11    12    1
    30    27    30   am
    31    27    28    2
    32    30    31    1
    33    12    13    2
    34    59    58    2
    35    33    32    2
    36    62    60    1
    37    58    57    1
    38    31    32    1
    39    31    34    1
    40    32    35   am
    41    61    60    1
    42    60    57    1
    43    57    56    1
    44    41    40    1
    45    56    51   am
    46    35    36    1
    47    54    53    1
    48    36    39    1
    49    36    37    1
    50    39    40    1
    51    40    42    1
    52    51    50    1
    53    51    52    2
    54    37    38    2
    55    50    53    1
    56    50    49    1
    57    53    55    1
    58    46    45    2
    59    49    45   am
    60    45    44    1
    61    48    47    1
    62    47    44    1
    63    44    43    1
