@<TRIPOS>MOLECULE
tmp/3p3tB00.pdb
 86 78 0 0 0
SMALL
GASTEIGER

@<TRIPOS>ATOM
      1  N         -1.9890  -11.1560  -32.5820 N.3     3  MET3       -0.1245
      2  CA        -0.7670  -10.3570  -32.6680 C.3     3  MET3        0.1570
      3  C         -0.2990  -10.0530  -31.2570 C.2     3  MET3        0.2261
      4  O         -1.0970   -9.9290  -30.3350 O.2     3  MET3       -0.2867
      5  CB        -0.9360   -9.0340  -33.4510 C.3     3  MET3        0.0387
      6  CG         0.4310   -8.2920  -33.7890 C.3     3  MET3        0.0595
      7  SD         0.9390   -6.9570  -32.6800 S.3     3  MET3       -0.1393
      8  CE        -0.1090   -5.6250  -33.2030 C.3     3  MET3        0.0692
      9  N          2.3880   -7.4050  -29.1460 N.3     5  LYS5       -0.1245
     10  CA         3.1550   -6.1710  -29.2060 C.3     5  LYS5        0.1561
     11  C          3.8000   -5.9450  -27.8340 C.2     5  LYS5        0.2260
     12  O          3.1400   -6.0360  -26.7930 O.2     5  LYS5       -0.2867
     13  CB         2.2550   -4.9970  -29.5850 C.3     5  LYS5        0.0271
     14  CG         2.9620   -3.6340  -29.5610 C.3     5  LYS5        0.0035
     15  CD         2.1050   -2.5060  -30.1050 C.3     5  LYS5        0.0206
     16  CE         2.9470   -1.2800  -30.2780 C.3     5  LYS5        0.1093
     17  NZ         4.0810   -1.4660  -31.2350 N.3     5  LYS5       -0.1314
     18  N          6.5460   -3.4770  -25.5680 N.3     7  LEU7       -0.1245
     19  CA         7.1480   -2.1470  -25.4130 C.3     7  LEU7        0.1561
     20  C          8.0170   -2.1020  -24.1680 C.2     7  LEU7        0.2260
     21  O          7.7880   -2.8270  -23.2150 O.2     7  LEU7       -0.2867
     22  CB         6.0710   -1.0570  -25.3050 C.3     7  LEU7        0.0270
     23  CG         5.1410   -0.8940  -26.5100 C.3     7  LEU7        0.0019
     24  CD1        4.1340    0.1500  -26.2030 C.3     7  LEU7        0.0001
     25  CD2        5.8860   -0.5580  -27.7500 C.3     7  LEU7        0.0001
     26  N          6.7350   -6.1390  -32.6080 N.3    44  GLU44      -0.1245
     27  CA         5.5490   -6.8810  -32.9480 C.3    44  GLU44       0.1567
     28  C          5.8960   -8.2560  -33.4640 C.2    44  GLU44       0.2260
     29  O          7.0030   -8.5100  -33.9850 O.2    44  GLU44      -0.2867
     30  CB         4.7240   -6.1220  -34.0230 C.3    44  GLU44       0.0388
     31  CG         4.0830   -4.8650  -33.4810 C.3    44  GLU44       0.1160
     32  CD         3.3500   -4.0290  -34.5170 C.2    44  GLU44       0.3649
     33  OE1        3.4970   -4.3020  -35.7200 O.co2  44  GLU44      -0.2457
     34  OE2        2.6730   -3.0610  -34.1000 O.co2  44  GLU44      -0.2457
     35  N         -5.1590   -8.5990  -30.1330 N.3    96  THR96      -0.1218
     36  CA        -3.8370   -8.0600  -29.9460 C.3    96  THR96       0.1862
     37  C         -3.5390   -8.1070  -28.4650 C.2    96  THR96       0.2287
     38  O         -4.2700   -7.5730  -27.6610 O.2    96  THR96      -0.2866
     39  CB        -3.7380   -6.6160  -30.4300 C.3    96  THR96       0.1770
     40  OG1       -3.9620   -6.6110  -31.8350 O.3    96  THR96      -0.2211
     41  CG2       -2.4000   -5.9990  -30.0950 C.3    96  THR96       0.0375
     42  N         -0.9020   -6.7670  -25.8530 N.3    98  ALA98      -0.1231
     43  CA         0.1600   -5.8410  -25.6780 C.3    98  ALA98       0.1694
     44  C          0.7300   -5.9530  -24.2760 C.2    98  ALA98       0.2592
     45  O         -0.0130   -6.1590  -23.3050 O.2    98  ALA98      -0.2718
     46  CB        -0.3370   -4.4020  -25.9530 C.3    98  ALA98       0.0304
     47  N          2.0270   -5.7790  -24.1700 N.am   99  ALA99      -0.1966
     48  CA         2.7710   -5.7860  -22.8990 C.3    99  ALA99       0.1728
     49  C          3.7440   -4.6540  -22.8630 C.2    99  ALA99       0.2616
     50  O          4.4180   -4.3830  -23.8470 O.2    99  ALA99      -0.2715
     51  CB         3.5290   -7.1020  -22.7140 C.3    99  ALA99       0.0334
     52  N          3.7990   -3.9850  -21.7190 N.am  100  LEU100     -0.1977
     53  CA         4.6820   -2.8550  -21.4410 C.3   100  LEU100      0.1596
     54  C          5.5630   -3.2170  -20.2890 C.2   100  LEU100      0.2287
     55  O          5.0630   -3.5050  -19.1920 O.2   100  LEU100     -0.2864
     56  CB         3.8200   -1.6270  -21.1100 C.3   100  LEU100      0.0297
     57  CG         4.5890   -0.3690  -20.7390 C.3   100  LEU100      0.0022
     58  CD1        5.4930    0.1670  -21.8730 C.3   100  LEU100      0.0001
     59  CD2        3.5440    0.7350  -20.3150 C.3   100  LEU100      0.0001
     60  N          2.7330   -4.3120  -17.4450 N.3   107  SER107     -0.1202
     61  CA         1.3180   -4.1550  -17.6800 C.3   107  SER107      0.2020
     62  C          0.9610   -4.8240  -18.9990 C.2   107  SER107      0.2619
     63  O          1.7490   -4.8870  -19.9360 O.2   107  SER107     -0.2717
     64  CB         0.9090   -2.6820  -17.6670 C.3   107  SER107      0.2103
     65  OG         1.5700   -1.9560  -18.6800 O.3   107  SER107     -0.2182
     66  N         -0.2390   -5.4060  -19.0480 N.am  108  THR108     -0.1938
     67  CA        -0.6920   -6.0520  -20.2530 C.3   108  THR108      0.2028
     68  C         -2.1550   -5.7110  -20.5030 C.2   108  THR108      0.2642
     69  O         -2.9400   -5.6080  -19.5600 O.2   108  THR108     -0.2714
     70  CB        -0.4370   -7.5460  -20.2070 C.3   108  THR108      0.1808
     71  OG1       -0.6950   -8.1250  -21.4710 O.3   108  THR108     -0.2208
     72  CG2       -1.3230   -8.2330  -19.1620 C.3   108  THR108      0.0379
     73  N         -2.5280   -5.5640  -21.7670 N.am  109  THR109     -0.1950
     74  CA        -3.9180   -5.3550  -22.1580 C.3   109  THR109      0.1897
     75  C         -4.2070   -6.1720  -23.3920 C.2   109  THR109      0.2313
     76  O         -3.3090   -6.6900  -24.0530 O.2   109  THR109     -0.2863
     77  CB        -4.2710   -3.8770  -22.3690 C.3   109  THR109      0.1794
     78  OG1       -5.7000   -3.7370  -22.2810 O.3   109  THR109     -0.2208
     79  CG2       -3.7470   -3.3750  -23.6730 C.3   109  THR109      0.0378
     80  N         -6.6640   -6.0170  -26.8850 N.3   111  VAL111     -0.1245
     81  CA        -7.5220   -5.2580  -27.7970 C.3   111  VAL111      0.1561
     82  C         -8.1250   -6.2660  -28.7310 C.2   111  VAL111      0.2260
     83  O         -7.4200   -6.9460  -29.4930 O.2   111  VAL111     -0.2867
     84  CB        -6.7210   -4.1900  -28.5910 C.3   111  VAL111      0.0252
     85  CG1       -7.6500   -3.2500  -29.3980 C.3   111  VAL111      0.0019
     86  CG2       -5.7930   -3.4380  -27.6220 C.3   111  VAL111      0.0019
@<TRIPOS>BOND
     1    33    32   ar
     2    32    34   ar
     3    32    31    1
     4    30    31    1
     5    30    27    1
     6    29    28    2
     7     6     5    1
     8     6     7    1
     9    28    27    1
    10     5     2    1
    11     8     7    1
    12    27    26    1
    13     2     1    1
    14     2     3    1
    15    40    39    1
    16     3     4    2
    17    17    16    1
    18    39    41    1
    19    39    36    1
    20    16    15    1
    21    35    36    1
    22    15    14    1
    23    36    37    1
    24    13    14    1
    25    13    10    1
    26    83    82    2
    27    85    84    1
    28    10     9    1
    29    10    11    1
    30    82    81    1
    31    84    81    1
    32    84    86    1
    33    37    38    2
    34    11    12    2
    35    81    80    1
    36    25    23    1
    37    23    24    1
    38    23    22    1
    39    46    43    1
    40    42    43    1
    41    43    44    1
    42    18    19    1
    43    19    22    1
    44    19    20    1
    45    44    47   am
    46    44    45    2
    47    47    48    1
    48    20    21    2
    49    76    75    2
    50    50    49    2
    51    79    77    1
    52    75    74    1
    53    48    49    1
    54    48    51    1
    55    49    52   am
    56    77    78    1
    57    77    74    1
    58    74    73    1
    59    58    57    1
    60    73    68   am
    61    52    53    1
    62    71    70    1
    63    53    56    1
    64    53    54    1
    65    56    57    1
    66    57    59    1
    67    68    67    1
    68    68    69    2
    69    54    55    2
    70    67    70    1
    71    67    66    1
    72    70    72    1
    73    63    62    2
    74    66    62   am
    75    62    61    1
    76    65    64    1
    77    61    64    1
    78    61    60    1
