@<TRIPOS>MOLECULE
tmp/3p3uA00.pdb
 79 70 0 0 0
SMALL
GASTEIGER

@<TRIPOS>ATOM
      1  N          3.8010  -10.8010    0.5950 N.3     4  MET4       -0.1245
      2  CA         2.4970  -10.1300    0.7220 C.3     4  MET4        0.1570
      3  C          1.9720   -9.8710   -0.6620 C.2     4  MET4        0.2261
      4  O          2.7410   -9.5960   -1.5750 O.2     4  MET4       -0.2867
      5  CB         2.6100   -8.7770    1.4400 C.3     4  MET4        0.0387
      6  CG         1.2420   -8.1680    1.8730 C.3     4  MET4        0.0595
      7  SD         0.4280   -7.0070    0.7740 S.3     4  MET4       -0.1393
      8  CE         1.5200   -5.6100    0.9950 C.3     4  MET4        0.0692
      9  N         -1.0250   -7.5430   -2.7390 N.3     6  LYS6       -0.1245
     10  CA        -1.9560   -6.3990   -2.6800 C.3     6  LYS6        0.1561
     11  C         -2.6630   -6.3370   -4.0270 C.2     6  LYS6        0.2260
     12  O         -1.9900   -6.3270   -5.0560 O.2     6  LYS6       -0.2867
     13  CB        -1.2140   -5.0960   -2.4380 C.3     6  LYS6        0.0271
     14  CG        -2.0240   -3.7900   -2.5040 C.3     6  LYS6        0.0035
     15  CD        -2.7420   -3.5240   -1.2370 C.3     6  LYS6        0.0206
     16  CE        -3.3030   -2.0940   -1.1830 C.3     6  LYS6        0.1093
     17  NZ        -4.0450   -1.8740    0.0410 N.3     6  LYS6       -0.1314
     18  N         -5.7520   -4.2850   -6.2720 N.3     8  LEU8       -0.1245
     19  CA        -6.6150   -3.1200   -6.4450 C.3     8  LEU8        0.1561
     20  C         -7.5060   -3.2880   -7.6830 C.2     8  LEU8        0.2260
     21  O         -7.1160   -3.9270   -8.6810 O.2     8  LEU8       -0.2867
     22  CB        -5.7500   -1.8620   -6.6130 C.3     8  LEU8        0.0270
     23  CG        -4.8860   -1.5120   -5.4120 C.3     8  LEU8        0.0019
     24  CD1       -3.9020   -0.3700   -5.8100 C.3     8  LEU8        0.0001
     25  CD2       -5.6990   -1.1670   -4.1950 C.3     8  LEU8        0.0001
     26  N         -5.4640   -6.9220    0.7420 N.3    45  GLU45      -0.1245
     27  CA        -4.1440   -7.4590    1.1360 C.3    45  GLU45       0.1567
     28  C         -4.2660   -8.8970    1.6060 C.2    45  GLU45       0.2260
     29  O         -5.2590   -9.3210    2.1760 O.2    45  GLU45      -0.2867
     30  CB        -3.5470   -6.6070    2.2770 C.3    45  GLU45       0.0388
     31  CG        -3.2880   -5.1930    1.8490 C.3    45  GLU45       0.1160
     32  CD        -2.5790   -4.2950    2.8680 C.2    45  GLU45       0.3649
     33  OE1       -2.2930   -4.7250    4.0040 O.co2  45  GLU45      -0.2457
     34  OE2       -2.3380   -3.1120    2.5060 O.co2  45  GLU45      -0.2457
     35  N          6.5950   -7.7140   -1.8020 N.3    97  THR97      -0.1218
     36  CA         5.1860   -7.4030   -2.0570 C.3    97  THR97       0.1862
     37  C          4.8960   -7.4680   -3.5190 C.2    97  THR97       0.2287
     38  O          5.5460   -6.8040   -4.3130 O.2    97  THR97      -0.2866
     39  CB         4.7970   -5.9920   -1.5110 C.3    97  THR97       0.1770
     40  OG1        5.1250   -5.9350   -0.1120 O.3    97  THR97      -0.2211
     41  CG2        3.3080   -5.7320   -1.6710 C.3    97  THR97       0.0375
     42  N          2.0640   -6.5610   -6.0970 N.3    99  ALA99      -0.1231
     43  CA         0.8830   -5.7440   -6.2410 C.3    99  ALA99       0.1694
     44  C          0.3170   -5.9150   -7.6250 C.2    99  ALA99       0.2592
     45  O          1.0840   -6.0260   -8.6200 O.2    99  ALA99      -0.2718
     46  CB         1.2350   -4.2570   -5.9970 C.3    99  ALA99       0.0304
     47  N         -0.9970   -5.9180   -7.7130 N.am  100  ALA100     -0.1966
     48  CA        -1.6800   -6.0670   -8.9840 C.3   100  ALA100      0.1728
     49  C         -2.8420   -5.0940   -9.0410 C.2   100  ALA100      0.2616
     50  O         -3.5520   -4.9150   -8.0700 O.2   100  ALA100     -0.2715
     51  CB        -2.2020   -7.4840   -9.1990 C.3   100  ALA100      0.0334
     52  N         -3.0040   -4.4690  -10.1870 N.am  101  LEU101     -0.1977
     53  CA        -4.0820   -3.5260  -10.4670 C.3   101  LEU101      0.1596
     54  C         -4.9200   -4.0910  -11.6030 C.2   101  LEU101      0.2287
     55  O         -4.4050   -4.3520  -12.6870 O.2   101  LEU101     -0.2864
     56  CB        -3.4570   -2.1930  -10.8990 C.3   101  LEU101      0.0297
     57  CG        -4.4090   -1.0700  -11.3000 C.3   101  LEU101      0.0022
     58  CD1       -5.3340   -0.6670  -10.1770 C.3   101  LEU101      0.0001
     59  CD2       -3.5960    0.1330  -11.8020 C.3   101  LEU101      0.0001
     60  N         -1.9440   -4.8750  -14.3960 N.3   108  SER108     -0.1217
     61  CA        -0.5820   -4.4160  -14.1430 C.3   108  SER108      0.1889
     62  C         -0.0890   -5.0830  -12.8740 C.2   108  SER108      0.2288
     63  O         -0.8630   -5.2100  -11.9190 O.2   108  SER108     -0.2866
     64  CB        -0.6110   -2.9030  -13.9400 C.3   108  SER108      0.2089
     65  OG         0.6790   -2.3340  -13.7690 O.3   108  SER108     -0.2183
     66  N          3.4500   -5.1810  -10.1480 N.3   110  THR110     -0.1218
     67  CA         4.7620   -4.6840   -9.7790 C.3   110  THR110      0.1862
     68  C          5.1980   -5.4010   -8.5320 C.2   110  THR110      0.2287
     69  O          4.3950   -5.9960   -7.8260 O.2   110  THR110     -0.2866
     70  CB         4.9270   -3.1040   -9.6370 C.3   110  THR110      0.1770
     71  OG1        6.2950   -2.7360   -9.6320 O.3   110  THR110     -0.2211
     72  CG2        4.3590   -2.5370   -8.3750 C.3   110  THR110      0.0375
     73  N          7.6750   -5.0070   -5.0440 N.3   112  VAL112     -0.1245
     74  CA         8.5010   -4.2080   -4.1250 C.3   112  VAL112      0.1561
     75  C          9.3000   -5.2050   -3.3100 C.2   112  VAL112      0.2260
     76  O          8.7060   -6.0400   -2.6070 O.2   112  VAL112     -0.2867
     77  CB         7.6480   -3.3190   -3.1940 C.3   112  VAL112      0.0252
     78  CG1        8.5630   -2.6060   -2.1480 C.3   112  VAL112      0.0019
     79  CG2        6.8110   -2.3330   -3.9950 C.3   112  VAL112      0.0019
@<TRIPOS>BOND
     1    60    61    1
     2    61    64    1
     3    61    62    1
     4    64    65    1
     5    62    63    2
     6    55    54    2
     7    59    57    1
     8    54    53    1
     9    57    56    1
    10    57    58    1
    11    56    53    1
    12    53    52    1
    13    52    49   am
    14    66    67    1
    15    67    70    1
    16    67    68    1
    17    70    71    1
    18    70    72    1
    19    51    48    1
    20    49    48    1
    21    49    50    2
    22    48    47    1
    23    21    20    2
    24    45    44    2
    25    68    69    2
    26    47    44   am
    27    20    19    1
    28    44    43    1
    29    22    19    1
    30    22    23    1
    31    19    18    1
    32    43    42    1
    33    43    46    1
    34    24    23    1
    35    23    25    1
    36    12    11    2
    37    73    74    1
    38    38    37    2
    39    74    75    1
    40    74    77    1
    41    11    10    1
    42    79    77    1
    43    37    36    1
    44    75    76    2
    45    77    78    1
    46     9    10    1
    47    10    13    1
    48    14    13    1
    49    14    15    1
    50    36    35    1
    51    36    39    1
    52    41    39    1
    53     4     3    2
    54    39    40    1
    55    15    16    1
    56    16    17    1
    57     3     2    1
    58     1     2    1
    59     2     5    1
    60    26    27    1
    61     7     8    1
    62     7     6    1
    63    27    28    1
    64    27    30    1
    65     5     6    1
    66    28    29    2
    67    31    30    1
    68    31    32    1
    69    34    32   ar
    70    32    33   ar
