@<TRIPOS>MOLECULE
tmp/3p3yA00.pdb
 88 80 0 0 0
SMALL
GASTEIGER

@<TRIPOS>ATOM
      1  N         12.9730   83.6620   35.5080 N.3    79  GLU79      -0.1245
      2  CA        13.8100   82.6830   34.8210 C.3    79  GLU79       0.1567
      3  C         13.0990   82.1090   33.5930 C.2    79  GLU79       0.2260
      4  O         12.0460   81.4810   33.7130 O.2    79  GLU79      -0.2867
      5  CB        14.1570   81.5600   35.7970 C.3    79  GLU79       0.0388
      6  CG        15.3680   80.7310   35.4160 C.3    79  GLU79       0.1160
      7  CD        15.5960   79.5610   36.3630 C.2    79  GLU79       0.3649
      8  OE1       14.8240   78.5790   36.2960 O.co2  79  GLU79      -0.2457
      9  OE2       16.5440   79.6230   37.1740 O.co2  79  GLU79      -0.2457
     10  N         13.2720   79.7680   29.9110 N.3    81  GLN81      -0.1245
     11  CA        13.9850   78.6690   29.2610 C.3    81  GLN81       0.1566
     12  C         13.2690   78.2530   27.9810 C.2    81  GLN81       0.2260
     13  O         12.0720   77.9670   27.9790 O.2    81  GLN81      -0.2867
     14  CB        14.1610   77.4690   30.2000 C.3    81  GLN81       0.0367
     15  CG        15.1880   76.4470   29.7080 C.3    81  GLN81       0.0905
     16  CD        15.4950   75.3480   30.7240 C.2    81  GLN81       0.2608
     17  OE1       14.8380   75.2260   31.7530 O.2    81  GLN81      -0.2717
     18  NE2       16.5020   74.5390   30.4240 N.am   81  GLN81      -0.0878
     19  N         19.7250   77.8410   27.7790 N.3    94  ASN94      -0.1225
     20  CA        20.1060   78.1220   29.1460 C.3    94  ASN94       0.1785
     21  C         18.8990   78.7280   29.8820 C.2    94  ASN94       0.2597
     22  O         17.8570   79.0060   29.2750 O.2    94  ASN94      -0.2718
     23  CB        21.2690   79.1230   29.1760 C.3    94  ASN94       0.1169
     24  CG        22.5880   78.5100   28.6910 C.2    94  ASN94       0.2627
     25  OD1       22.9690   77.4100   29.1070 O.2    94  ASN94      -0.2716
     26  ND2       23.2950   79.2310   27.8260 N.am   94  ASN94      -0.0877
     27  N         19.0350   78.8960   31.1960 N.am   95  ARG95      -0.1979
     28  CA        17.9950   79.5230   32.0050 C.3    95  ARG95       0.1597
     29  C         18.2530   81.0230   32.0400 C.2    95  ARG95       0.2287
     30  O         19.0750   81.5110   32.8160 O.2    95  ARG95      -0.2864
     31  CB        17.9640   78.9230   33.4140 C.3    95  ARG95       0.0334
     32  CG        17.1600   77.6290   33.4670 C.3    95  ARG95       0.0492
     33  CD        17.3010   76.8810   34.7760 C.3    95  ARG95       0.2205
     34  NE        16.6410   75.5780   34.6950 N.pl3  95  ARG95      -0.0865
     35  CZ        16.5520   74.7050   35.7000 C.cat  95  ARG95       0.5346
     36  NH1       17.0810   74.9830   36.8910 N.pl3  95  ARG95       0.1354
     37  NH2       15.9260   73.5450   35.5130 N.pl3  95  ARG95       0.1354
     38  N         24.1260   66.3380   35.9600 N.3   333  GLN333     -0.1245
     39  CA        22.7390   65.8830   35.8390 C.3   333  GLN333      0.1566
     40  C         22.4250   65.6750   34.3440 C.2   333  GLN333      0.2260
     41  O         22.7010   66.5490   33.5030 O.2   333  GLN333     -0.2867
     42  CB        21.7590   66.8900   36.4280 C.3   333  GLN333      0.0367
     43  CG        22.1050   67.3680   37.8310 C.3   333  GLN333      0.0905
     44  CD        21.0060   68.2370   38.4300 C.2   333  GLN333      0.2608
     45  OE1       19.8960   67.7560   38.7110 O.2   333  GLN333     -0.2717
     46  NE2       21.3050   69.5230   38.6220 N.am  333  GLN333     -0.0878
     47  N         19.7180   64.7730   31.1350 N.3   335  MET335     -0.1245
     48  CA        18.3390   64.9060   30.7070 C.3   335  MET335      0.1570
     49  C         18.1470   64.4140   29.2790 C.2   335  MET335      0.2261
     50  O         19.0080   64.6010   28.4300 O.2   335  MET335     -0.2867
     51  CB        17.8900   66.3660   30.7790 C.3   335  MET335      0.0387
     52  CG        17.5020   66.8430   32.1570 C.3   335  MET335      0.0595
     53  SD        16.7970   68.4820   32.0460 S.3   335  MET335     -0.1393
     54  CE        16.1700   68.7300   33.7200 C.3   335  MET335      0.0692
     55  N         23.9200   69.2680   32.6170 N.3   373  ASN373     -0.1240
     56  CA        24.0780   70.3960   33.5120 C.3   373  ASN373      0.1653
     57  C         25.2230   70.0680   34.4880 C.2   373  ASN373      0.2266
     58  O         25.1100   69.1530   35.3000 O.2   373  ASN373     -0.2867
     59  CB        22.7800   70.6880   34.2950 C.3   373  ASN373      0.1155
     60  CG        22.8630   71.9720   35.1350 C.2   373  ASN373      0.2627
     61  OD1       23.8630   72.7000   35.0730 O.2   373  ASN373     -0.2716
     62  ND2       21.8170   72.2530   35.9230 N.am  373  ASN373     -0.0877
     63  N         27.2900   71.8230   37.4010 N.3   375  SER375     -0.1217
     64  CA        27.1160   72.9930   38.2340 C.3   375  SER375      0.1889
     65  C         27.7580   72.9050   39.5870 C.2   375  SER375      0.2288
     66  O         28.0720   71.8240   40.0900 O.2   375  SER375     -0.2866
     67  CB        25.5990   73.1770   38.4620 C.3   375  SER375      0.2089
     68  OG        25.0010   71.9640   38.9420 O.3   375  SER375     -0.2183
     69  N         26.9280   77.2120   36.3570 N.3   380  TYR380     -0.1241
     70  CA        26.6730   75.9430   35.6900 C.3   380  TYR380      0.1605
     71  C         27.0170   76.0220   34.2020 C.2   380  TYR380      0.2264
     72  O         27.3340   77.1000   33.6960 O.2   380  TYR380     -0.2867
     73  CB        25.1900   75.5480   35.8470 C.3   380  TYR380      0.0534
     74  CG        24.2080   76.4210   35.0820 C.ar  380  TYR380     -0.0201
     75  CD1       23.7740   76.0610   33.7980 C.ar  380  TYR380     -0.0009
     76  CD2       23.7190   77.6060   35.6340 C.ar  380  TYR380     -0.0009
     77  CE1       22.8850   76.8530   33.0940 C.ar  380  TYR380      0.0417
     78  CE2       22.8290   78.4070   34.9330 C.ar  380  TYR380      0.0417
     79  CZ        22.4150   78.0230   33.6640 C.ar  380  TYR380      0.1957
     80  OH        21.5230   78.7990   32.9640 O.3   380  TYR380     -0.2866
     81  N         25.4770   74.2240   30.4470 N.3   382  LEU382     -0.1245
     82  CA        24.4440   73.3970   29.8260 C.3   382  LEU382      0.1561
     83  C         24.8180   73.0270   28.4050 C.2   382  LEU382      0.2260
     84  O         24.9220   73.8850   27.5230 O.2   382  LEU382     -0.2867
     85  CB        23.0990   74.1420   29.8440 C.3   382  LEU382      0.0270
     86  CG        21.7250   73.4680   29.6070 C.3   382  LEU382      0.0019
     87  CD1       21.3830   73.4140   28.1370 C.3   382  LEU382      0.0001
     88  CD2       21.6580   72.0920   30.2380 C.3   382  LEU382      0.0001
@<TRIPOS>BOND
     1    84    83    2
     2    19    20    1
     3    26    24   am
     4    13    12    2
     5    12    11    1
     6    87    86    1
     7    83    82    1
     8    50    49    2
     9    24    25    2
    10    24    23    1
    11    20    23    1
    12    20    21    1
    13    11    10    1
    14    11    14    1
    15    22    21    2
    16    49    48    1
    17    86    85    1
    18    86    88    1
    19    15    14    1
    20    15    16    1
    21    82    85    1
    22    82    81    1
    23    21    27   am
    24    18    16   am
    25    48    51    1
    26    48    47    1
    27    16    17    2
    28    51    52    1
    29    27    28    1
    30    28    29    1
    31    28    31    1
    32    29    30    2
    33    53    52    1
    34    53    54    1
    35    55    56    1
    36    80    79    1
    37    77    79   ar
    38    77    75   ar
    39    31    32    1
    40    32    33    1
    41    41    40    2
    42    56    59    1
    43    56    57    1
    44     3     4    2
    45     3     2    1
    46    79    78   ar
    47    72    71    2
    48    75    74   ar
    49    71    70    1
    50    59    60    1
    51    40    39    1
    52    57    58    2
    53    34    33    1
    54    34    35    2
    55     2     1    1
    56     2     5    1
    57    78    76   ar
    58    61    60    2
    59    74    76   ar
    60    74    73    1
    61    60    62   am
    62     6     5    1
    63     6     7    1
    64    37    35    1
    65    70    73    1
    66    70    69    1
    67    35    36    1
    68    39    38    1
    69    39    42    1
    70     8     7   ar
    71     7     9   ar
    72    42    43    1
    73    63    64    1
    74    43    44    1
    75    64    67    1
    76    64    65    1
    77    44    46   am
    78    44    45    2
    79    67    68    1
    80    65    66    2
