@<TRIPOS>MOLECULE
tmp/3p3zA01.pdb
 138 128 0 0 0
SMALL
GASTEIGER

@<TRIPOS>ATOM
      1  N         27.8380   10.6250   34.3920 N.3    69  PHE69      -0.1241
      2  CA        26.6340   11.0870   33.6820 C.3    69  PHE69       0.1605
      3  C         26.7220   11.4120   32.1870 C.2    69  PHE69       0.2264
      4  O         25.7870   11.1040   31.4480 O.2    69  PHE69      -0.2867
      5  CB        25.9420   12.2090   34.4580 C.3    69  PHE69       0.0534
      6  CG        25.3640   11.7600   35.7690 C.ar   69  PHE69      -0.0203
      7  CD1       24.1140   11.1500   35.8210 C.ar   69  PHE69      -0.0042
      8  CD2       26.0730   11.9330   36.9510 C.ar   69  PHE69      -0.0042
      9  CE1       23.5750   10.7260   37.0330 C.ar   69  PHE69      -0.0003
     10  CE2       25.5440   11.5120   38.1650 C.ar   69  PHE69      -0.0003
     11  CZ        24.2930   10.9080   38.2090 C.ar   69  PHE69      -0.0000
     12  N         21.5740   20.3710   31.7630 N.3    86  PHE86      -0.1227
     13  CA        21.8140   20.2270   33.1940 C.3    86  PHE86       0.1736
     14  C         22.5730   18.9420   33.5160 C.2    86  PHE86       0.2595
     15  O         23.4210   18.9330   34.4040 O.2    86  PHE86      -0.2718
     16  CB        20.4970   20.2870   33.9790 C.3    86  PHE86       0.0547
     17  CG        20.6780   20.2550   35.4760 C.ar   86  PHE86      -0.0202
     18  CD1       20.9940   21.4160   36.1780 C.ar   86  PHE86      -0.0042
     19  CD2       20.5280   19.0650   36.1840 C.ar   86  PHE86      -0.0042
     20  CE1       21.1610   21.3910   37.5620 C.ar   86  PHE86      -0.0003
     21  CE2       20.6950   19.0310   37.5680 C.ar   86  PHE86      -0.0003
     22  CZ        21.0110   20.1960   38.2580 C.ar   86  PHE86      -0.0000
     23  N         22.2720   17.8680   32.7870 N.am   87  MET87      -0.1979
     24  CA        22.8720   16.5550   33.0470 C.3    87  MET87       0.1605
     25  C         24.3080   16.4070   32.5330 C.2    87  MET87       0.2287
     26  O         24.9900   15.4430   32.8770 O.2    87  MET87      -0.2864
     27  CB        21.9860   15.4310   32.4930 C.3    87  MET87       0.0413
     28  CG        20.6980   15.1950   33.2780 C.3    87  MET87       0.0598
     29  SD        20.9610   14.5500   34.9430 S.3    87  MET87      -0.1393
     30  CE        21.1360   12.7980   34.6160 C.3    87  MET87       0.0692
     31  N         26.2240   20.0530   35.0600 N.3    90  PHE90      -0.1241
     32  CA        26.1860   20.1160   36.5260 C.3    90  PHE90       0.1605
     33  C         27.3870   19.4070   37.1540 C.2    90  PHE90       0.2264
     34  O         28.0460   18.5920   36.5030 O.2    90  PHE90      -0.2867
     35  CB        24.8320   19.6470   37.0980 C.3    90  PHE90       0.0534
     36  CG        24.7040   18.1520   37.2970 C.ar   90  PHE90      -0.0203
     37  CD1       24.3110   17.6480   38.5340 C.ar   90  PHE90      -0.0042
     38  CD2       24.9390   17.2560   36.2580 C.ar   90  PHE90      -0.0042
     39  CE1       24.1690   16.2800   38.7370 C.ar   90  PHE90      -0.0003
     40  CE2       24.8010   15.8850   36.4520 C.ar   90  PHE90      -0.0003
     41  CZ        24.4130   15.3970   37.6940 C.ar   90  PHE90      -0.0000
     42  N         28.3750   16.9820   39.0870 N.3    92  GLN92      -0.1245
     43  CA        28.6420   15.5390   39.0330 C.3    92  GLN92       0.1566
     44  C         29.0830   15.0490   37.6570 C.2    92  GLN92       0.2260
     45  O         29.6150   13.9430   37.5240 O.2    92  GLN92      -0.2867
     46  CB        27.4150   14.7450   39.4920 C.3    92  GLN92       0.0367
     47  CG        27.4730   14.2800   40.9320 C.3    92  GLN92       0.0905
     48  CD        28.5530   13.2390   41.1640 C.2    92  GLN92       0.2608
     49  OE1       28.9040   12.4790   40.2620 O.2    92  GLN92      -0.2717
     50  NE2       29.0830   13.1990   42.3800 N.am   92  GLN92      -0.0878
     51  N         15.3340   14.0610   38.8850 N.3   176  LEU176     -0.1245
     52  CA        16.6120   13.7680   38.2350 C.3   176  LEU176      0.1561
     53  C         16.8320   12.2700   38.0300 C.2   176  LEU176      0.2260
     54  O         17.5720   11.8650   37.1310 O.2   176  LEU176     -0.2867
     55  CB        17.7840   14.3800   39.0180 C.3   176  LEU176      0.0270
     56  CG        18.2480   15.8140   38.7070 C.3   176  LEU176      0.0019
     57  CD1       18.6190   15.9820   37.2390 C.3   176  LEU176      0.0001
     58  CD2       17.2220   16.8600   39.1130 C.3   176  LEU176      0.0001
     59  N         22.3430   22.4850   41.6290 N.3   240  THR240     -0.1218
     60  CA        22.9700   21.2270   42.0240 C.3   240  THR240      0.1862
     61  C         22.9740   21.0770   43.5460 C.2   240  THR240      0.2287
     62  O         22.5580   20.0440   44.0700 O.2   240  THR240     -0.2866
     63  CB        24.4080   21.1140   41.4670 C.3   240  THR240      0.1770
     64  OG1       24.4040   21.4190   40.0660 O.3   240  THR240     -0.2211
     65  CG2       24.9640   19.7110   41.6730 C.3   240  THR240      0.0375
     66  N         19.0740   20.6200   44.8290 N.3   243  VAL243     -0.1231
     67  CA        18.4800   19.3180   44.5030 C.3   243  VAL243      0.1692
     68  C         19.1230   18.1930   45.3150 C.2   243  VAL243      0.2591
     69  O         18.4240   17.3660   45.9080 O.2   243  VAL243     -0.2718
     70  CB        18.5690   19.0010   42.9820 C.3   243  VAL243      0.0266
     71  CG1       18.0400   17.6010   42.6810 C.3   243  VAL243      0.0020
     72  CG2       17.7980   20.0270   42.1730 C.3   243  VAL243      0.0020
     73  N         20.4530   18.1810   45.3460 N.am  244  ALA244     -0.1980
     74  CA        21.2060   17.1780   46.0880 C.3   244  ALA244      0.1597
     75  C         21.0000   17.2910   47.5990 C.2   244  ALA244      0.2287
     76  O         20.9850   16.2850   48.3050 O.2   244  ALA244     -0.2864
     77  CB        22.6810   17.2780   45.7470 C.3   244  ALA244      0.0319
     78  N         17.5060   13.4780   49.4570 N.3   248  THR248     -0.1218
     79  CA        18.1850   12.3310   50.0560 C.3   248  THR248      0.1862
     80  C         18.3090   12.4390   51.5750 C.2   248  THR248      0.2287
     81  O         18.2410   11.4270   52.2720 O.2   248  THR248     -0.2866
     82  CB        19.5600   12.0740   49.4200 C.3   248  THR248      0.1770
     83  OG1       20.3240   13.2830   49.4240 O.3   248  THR248     -0.2211
     84  CG2       19.3880   11.5800   47.9880 C.3   248  THR248      0.0375
     85  N         20.9930    6.1270   49.1490 N.3   291  LEU291     -0.1245
     86  CA        21.5150    5.8090   47.8250 C.3   291  LEU291      0.1561
     87  C         22.3130    4.5010   47.8950 C.2   291  LEU291      0.2260
     88  O         23.5150    4.5230   48.1750 O.2   291  LEU291     -0.2867
     89  CB        22.3820    6.9580   47.2840 C.3   291  LEU291      0.0270
     90  CG        21.7150    8.3050   46.9750 C.3   291  LEU291      0.0019
     91  CD1       22.7540    9.3970   46.7780 C.3   291  LEU291      0.0001
     92  CD2       20.8080    8.2200   45.7560 C.3   291  LEU291      0.0001
     93  N         23.2470    2.7120   45.5330 N.3   293  VAL293     -0.1231
     94  CA        24.3100    2.9530   44.5730 C.3   293  VAL293      0.1692
     95  C         24.7830    4.3860   44.7830 C.2   293  VAL293      0.2592
     96  O         24.0000    5.3320   44.6940 O.2   293  VAL293     -0.2718
     97  CB        23.8390    2.7210   43.1200 C.3   293  VAL293      0.0266
     98  CG1       24.8930    3.1960   42.1270 C.3   293  VAL293      0.0020
     99  CG2       23.5220    1.2490   42.8980 C.3   293  VAL293      0.0020
    100  N         26.0660    4.5330   45.0890 N.am  294  THR294     -0.1953
    101  CA        26.6250    5.8270   45.4620 C.3   294  THR294      0.1897
    102  C         27.3630    6.4980   44.3100 C.2   294  THR294      0.2313
    103  O         26.8230    7.3940   43.6630 O.2   294  THR294     -0.2863
    104  CB        27.5630    5.6970   46.6700 C.3   294  THR294      0.1794
    105  OG1       28.4070    4.5520   46.4950 O.3   294  THR294     -0.2208
    106  CG2       26.7560    5.5560   47.9520 C.3   294  THR294      0.0378
    107  N         28.8310    6.7060   40.6460 N.3   296  THR296     -0.1218
    108  CA        28.6420    6.1800   39.3000 C.3   296  THR296      0.1862
    109  C         29.7560    6.7070   38.4040 C.2   296  THR296      0.2287
    110  O         30.0280    7.9110   38.3780 O.2   296  THR296     -0.2866
    111  CB        27.2560    6.5440   38.7220 C.3   296  THR296      0.1770
    112  OG1       27.0940    7.9660   38.7110 O.3   296  THR296     -0.2211
    113  CG2       26.1450    5.9180   39.5610 C.3   296  THR296      0.0375
    114  N         30.3990   13.4340   48.1670 N.3   356  CYS356     -0.1235
    115  CA        29.3090   14.3180   48.5790 C.3   356  CYS356      0.1677
    116  C         29.7930   15.6120   49.2250 C.2   356  CYS356      0.2270
    117  O         30.4320   15.5890   50.2790 O.2   356  CYS356     -0.2867
    118  CB        28.3560   13.5980   49.5290 C.3   356  CYS356      0.0956
    119  SG        27.0170   14.6450   50.1190 S.3   356  CYS356     -0.0801
    120  N         15.0760    3.5290   40.4220 N.3   392  LEU392     -0.1231
    121  CA        16.3470    2.8140   40.3340 C.3   392  LEU392      0.1693
    122  C         17.4940    3.5980   40.9700 C.2   392  LEU392      0.2593
    123  O         17.7900    4.7260   40.5640 O.2   392  LEU392     -0.2718
    124  CB        16.6740    2.4750   38.8710 C.3   392  LEU392      0.0284
    125  CG        15.7680    1.4970   38.1060 C.3   392  LEU392      0.0019
    126  CD1       14.4740    2.1560   37.6250 C.3   392  LEU392      0.0001
    127  CD2       16.5170    0.9040   36.9240 C.3   392  LEU392      0.0001
    128  N         18.1190    2.9930   41.9770 N.am  393  GLY393     -0.1942
    129  CA        19.2850    3.5760   42.6380 C.3   393  GLY393      0.2014
    130  C         18.9930    4.4250   43.8630 C.2   393  GLY393      0.2638
    131  O         19.9210    4.9180   44.5120 O.2   393  GLY393     -0.2714
    132  N         17.7120    4.6000   44.1830 N.am  394  VAL394     -0.1977
    133  CA        17.3030    5.4470   45.3080 C.3   394  VAL394      0.1596
    134  C         16.3710    4.7080   46.2710 C.2   394  VAL394      0.2287
    135  O         15.3870    4.0890   45.8510 O.2   394  VAL394     -0.2864
    136  CB        16.6330    6.7660   44.8210 C.3   394  VAL394      0.0276
    137  CG1       16.1070    7.5850   45.9970 C.3   394  VAL394      0.0022
    138  CG2       17.6100    7.5980   43.9950 C.3   394  VAL394      0.0022
@<TRIPOS>BOND
     1     4     3    2
     2    12    13    1
     3     3     2    1
     4    27    24    1
     5    27    28    1
     6    25    26    2
     7    25    24    1
     8    23    24    1
     9    23    14   am
    10    13    14    1
    11    13    16    1
    12    28    29    1
    13    14    15    2
    14     2     1    1
    15     2     5    1
    16    16    17    1
    17     5     6    1
    18    30    29    1
    19    31    32    1
    20    17    18   ar
    21    17    19   ar
    22     6     7   ar
    23     6     8   ar
    24     7     9   ar
    25    18    20   ar
    26    19    21   ar
    27    38    40   ar
    28    38    36   ar
    29    40    41   ar
    30    34    33    2
    31    32    35    1
    32    32    33    1
    33   127   125    1
    34     8    10   ar
    35     9    11   ar
    36    35    36    1
    37    54    53    2
    38    57    56    1
    39    36    37   ar
    40    45    44    2
    41    20    22   ar
    42    21    22   ar
    43   126   125    1
    44    44    43    1
    45    41    39   ar
    46    53    52    1
    47   125   124    1
    48    10    11   ar
    49    52    51    1
    50    52    55    1
    51   110   109    2
    52   109   108    1
    53    37    39   ar
    54    56    55    1
    55    56    58    1
    56   112   111    1
    57   111   108    1
    58   111   113    1
    59   124   121    1
    60    43    42    1
    61    43    46    1
    62   108   107    1
    63    46    47    1
    64    64    63    1
    65    49    48    2
    66   121   120    1
    67   121   122    1
    68   123   122    2
    69    47    48    1
    70   122   128   am
    71    48    50   am
    72    63    65    1
    73    63    60    1
    74    59    60    1
    75   128   129    1
    76    60    61    1
    77    98    97    1
    78    72    70    1
    79   129   130    1
    80    71    70    1
    81    99    97    1
    82    70    67    1
    83    97    94    1
    84    61    62    2
    85   103   102    2
    86   130   132   am
    87   130   131    2
    88   138   136    1
    89   132   133    1
    90   102   101    1
    91    67    66    1
    92    67    68    1
    93    94    95    1
    94    94    93    1
    95    96    95    2
    96    95   100   am
    97   136   133    1
    98   136   137    1
    99   100   101    1
   100   133   134    1
   101    68    73   am
   102    68    69    2
   103    73    74    1
   104   101   104    1
   105    77    74    1
   106    92    90    1
   107   135   134    2
   108    74    75    1
   109   105   104    1
   110   104   106    1
   111    91    90    1
   112    90    89    1
   113    89    86    1
   114    75    76    2
   115    86    87    1
   116    86    85    1
   117    87    88    2
   118    84    82    1
   119   114   115    1
   120   115   116    1
   121   115   118    1
   122   116   117    2
   123    82    83    1
   124    82    79    1
   125    78    79    1
   126   118   119    1
   127    79    80    1
   128    80    81    2
