@<TRIPOS>MOLECULE
tmp/3p41A00.pdb
 131 122 0 0 0
SMALL
GASTEIGER

@<TRIPOS>ATOM
      1  N        -25.5310    9.3000   29.8240 N.3    41  ASN41      -0.1240
      2  CA       -25.6120   10.4840   28.9680 C.3    41  ASN41       0.1653
      3  C        -26.4110   10.2380   27.6880 C.2    41  ASN41       0.2266
      4  O        -26.6320   11.1630   26.9080 O.2    41  ASN41      -0.2867
      5  CB       -24.2020   10.9800   28.6050 C.3    41  ASN41       0.1155
      6  CG       -23.3080    9.8660   28.0350 C.2    41  ASN41       0.2627
      7  OD1      -23.8020    8.8440   27.5400 O.2    41  ASN41      -0.2716
      8  ND2      -21.9890   10.0660   28.1010 N.am   41  ASN41      -0.0877
      9  N        -25.5320    7.9310   25.3070 N.3    43  GLY43      -0.1210
     10  CA       -24.6720    7.4740   24.2130 C.3    43  GLY43       0.1956
     11  C        -24.8350    6.0060   23.8240 C.2    43  GLY43       0.2612
     12  O        -25.4000    5.2040   24.5650 O.2    43  GLY43      -0.2717
     13  N        -24.3170    5.6310   22.6580 N.am   44  LYS44      -0.1965
     14  CA       -24.4710    4.2650   22.1790 C.3    44  LYS44       0.1728
     15  C        -23.3100    3.3390   22.5890 C.2    44  LYS44       0.2616
     16  O        -23.2320    2.2110   22.1210 O.2    44  LYS44      -0.2715
     17  CB       -24.6260    4.2780   20.6530 C.3    44  LYS44       0.0311
     18  CG       -25.7860    5.1370   20.1760 C.3    44  LYS44       0.0038
     19  CD       -27.1270    4.5280   20.5760 C.3    44  LYS44       0.0206
     20  CE       -27.2640    3.1120   20.0150 C.3    44  LYS44       0.1093
     21  NZ       -28.6680    2.5940   19.9980 N.3    44  LYS44      -0.1314
     22  N        -22.4190    3.8140   23.4730 N.am   45  ARG45      -0.1963
     23  CA       -21.2300    3.0630   23.8990 C.3    45  ARG45       0.1729
     24  C        -20.4240    2.5100   22.7420 C.2    45  ARG45       0.2616
     25  O        -20.0630    1.3330   22.7480 O.2    45  ARG45      -0.2715
     26  CB       -21.6110    1.8700   24.7800 C.3    45  ARG45       0.0348
     27  CG       -22.6380    2.1670   25.8690 C.3    45  ARG45       0.0492
     28  CD       -22.1400    3.2150   26.8060 C.3    45  ARG45       0.2205
     29  NE       -23.0770    3.3220   27.9310 N.pl3  45  ARG45      -0.0865
     30  CZ       -23.2520    4.4050   28.6810 C.cat  45  ARG45       0.5346
     31  NH1      -22.5380    5.5030   28.4500 N.pl3  45  ARG45       0.1354
     32  NH2      -24.1440    4.3810   29.6770 N.pl3  45  ARG45       0.1354
     33  N        -20.1920    3.3260   21.7270 N.am   46  VAL46      -0.1963
     34  CA       -19.5090    2.8370   20.5420 C.3    46  VAL46       0.1727
     35  C        -18.0630    2.5110   20.8380 C.2    46  VAL46       0.2616
     36  O        -17.4670    1.6500   20.2100 O.2    46  VAL46      -0.2715
     37  CB       -19.5550    3.8700   19.4190 C.3    46  VAL46       0.0290
     38  CG1      -18.8680    3.2940   18.2010 C.3    46  VAL46       0.0023
     39  CG2      -21.0000    4.2370   19.1010 C.3    46  VAL46       0.0023
     40  N        -17.4860    3.1480   21.8590 N.am   47  ARG47      -0.1977
     41  CA       -16.0730    2.9050   22.1230 C.3    47  ARG47       0.1597
     42  C        -15.8660    1.5330   22.7690 C.2    47  ARG47       0.2287
     43  O        -15.0070    0.7550   22.3510 O.2    47  ARG47      -0.2864
     44  CB       -15.4240    4.0640   22.8950 C.3    47  ARG47       0.0334
     45  CG       -15.1990    5.3010   21.9910 C.3    47  ARG47       0.0492
     46  CD       -14.9470    6.5900   22.7520 C.3    47  ARG47       0.2205
     47  NE       -14.9910    7.7490   21.8470 N.pl3  47  ARG47      -0.0865
     48  CZ       -16.1030    8.2880   21.3480 C.cat  47  ARG47       0.5346
     49  NH1      -17.3010    7.7830   21.6270 N.pl3  47  ARG47       0.1354
     50  NH2      -16.0190    9.3390   20.5240 N.pl3  47  ARG47       0.1354
     51  N        -16.2750   -1.0020   20.1300 N.3    50  LEU50      -0.1245
     52  CA       -14.9690   -1.1680   19.4920 C.3    50  LEU50       0.1561
     53  C        -13.9790   -2.0610   20.2580 C.2    50  LEU50       0.2260
     54  O        -13.3940   -2.9300   19.6600 O.2    50  LEU50      -0.2867
     55  CB       -14.3460    0.2040   19.1710 C.3    50  LEU50       0.0270
     56  CG       -14.9940    0.9160   17.9740 C.3    50  LEU50       0.0019
     57  CD1      -14.6390    2.3590   18.1050 C.3    50  LEU50       0.0001
     58  CD2      -14.5610    0.3140   16.5780 C.3    50  LEU50       0.0001
     59  N        -14.9220    4.3320   27.8030 N.3    73  GLU73      -0.1245
     60  CA       -16.1640    5.0270   28.0170 C.3    73  GLU73       0.1567
     61  C        -16.0680    6.0810   29.1360 C.2    73  GLU73       0.2260
     62  O        -16.7330    7.1220   29.1050 O.2    73  GLU73      -0.2867
     63  CB       -17.3230    4.0370   28.2240 C.3    73  GLU73       0.0388
     64  CG       -18.7130    4.6730   28.2170 C.3    73  GLU73       0.1160
     65  CD       -19.1550    5.2190   26.8530 C.2    73  GLU73       0.3649
     66  OE1      -18.4920    4.9050   25.8400 O.co2  73  GLU73      -0.2457
     67  OE2      -20.1960    5.9110   26.8020 O.co2  73  GLU73      -0.2457
     68  N        -14.2720    8.9740   27.6440 N.3    76  HIS76      -0.1241
     69  CA       -15.2360    9.6710   26.8030 C.3    76  HIS76       0.1621
     70  C        -16.2510   10.4950   27.6230 C.2    76  HIS76       0.2264
     71  O        -16.4800   11.6920   27.3670 O.2    76  HIS76      -0.2867
     72  CB       -15.9040    8.6510   25.8490 C.3    76  HIS76       0.0745
     73  CG       -16.9940    9.2240   25.0040 C.ar   76  HIS76       0.0817
     74  ND1      -16.7650   10.2050   24.0650 N.ar   76  HIS76      -0.2268
     75  CD2      -18.3150    8.9400   24.9400 C.ar   76  HIS76       0.1154
     76  CE1      -17.9040   10.5230   23.4790 C.ar   76  HIS76       0.1986
     77  NE2      -18.8590    9.7640   23.9840 N.ar   76  HIS76      -0.2212
     78  N        -16.8060   14.8870   27.7550 N.3    80  LEU80      -0.1245
     79  CA       -18.0490   15.5480   27.4300 C.3    80  LEU80       0.1561
     80  C        -18.4700   16.4670   28.5710 C.2    80  LEU80       0.2260
     81  O        -18.9220   17.5900   28.3600 O.2    80  LEU80      -0.2867
     82  CB       -19.1460   14.5100   27.1520 C.3    80  LEU80       0.0270
     83  CG       -18.9000   13.5320   26.0040 C.3    80  LEU80       0.0019
     84  CD1      -20.0720   12.5460   25.9280 C.3    80  LEU80       0.0001
     85  CD2      -18.7120   14.2710   24.6940 C.3    80  LEU80       0.0001
     86  N        -27.8520   15.6540   24.0510 N.3    94  ARG94      -0.1245
     87  CA       -28.7190   14.5720   23.6560 C.3    94  ARG94       0.1563
     88  C        -30.0680   14.7050   24.3300 C.2    94  ARG94       0.2260
     89  O        -30.6230   13.7490   24.7650 O.2    94  ARG94      -0.2867
     90  CB       -28.0840   13.2230   23.9190 C.3    94  ARG94       0.0307
     91  CG       -27.0430   12.8650   22.8630 C.3    94  ARG94       0.0489
     92  CD       -26.6330   11.4250   22.9350 C.3    94  ARG94       0.2205
     93  NE       -25.9150   10.9860   21.7450 N.pl3  94  ARG94      -0.0865
     94  CZ       -24.6360   10.6740   21.7260 C.cat  94  ARG94       0.5346
     95  NH1      -24.0840   10.2640   20.6160 N.pl3  94  ARG94       0.1354
     96  NH2      -23.8590   11.0750   22.7020 N.pl3  94  ARG94       0.1354
     97  N        -10.5780    6.6840   19.6970 N.3   180  ILE180     -0.1245
     98  CA       -11.1000    5.5990   18.8750 C.3   180  ILE180      0.1561
     99  C        -10.0420    4.5200   18.6230 C.2   180  ILE180      0.2260
    100  O        -10.2970    3.3280   18.8210 O.2   180  ILE180     -0.2867
    101  CB       -11.7400    6.1640   17.5760 C.3   180  ILE180      0.0252
    102  CG1      -13.0450    6.9010   17.9500 C.3   180  ILE180      0.0019
    103  CG2      -11.9630    5.0440   16.5500 C.3   180  ILE180      0.0019
    104  CD1      -13.6230    7.7290   16.7960 C.3   180  ILE180      0.0001
    105  N        -12.0780    4.8640   10.3010 N.3   209  ILE209     -0.1245
    106  CA       -13.4390    5.1050   10.7660 C.3   209  ILE209      0.1561
    107  C        -13.5710    6.3890   11.5750 C.2   209  ILE209      0.2260
    108  O        -14.6360    7.0110   11.5720 O.2   209  ILE209     -0.2867
    109  CB       -14.0770    3.9070   11.5490 C.3   209  ILE209      0.0252
    110  CG1      -13.3620    3.6700   12.8860 C.3   209  ILE209      0.0019
    111  CG2      -14.1660    2.6640   10.6640 C.3   209  ILE209      0.0019
    112  CD1      -14.1870    2.8070   13.9110 C.3   209  ILE209      0.0001
    113  N        -16.3330    9.0760   10.4080 N.3   213  PHE213     -0.1241
    114  CA       -17.3590    9.6240   11.2570 C.3   213  PHE213      0.1605
    115  C        -17.4910   11.1640   11.1970 C.2   213  PHE213      0.2264
    116  O        -18.6030   11.7130   11.2130 O.2   213  PHE213     -0.2867
    117  CB       -17.0760    9.2030   12.7060 C.3   213  PHE213      0.0534
    118  CG       -18.0180    9.8030   13.6750 C.ar  213  PHE213     -0.0203
    119  CD1      -17.6020   10.8110   14.5310 C.ar  213  PHE213     -0.0042
    120  CD2      -19.3390    9.3920   13.7050 C.ar  213  PHE213     -0.0042
    121  CE1      -18.4870   11.3850   15.4260 C.ar  213  PHE213     -0.0003
    122  CE2      -20.2400    9.9610   14.5970 C.ar  213  PHE213     -0.0003
    123  CZ       -19.8130   10.9570   15.4600 C.ar  213  PHE213     -0.0000
    124  N        -21.4240    3.8550    9.6690 N.3   272  ILE272     -0.1245
    125  CA       -20.9780    5.2160    9.9330 C.3   272  ILE272      0.1561
    126  C        -21.1910    6.1090    8.7130 C.2   272  ILE272      0.2260
    127  O        -21.5860    7.2590    8.8460 O.2   272  ILE272     -0.2867
    128  CB       -19.5110    5.1980   10.3910 C.3   272  ILE272      0.0252
    129  CG1      -19.4700    4.7840   11.8760 C.3   272  ILE272      0.0019
    130  CG2      -18.8360    6.5580   10.1780 C.3   272  ILE272      0.0019
    131  CD1      -18.0570    4.5890   12.4120 C.3   272  ILE272      0.0001
@<TRIPOS>BOND
     1   126   127    2
     2   126   125    1
     3   124   125    1
     4   125   128    1
     5   130   128    1
     6   105   106    1
     7   128   129    1
     8   113   114    1
     9   111   109    1
    10   106   109    1
    11   106   107    1
    12   115   116    2
    13   115   114    1
    14   114   117    1
    15   109   110    1
    16   108   107    2
    17   129   131    1
    18   117   118    1
    19   110   112    1
    20   118   120   ar
    21   118   119   ar
    22   120   122   ar
    23   119   121   ar
    24   122   123   ar
    25   121   123   ar
    26   103   101    1
    27    58    56    1
    28   104   102    1
    29   101   102    1
    30   101    98    1
    31    56    57    1
    32    56    55    1
    33    38    37    1
    34    99   100    2
    35    99    98    1
    36    98    97    1
    37    39    37    1
    38    55    52    1
    39    37    34    1
    40    52    51    1
    41    52    53    1
    42    54    53    2
    43    21    20    1
    44    20    19    1
    45    18    19    1
    46    18    17    1
    47    36    35    2
    48    50    48    1
    49    34    35    1
    50    34    33    1
    51    95    94    1
    52    17    14    1
    53    35    40   am
    54    48    49    1
    55    48    47    2
    56    94    93    2
    57    94    96    1
    58    33    24   am
    59    93    92    1
    60    47    46    1
    61    40    41    1
    62    45    46    1
    63    45    44    1
    64    16    15    2
    65    41    42    1
    66    41    44    1
    67    14    15    1
    68    14    13    1
    69    43    42    2
    70    15    22   am
    71    13    11   am
    72    24    25    2
    73    24    23    1
    74    91    92    1
    75    91    90    1
    76    22    23    1
    77    76    77   ar
    78    76    74   ar
    79    87    90    1
    80    87    86    1
    81    87    88    1
    82    11    10    1
    83    11    12    2
    84    23    26    1
    85    77    75   ar
    86    74    73   ar
    87    10     9    1
    88    88    89    2
    89    85    83    1
    90    26    27    1
    91    75    73   ar
    92    73    72    1
    93    66    65   ar
    94    72    69    1
    95    27    28    1
    96    84    83    1
    97    83    82    1
    98    67    65   ar
    99    69    70    1
   100    69    68    1
   101    28    29    1
   102    65    64    1
   103     4     3    2
   104    82    79    1
   105    71    70    2
   106    79    78    1
   107    79    80    1
   108     7     6    2
   109     3     2    1
   110    59    60    1
   111    29    30    2
   112    60    63    1
   113    60    61    1
   114     6     8   am
   115     6     5    1
   116    64    63    1
   117    81    80    2
   118    31    30    1
   119     5     2    1
   120    30    32    1
   121     2     1    1
   122    62    61    2
