@<TRIPOS>MOLECULE
tmp/3p41A01.pdb
 92 84 0 0 0
SMALL
GASTEIGER

@<TRIPOS>ATOM
      1  N        -14.2720    8.9740   27.6440 N.3    76  HIS76      -0.1241
      2  CA       -15.2360    9.6710   26.8030 C.3    76  HIS76       0.1621
      3  C        -16.2510   10.4950   27.6230 C.2    76  HIS76       0.2264
      4  O        -16.4800   11.6920   27.3670 O.2    76  HIS76      -0.2867
      5  CB       -15.9040    8.6510   25.8490 C.3    76  HIS76       0.0745
      6  CG       -16.9940    9.2240   25.0040 C.ar   76  HIS76       0.0817
      7  ND1      -16.7650   10.2050   24.0650 N.ar   76  HIS76      -0.2268
      8  CD2      -18.3150    8.9400   24.9400 C.ar   76  HIS76       0.1154
      9  CE1      -17.9040   10.5230   23.4790 C.ar   76  HIS76       0.1986
     10  NE2      -18.8590    9.7640   23.9840 N.ar   76  HIS76      -0.2212
     11  N        -14.6140   13.6200   29.1450 N.3    79  SER79      -0.1202
     12  CA       -14.3930   14.6540   28.1180 C.3    79  SER79       0.2020
     13  C        -15.6290   15.5130   27.7850 C.2    79  SER79       0.2618
     14  O        -15.5170   16.7150   27.5590 O.2    79  SER79      -0.2717
     15  CB       -13.7650   14.0490   26.8400 C.3    79  SER79       0.2103
     16  OG       -14.7190   13.3450   26.0920 O.3    79  SER79      -0.2182
     17  N        -16.8060   14.8870   27.7550 N.am   80  LEU80      -0.1979
     18  CA       -18.0490   15.5480   27.4300 C.3    80  LEU80       0.1596
     19  C        -18.4700   16.4670   28.5710 C.2    80  LEU80       0.2287
     20  O        -18.9220   17.5900   28.3600 O.2    80  LEU80      -0.2864
     21  CB       -19.1460   14.5100   27.1520 C.3    80  LEU80       0.0297
     22  CG       -18.9000   13.5320   26.0040 C.3    80  LEU80       0.0022
     23  CD1      -20.0720   12.5460   25.9280 C.3    80  LEU80       0.0001
     24  CD2      -18.7120   14.2710   24.6940 C.3    80  LEU80       0.0001
     25  N        -16.2820   19.4110   28.3780 N.3    83  ASP83      -0.1239
     26  CA       -16.5460   20.0960   27.0880 C.3    83  ASP83       0.1674
     27  C        -17.8110   20.9880   27.1560 C.2    83  ASP83       0.2266
     28  O        -17.8530   22.1080   26.6220 O.2    83  ASP83      -0.2867
     29  CB       -16.6400   19.0810   25.9530 C.3    83  ASP83       0.1410
     30  CG       -16.9940   19.7230   24.6150 C.2    83  ASP83       0.3668
     31  OD1      -16.0660   20.1310   23.9000 O.co2  83  ASP83      -0.2456
     32  OD2      -18.1860   19.7880   24.2720 O.co2  83  ASP83      -0.2456
     33  N        -17.6990   24.9320   25.8770 N.3    88  ASP88      -0.1239
     34  CA       -18.7870   25.0840   24.9130 C.3    88  ASP88       0.1674
     35  C        -20.0530   25.7100   25.4980 C.2    88  ASP88       0.2266
     36  O        -20.9200   26.1510   24.7560 O.2    88  ASP88      -0.2867
     37  CB       -19.0880   23.7600   24.2440 C.3    88  ASP88       0.1410
     38  CG       -17.9950   23.3570   23.3150 C.2    88  ASP88       0.3668
     39  OD1      -18.0160   22.2230   22.7870 O.co2  88  ASP88      -0.2456
     40  OD2      -17.1020   24.2090   23.1250 O.co2  88  ASP88      -0.2456
     41  N        -22.7930   24.5290   26.9800 N.3    90  ASP90      -0.1239
     42  CA       -24.0110   23.8560   26.5890 C.3    90  ASP90       0.1674
     43  C        -24.8420   23.4800   27.8150 C.2    90  ASP90       0.2266
     44  O        -24.3060   22.9900   28.8280 O.2    90  ASP90      -0.2867
     45  CB       -23.7040   22.6350   25.7420 C.3    90  ASP90       0.1410
     46  CG       -23.6320   22.9790   24.2660 C.2    90  ASP90       0.3668
     47  OD1      -24.4050   23.8550   23.8500 O.co2  90  ASP90      -0.2456
     48  OD2      -22.8140   22.3900   23.5310 O.co2  90  ASP90      -0.2456
     49  N        -27.3800   18.0760   26.4460 N.3    93  ARG93      -0.1245
     50  CA       -26.6660   17.0870   25.6390 C.3    93  ARG93       0.1563
     51  C        -27.6260   15.9380   25.3270 C.2    93  ARG93       0.2260
     52  O        -28.1940   15.3390   26.2380 O.2    93  ARG93      -0.2867
     53  CB       -25.4180   16.5540   26.3700 C.3    93  ARG93       0.0307
     54  CG       -24.5290   15.6590   25.5090 C.3    93  ARG93       0.0489
     55  CD       -23.1410   15.4130   26.1390 C.3    93  ARG93       0.2205
     56  NE       -22.1980   16.4950   25.8750 N.pl3  93  ARG93      -0.0865
     57  CZ       -21.5770   16.6400   24.7020 C.cat  93  ARG93       0.5346
     58  NH1      -20.7080   17.6300   24.4910 N.pl3  93  ARG93       0.1354
     59  NH2      -21.8260   15.7650   23.7510 N.pl3  93  ARG93       0.1354
     60  N         -8.8120   19.0370   21.9570 N.3   153  GLN153     -0.1245
     61  CA        -9.6320   20.0590   22.5600 C.3   153  GLN153      0.1566
     62  C         -8.9200   21.4060   22.5560 C.2   153  GLN153      0.2260
     63  O         -9.5320   22.4500   22.3740 O.2   153  GLN153     -0.2867
     64  CB        -9.9220   19.6430   24.0270 C.3   153  GLN153      0.0367
     65  CG       -10.9250   18.4860   24.1670 C.3   153  GLN153      0.0905
     66  CD       -12.3180   18.8800   23.7080 C.2   153  GLN153      0.2608
     67  OE1      -12.5950   18.9550   22.5090 O.2   153  GLN153     -0.2717
     68  NE2      -13.2110   19.1090   24.6580 N.am  153  GLN153     -0.0878
     69  N         -8.8580   22.6840   19.0450 N.3   156  ASP156     -0.1239
     70  CA       -10.1950   23.2250   18.8350 C.3   156  ASP156      0.1674
     71  C        -10.3000   24.6680   19.3570 C.2   156  ASP156      0.2266
     72  O        -10.6300   25.5810   18.5950 O.2   156  ASP156     -0.2867
     73  CB       -11.2540   22.2860   19.4680 C.3   156  ASP156      0.1410
     74  CG       -12.6970   22.5480   18.9530 C.2   156  ASP156      0.3668
     75  OD1      -12.9540   23.6520   18.4210 O.co2 156  ASP156     -0.2456
     76  OD2      -13.5760   21.6440   19.0910 O.co2 156  ASP156     -0.2456
     77  N         -8.6960   15.1060   18.6900 N.3   175  LYS175     -0.1231
     78  CA        -9.9420   15.2590   19.4210 C.3   175  LYS175      0.1693
     79  C        -10.7670   13.9630   19.5430 C.2   175  LYS175      0.2592
     80  O        -11.2530   13.6120   20.6260 O.2   175  LYS175     -0.2718
     81  CB       -10.7880   16.3720   18.8050 C.3   175  LYS175      0.0285
     82  CG       -11.9020   16.8260   19.7360 C.3   175  LYS175      0.0035
     83  CD       -12.4410   18.2050   19.3700 C.3   175  LYS175      0.0206
     84  CE       -13.3510   18.1260   18.1660 C.3   175  LYS175      0.1093
     85  NZ       -14.3230   19.2740   18.0900 N.3   175  LYS175     -0.1314
     86  N        -10.9200   13.2400   18.4420 N.am  176  THR176     -0.1953
     87  CA       -11.6680   11.9830   18.4910 C.3   176  THR176      0.1897
     88  C        -10.8870   10.7540   17.9670 C.2   176  THR176      0.2313
     89  O        -11.1260    9.6470   18.4200 O.2   176  THR176     -0.2863
     90  CB       -13.0050   12.0860   17.7290 C.3   176  THR176      0.1794
     91  OG1      -12.7530   12.5050   16.3790 O.3   176  THR176     -0.2208
     92  CG2      -13.9640   13.0640   18.4130 C.3   176  THR176      0.0378
@<TRIPOS>BOND
     1    91    90    1
     2    90    92    1
     3    90    87    1
     4    88    89    2
     5    88    87    1
     6    85    84    1
     7    84    83    1
     8    75    74   ar
     9    86    87    1
    10    86    79   am
    11    72    71    2
    12    77    78    1
    13    81    78    1
    14    81    82    1
    15    70    69    1
    16    70    71    1
    17    70    73    1
    18    74    76   ar
    19    74    73    1
    20    83    82    1
    21    78    79    1
    22    79    80    2
    23    60    61    1
    24    63    62    2
    25    67    66    2
    26    62    61    1
    27    61    64    1
    28    39    38   ar
    29    40    38   ar
    30    38    37    1
    31     9    10   ar
    32     9     7   ar
    33    48    46   ar
    34    66    65    1
    35    66    68   am
    36    59    57    1
    37    47    46   ar
    38    31    30   ar
    39    10     8   ar
    40    64    65    1
    41     7     6   ar
    42    37    34    1
    43    46    45    1
    44    32    30   ar
    45    58    57    1
    46    30    29    1
    47    24    22    1
    48    57    56    2
    49    36    35    2
    50    34    35    1
    51    34    33    1
    52     8     6   ar
    53     6     5    1
    54    51    50    1
    55    51    52    2
    56    54    55    1
    57    54    53    1
    58    50    53    1
    59    50    49    1
    60    45    42    1
    61     5     2    1
    62    56    55    1
    63    23    22    1
    64    29    26    1
    65    22    21    1
    66    16    15    1
    67    42    41    1
    68    42    43    1
    69    28    27    2
    70     2     3    1
    71     2     1    1
    72    15    12    1
    73    26    27    1
    74    26    25    1
    75    21    18    1
    76     4     3    2
    77    18    17    1
    78    18    19    1
    79    14    13    2
    80    17    13   am
    81    13    12    1
    82    43    44    2
    83    12    11    1
    84    20    19    2
