@<TRIPOS>MOLECULE
tmp/3p48C00.pdb
 87 83 0 0 0
SMALL
GASTEIGER

@<TRIPOS>ATOM
      1  N        -17.8170   22.1090  -26.9090 N.3    60  ILE60      -0.1245
      2  CA       -19.0390   22.8640  -27.1770 C.3    60  ILE60       0.1561
      3  C        -19.2360   23.6870  -25.9440 C.2    60  ILE60       0.2260
      4  O        -19.5750   23.2050  -24.8680 O.2    60  ILE60      -0.2867
      5  CB       -20.2540   21.9460  -27.3890 C.3    60  ILE60       0.0252
      6  CG1      -19.9620   20.8750  -28.4300 C.3    60  ILE60       0.0019
      7  CG2      -21.5110   22.8040  -27.7290 C.3    60  ILE60       0.0019
      8  CD1      -19.5500   21.3850  -29.7560 C.3    60  ILE60       0.0001
      9  N        -24.6230   21.7930  -21.8620 N.3    75  GLY75      -0.1210
     10  CA       -24.2620   20.5930  -21.1150 C.3    75  GLY75       0.1956
     11  C        -23.2660   19.7820  -21.9120 C.2    75  GLY75       0.2612
     12  O        -22.8750   20.1630  -23.0200 O.2    75  GLY75      -0.2717
     13  N        -22.8550   18.6390  -21.3560 N.am   76  ALA76      -0.1965
     14  CA       -21.9570   17.7190  -22.0250 C.3    76  ALA76       0.1728
     15  C        -20.7970   18.4890  -22.6460 C.2    76  ALA76       0.2617
     16  O        -20.0650   19.1400  -21.9160 O.2    76  ALA76      -0.2715
     17  CB       -22.6990   16.8370  -23.0900 C.3    76  ALA76       0.0334
     18  N        -20.5730   18.3540  -23.9510 N.am   77  GLY77      -0.1940
     19  CA       -19.6970   19.3170  -24.5990 C.3    77  GLY77       0.2014
     20  C        -18.3250   18.8360  -25.0170 C.2    77  GLY77       0.2639
     21  O        -17.5710   19.5820  -25.6420 O.2    77  GLY77      -0.2714
     22  N        -17.9880   17.5860  -24.7150 N.am   78  VAL78      -0.1963
     23  CA       -16.6480   17.0630  -25.0660 C.3    78  VAL78       0.1727
     24  C        -16.7130   16.2590  -26.3700 C.2    78  VAL78       0.2616
     25  O        -17.2530   15.1530  -26.3820 O.2    78  VAL78      -0.2715
     26  CB       -16.0980   16.1710  -23.9450 C.3    78  VAL78       0.0290
     27  CG1      -14.7290   15.5610  -24.3330 C.3    78  VAL78       0.0023
     28  CG2      -15.9860   17.0120  -22.6400 C.3    78  VAL78       0.0023
     29  N        -16.1590   16.8280  -27.4430 N.am   79  VAL79      -0.1963
     30  CA       -16.1680   16.1620  -28.7490 C.3    79  VAL79       0.1727
     31  C        -14.7700   15.6350  -29.0730 C.2    79  VAL79       0.2616
     32  O        -13.8380   16.4040  -29.2480 O.2    79  VAL79      -0.2715
     33  CB       -16.7190   17.0740  -29.8530 C.3    79  VAL79       0.0290
     34  CG1      -16.7510   16.3070  -31.2260 C.3    79  VAL79       0.0023
     35  CG2      -18.1250   17.5140  -29.5010 C.3    79  VAL79       0.0023
     36  N        -14.6110   14.3090  -29.1850 N.am   80  ASP80      -0.1971
     37  CA       -13.3180   13.7400  -29.4810 C.3    80  ASP80       0.1709
     38  C        -12.8770   14.0090  -30.9290 C.2    80  ASP80       0.2293
     39  O        -13.6960   14.1030  -31.8180 O.2    80  ASP80      -0.2864
     40  CB       -13.3560   12.2130  -29.3560 C.3    80  ASP80       0.1436
     41  CG       -13.6570   11.7310  -27.9590 C.2    80  ASP80       0.3671
     42  OD1      -14.1720   10.5940  -27.8680 O.co2  80  ASP80      -0.2456
     43  OD2      -13.3700   12.4390  -26.9640 O.co2  80  ASP80      -0.2456
     44  N        -14.4080   11.6360  -33.5530 N.3    83  TYR83      -0.1241
     45  CA       -15.8530   11.4920  -33.6620 C.3    83  TYR83       0.1605
     46  C        -16.3520   11.8570  -35.0410 C.2    83  TYR83       0.2264
     47  O        -16.0700   12.9400  -35.5210 O.2    83  TYR83      -0.2867
     48  CB       -16.5250   12.4340  -32.6790 C.3    83  TYR83       0.0534
     49  CG       -18.0210   12.3770  -32.7210 C.ar   83  TYR83      -0.0201
     50  CD1      -18.6870   11.2340  -32.3500 C.ar   83  TYR83      -0.0009
     51  CD2      -18.7700   13.4890  -33.0530 C.ar   83  TYR83      -0.0009
     52  CE1      -20.0750   11.1870  -32.3350 C.ar   83  TYR83       0.0417
     53  CE2      -20.1540   13.4640  -33.0150 C.ar   83  TYR83       0.0417
     54  CZ       -20.8010   12.2830  -32.6720 C.ar   83  TYR83       0.1957
     55  OH       -22.1790   12.2020  -32.6450 O.3    83  TYR83      -0.2866
     56  N        -23.0020   13.0660  -36.0560 N.3    86  GLU86      -0.1231
     57  CA       -23.5140   14.4460  -36.0200 C.3    86  GLU86       0.1699
     58  C        -23.2120   15.0510  -34.6590 C.2    86  GLU86       0.2592
     59  O        -23.4860   14.4370  -33.6080 O.2    86  GLU86      -0.2718
     60  CB       -25.0200   14.5020  -36.2550 C.3    86  GLU86       0.0402
     61  CG       -25.5390   15.9430  -36.2380 C.3    86  GLU86       0.1161
     62  CD       -27.0480   16.0650  -36.3530 C.2    86  GLU86       0.3649
     63  OE1      -27.7450   15.0600  -36.6360 O.co2  86  GLU86      -0.2457
     64  OE2      -27.5260   17.1950  -36.1370 O.co2  86  GLU86      -0.2457
     65  N        -22.6660   16.2630  -34.6660 N.am   87  VAL87      -0.1966
     66  CA       -22.4430   16.9680  -33.4030 C.3    87  VAL87       0.1727
     67  C        -23.7490   17.5860  -32.9130 C.2    87  VAL87       0.2616
     68  O        -24.4740   18.2140  -33.6650 O.2    87  VAL87      -0.2715
     69  CB       -21.3120   18.0110  -33.5500 C.3    87  VAL87       0.0290
     70  CG1      -21.1030   18.7600  -32.2420 C.3    87  VAL87       0.0023
     71  CG2      -20.0120   17.2880  -33.9120 C.3    87  VAL87       0.0023
     72  N        -24.1220   17.3000  -31.6770 N.am   88  LYS88      -0.1977
     73  CA       -25.3480   17.8160  -31.1190 C.3    88  LYS88       0.1596
     74  C        -25.0250   18.6840  -29.9420 C.2    88  LYS88       0.2287
     75  O        -24.0730   18.4250  -29.2340 O.2    88  LYS88      -0.2864
     76  CB       -26.3120   16.7150  -30.7030 C.3    88  LYS88       0.0298
     77  CG       -26.8540   15.9260  -31.9210 C.3    88  LYS88       0.0038
     78  CD       -28.2160   15.3300  -31.6460 C.3    88  LYS88       0.0206
     79  CE       -28.6310   14.3910  -32.7410 C.3    88  LYS88       0.1093
     80  NZ       -28.3070   14.9650  -34.0330 N.3    88  LYS88      -0.1314
     81  N        -26.1790   19.9200  -26.3320 N.3    90  VAL90      -0.1245
     82  CA       -27.0280   19.6520  -25.1790 C.3    90  VAL90       0.1561
     83  C        -27.2620   20.9670  -24.4620 C.2    90  VAL90       0.2260
     84  O        -26.2930   21.6270  -24.0690 O.2    90  VAL90      -0.2867
     85  CB       -26.3230   18.6960  -24.2130 C.3    90  VAL90       0.0252
     86  CG1      -27.2140   18.4520  -23.0030 C.3    90  VAL90       0.0019
     87  CG2      -26.0610   17.3570  -24.9390 C.3    90  VAL90       0.0019
@<TRIPOS>BOND
     1    63    62   ar
     2    62    61    1
     3    62    64   ar
     4    60    61    1
     5    60    57    1
     6    56    57    1
     7    57    58    1
     8    47    46    2
     9    46    45    1
    10    65    58   am
    11    65    66    1
    12    58    59    2
    13    80    79    1
    14    71    69    1
    15    68    67    2
    16    45    44    1
    17    45    48    1
    18    69    66    1
    19    69    70    1
    20    66    67    1
    21    51    53   ar
    22    51    49   ar
    23    53    54   ar
    24    67    72   am
    25    79    78    1
    26    49    48    1
    27    49    50   ar
    28    54    55    1
    29    54    52   ar
    30    50    52   ar
    31    77    78    1
    32    77    76    1
    33    39    38    2
    34    72    73    1
    35    34    33    1
    36    73    76    1
    37    73    74    1
    38    38    37    1
    39    74    75    2
    40    33    35    1
    41    33    30    1
    42     8     6    1
    43    37    40    1
    44    37    36    1
    45    40    41    1
    46    32    31    2
    47    36    31   am
    48    31    30    1
    49    30    29    1
    50     6     5    1
    51    41    42   ar
    52    41    43   ar
    53     7     5    1
    54    29    24   am
    55     5     2    1
    56     2     1    1
    57     2     3    1
    58    25    24    2
    59    24    23    1
    60    81    82    1
    61     3     4    2
    62    21    20    2
    63    82    83    1
    64    82    85    1
    65    23    22    1
    66    23    26    1
    67    20    22   am
    68    20    19    1
    69    87    85    1
    70    19    18    1
    71    83    84    2
    72    27    26    1
    73    85    86    1
    74    18    15   am
    75    26    28    1
    76    17    14    1
    77    12    11    2
    78    15    14    1
    79    15    16    2
    80    14    13    1
    81    11    13   am
    82    11    10    1
    83     9    10    1
