@<TRIPOS>MOLECULE
tmp/3p4eA01.pdb
 66 63 0 0 0
SMALL
GASTEIGER

@<TRIPOS>ATOM
      1  N         36.4050   42.9140    6.4060 N.3    47  THR47      -0.1218
      2  CA        37.4900   43.7240    6.0600 C.3    47  THR47       0.1862
      3  C         38.4660   43.0210    5.1720 C.2    47  THR47       0.2287
      4  O         39.3500   43.7010    4.6520 O.2    47  THR47      -0.2866
      5  CB        38.2490   44.1170    7.3920 C.3    47  THR47       0.1770
      6  OG1       37.2610   44.6050    8.2910 O.3    47  THR47      -0.2211
      7  CG2       39.3260   45.2650    7.1070 C.3    47  THR47       0.0375
      8  N         38.5390   34.6820    7.0970 N.3   169  SER169     -0.1202
      9  CA        37.9340   35.9770    6.7820 C.3   169  SER169      0.2020
     10  C         37.6880   36.7980    8.0330 C.2   169  SER169      0.2619
     11  O         36.8460   37.6920    8.0350 O.2   169  SER169     -0.2717
     12  CB        36.5880   35.7910    6.0430 C.3   169  SER169      0.2103
     13  OG        36.7430   35.0890    4.8720 O.3   169  SER169     -0.2182
     14  N         38.4130   36.5210    9.1200 N.am  170  ASN170     -0.1960
     15  CA        38.2320   37.2420   10.3760 C.3   170  ASN170      0.1819
     16  C         39.5900   37.7590   10.9050 C.2   170  ASN170      0.2622
     17  O         40.6470   37.1900   10.6310 O.2   170  ASN170     -0.2715
     18  CB        37.5120   36.3760   11.4260 C.3   170  ASN170      0.1195
     19  CG        36.0250   36.2620   11.1480 C.2   170  ASN170      0.2630
     20  OD1       35.5880   35.2390   10.6060 O.2   170  ASN170     -0.2716
     21  ND2       35.2480   37.3370   11.4420 N.am  170  ASN170     -0.0877
     22  N         39.5200   38.8730   11.6180 N.am  171  GLY171     -0.1940
     23  CA        40.6770   39.5470   12.1650 C.3   171  GLY171      0.2014
     24  C         41.2720   40.5710   11.2020 C.2   171  GLY171      0.2639
     25  O         42.3430   41.1000   11.4530 O.2   171  GLY171     -0.2714
     26  N         40.6160   40.8430   10.0690 N.am  172  TYR172     -0.1959
     27  CA        41.2710   41.6570    9.0570 C.3   172  TYR172      0.1771
     28  C         41.2850   43.1600    9.3590 C.2   172  TYR172      0.2620
     29  O         42.0410   43.9330    8.7390 O.2   172  TYR172     -0.2715
     30  CB        40.7280   41.3610    7.6300 C.3   172  TYR172      0.0574
     31  CG        41.3470   40.1090    7.0890 C.ar  172  TYR172     -0.0198
     32  CD1       42.4820   40.1540    6.2720 C.ar  172  TYR172     -0.0009
     33  CD2       40.8480   38.8610    7.4660 C.ar  172  TYR172     -0.0009
     34  CE1       43.0680   39.0150    5.8030 C.ar  172  TYR172      0.0417
     35  CE2       41.4390   37.6980    7.0020 C.ar  172  TYR172      0.0417
     36  CZ        42.5610   37.7750    6.2010 C.ar  172  TYR172      0.1957
     37  OH        43.1220   36.6180    5.7500 O.3   172  TYR172     -0.2866
     38  N         40.4610   43.6130   10.3210 N.am  173  SER173     -0.1936
     39  CA        40.6400   44.9690   10.8240 C.3   173  SER173      0.2055
     40  C         41.9780   45.1330   11.5220 C.2   173  SER173      0.2642
     41  O         42.6730   46.1390   11.2790 O.2   173  SER173     -0.2714
     42  CB        39.4870   45.3580   11.7570 C.3   173  SER173      0.2130
     43  OG        38.3480   45.5830   10.9540 O.3   173  SER173     -0.2179
     44  N         42.3180   44.1650   12.3820 N.am  174  LEU174     -0.1977
     45  CA        43.6230   44.1370   13.0310 C.3   174  LEU174      0.1596
     46  C         44.7240   43.8980   12.0210 C.2   174  LEU174      0.2287
     47  O         45.7680   44.5700   12.0680 O.2   174  LEU174     -0.2864
     48  CB        43.6780   43.0780   14.1200 C.3   174  LEU174      0.0297
     49  CG        44.9920   42.9830   14.9360 C.3   174  LEU174      0.0022
     50  CD1       45.3350   44.3870   15.4900 C.3   174  LEU174      0.0001
     51  CD2       44.8690   41.9290   16.0270 C.3   174  LEU174      0.0001
     52  N         34.3880   35.2260   13.9020 N.3   227  GLY227     -0.1210
     53  CA        34.6700   36.4660   14.6330 C.3   227  GLY227      0.1956
     54  C         34.8590   36.2190   16.1030 C.2   227  GLY227      0.2612
     55  O         34.1020   35.4480   16.7110 O.2   227  GLY227     -0.2717
     56  N         35.8920   36.8560   16.6600 N.am  228  GLY228     -0.1956
     57  CA        36.2130   36.6670   18.0670 C.3   228  GLY228      0.1869
     58  C         37.2170   35.5680   18.2530 C.2   228  GLY228      0.2309
     59  O         37.6230   35.2520   19.3710 O.2   228  GLY228     -0.2863
     60  N         40.9930   37.2570   18.3660 N.3   274  THR274     -0.1218
     61  CA        40.8540   37.9120   17.0710 C.3   274  THR274      0.1862
     62  C         40.9790   36.8830   15.9400 C.2   274  THR274      0.2287
     63  O         40.2150   36.9380   14.9730 O.2   274  THR274     -0.2866
     64  CB        41.9050   39.0170   16.8960 C.3   274  THR274      0.1770
     65  OG1       41.8280   39.9460   18.0120 O.3   274  THR274     -0.2211
     66  CG2       41.6730   39.8240   15.6110 C.3   274  THR274      0.0375
@<TRIPOS>BOND
     1     4     3    2
     2    13    12    1
     3     3     2    1
     4    37    36    1
     5    34    36   ar
     6    34    32   ar
     7    12     9    1
     8     2     1    1
     9     2     5    1
    10    36    35   ar
    11    32    31   ar
    12     9     8    1
    13     9    10    1
    14    35    33   ar
    15    31    33   ar
    16    31    30    1
    17     7     5    1
    18     5     6    1
    19    30    27    1
    20    10    11    2
    21    10    14   am
    22    29    28    2
    23    27    28    1
    24    27    26    1
    25    14    15    1
    26    28    38   am
    27    26    24   am
    28    38    39    1
    29    15    16    1
    30    15    18    1
    31    20    19    2
    32    17    16    2
    33    39    40    1
    34    39    42    1
    35    16    22   am
    36    43    42    1
    37    19    18    1
    38    19    21   am
    39    24    25    2
    40    24    23    1
    41    41    40    2
    42    40    44   am
    43    22    23    1
    44    46    47    2
    45    46    45    1
    46    44    45    1
    47    45    48    1
    48    52    53    1
    49    48    49    1
    50    53    54    1
    51    49    50    1
    52    49    51    1
    53    63    62    2
    54    66    64    1
    55    62    61    1
    56    54    56   am
    57    54    55    2
    58    56    57    1
    59    64    61    1
    60    64    65    1
    61    61    60    1
    62    57    58    1
    63    58    59    2
