@<TRIPOS>MOLECULE
tmp/3p4eA00.pdb
 98 92 0 0 0
SMALL
GASTEIGER

@<TRIPOS>ATOM
      1  N         29.2980   41.2730  -18.8170 N.3     6  LEU6       -0.1231
      2  CA        29.5440   40.5010  -17.5780 C.3     6  LEU6        0.1693
      3  C         28.7490   39.2060  -17.5840 C.2     6  LEU6        0.2591
      4  O         29.2660   38.1670  -17.2170 O.2     6  LEU6       -0.2718
      5  CB        29.1840   41.3280  -16.3260 C.3     6  LEU6        0.0284
      6  CG        29.3020   40.5730  -14.9950 C.3     6  LEU6        0.0019
      7  CD1       30.7680   40.1860  -14.7650 C.3     6  LEU6        0.0001
      8  CD2       28.7310   41.3720  -13.8100 C.3     6  LEU6        0.0001
      9  N         27.4850   39.2770  -17.9970 N.am    7  VAL7       -0.1980
     10  CA        26.6160   38.1080  -17.9620 C.3     7  VAL7        0.1595
     11  C         27.1720   37.0290  -18.8710 C.2     7  VAL7        0.2287
     12  O         27.2170   35.8630  -18.5050 O.2     7  VAL7       -0.2864
     13  CB        25.1270   38.4480  -18.2830 C.3     7  VAL7        0.0276
     14  CG1       24.4410   37.3200  -19.0290 C.3     7  VAL7        0.0022
     15  CG2       24.3680   38.7530  -16.9650 C.3     7  VAL7        0.0022
     16  N         30.4150   35.4470  -17.3440 N.3    10  ILE10      -0.1245
     17  CA        30.3650   34.5100  -16.2160 C.3    10  ILE10       0.1561
     18  C         29.5610   33.2610  -16.4730 C.2    10  ILE10       0.2260
     19  O         29.5950   32.3460  -15.6510 O.2    10  ILE10      -0.2867
     20  CB        29.7010   35.1460  -14.9550 C.3    10  ILE10       0.0252
     21  CG1       28.2140   35.4410  -15.1890 C.3    10  ILE10       0.0019
     22  CG2       30.5260   36.3470  -14.4730 C.3    10  ILE10       0.0019
     23  CD1       27.5570   36.3060  -14.0880 C.3    10  ILE10       0.0001
     24  N         29.1760   29.9990  -13.9110 N.3    14  VAL14      -0.1245
     25  CA        27.9020   29.5270  -13.3990 C.3    14  VAL14       0.1561
     26  C         27.5170   28.0970  -13.8460 C.2    14  VAL14       0.2260
     27  O         27.1310   27.2630  -13.0230 O.2    14  VAL14      -0.2867
     28  CB        26.8070   30.4750  -13.8160 C.3    14  VAL14       0.0252
     29  CG1       25.3910   29.8810  -13.5570 C.3    14  VAL14       0.0019
     30  CG2       27.0710   31.8660  -13.1450 C.3    14  VAL14       0.0019
     31  N         24.6870   35.5060   -5.0110 N.3    85  ASP85      -0.1239
     32  CA        25.4760   36.6330   -4.5800 C.3    85  ASP85       0.1674
     33  C         24.8720   37.9570   -5.0340 C.2    85  ASP85       0.2266
     34  O         24.2990   38.0660   -6.1190 O.2    85  ASP85      -0.2867
     35  CB        26.9560   36.5550   -5.0360 C.3    85  ASP85       0.1410
     36  CG        27.1100   36.7840   -6.4980 C.2    85  ASP85       0.3668
     37  OD1       26.6530   35.9280   -7.2800 O.co2  85  ASP85      -0.2456
     38  OD2       27.5720   37.8960   -6.8520 O.co2  85  ASP85      -0.2456
     39  N         26.3410   41.7290   -5.6200 N.3    87  TYR87      -0.1241
     40  CA        27.5840   42.4690   -5.8300 C.3    87  TYR87       0.1605
     41  C         27.1720   43.9370   -6.0720 C.2    87  TYR87       0.2264
     42  O         26.4280   44.2060   -6.9930 O.2    87  TYR87      -0.2867
     43  CB        28.2540   41.9390   -7.0920 C.3    87  TYR87       0.0534
     44  CG        29.5610   42.6050   -7.4910 C.ar   87  TYR87      -0.0201
     45  CD1       29.5760   43.7820   -8.2240 C.ar   87  TYR87      -0.0009
     46  CD2       30.7750   42.0220   -7.1970 C.ar   87  TYR87      -0.0009
     47  CE1       30.7620   44.3560   -8.6590 C.ar   87  TYR87       0.0417
     48  CE2       31.9700   42.6120   -7.5960 C.ar   87  TYR87       0.0417
     49  CZ        31.9640   43.7570   -8.3330 C.ar   87  TYR87       0.1957
     50  OH        33.1250   44.3790   -8.7680 O.3    87  TYR87      -0.2866
     51  N         33.1500   36.8140   -9.2720 N.3   101  ILE101     -0.1245
     52  CA        32.1440   35.7760   -9.5310 C.3   101  ILE101      0.1561
     53  C         32.7810   34.4310   -9.8920 C.2   101  ILE101      0.2260
     54  O         32.3000   33.3890   -9.4660 O.2   101  ILE101     -0.2867
     55  CB        31.0550   36.2680  -10.5300 C.3   101  ILE101      0.0252
     56  CG1       30.2990   37.4610   -9.8820 C.3   101  ILE101      0.0019
     57  CG2       30.1260   35.1000  -10.9480 C.3   101  ILE101      0.0019
     58  CD1       29.5060   38.3530  -10.8120 C.3   101  ILE101      0.0001
     59  N         25.7820   27.6950   -8.0670 N.3   115  LEU115     -0.1231
     60  CA        25.5610   29.1320   -8.1630 C.3   115  LEU115      0.1693
     61  C         24.4120   29.3450   -9.0940 C.2   115  LEU115      0.2592
     62  O         24.5310   29.1130  -10.3180 O.2   115  LEU115     -0.2718
     63  CB        26.8160   29.8430   -8.7110 C.3   115  LEU115      0.0284
     64  CG        26.7740   31.3510   -8.8990 C.3   115  LEU115      0.0019
     65  CD1       26.5080   32.0560   -7.5360 C.3   115  LEU115      0.0001
     66  CD2       28.0840   31.8320   -9.5190 C.3   115  LEU115      0.0001
     67  N         23.2710   29.7710   -8.5600 N.am  116  ILE116     -0.1966
     68  CA        22.0730   29.7500   -9.3750 C.3   116  ILE116      0.1727
     69  C         21.5280   31.1300   -9.6880 C.2   116  ILE116      0.2617
     70  O         20.5810   31.2430  -10.4660 O.2   116  ILE116     -0.2715
     71  CB        20.9570   28.8820   -8.7890 C.3   116  ILE116      0.0290
     72  CG1       20.4370   29.4570   -7.4680 C.3   116  ILE116      0.0022
     73  CG2       21.3920   27.4110   -8.6720 C.3   116  ILE116      0.0023
     74  CD1       19.1860   28.6610   -7.0570 C.3   116  ILE116      0.0001
     75  N         22.1330   32.1690   -9.1420 N.am  117  GLY117     -0.1940
     76  CA        21.5700   33.5010   -9.3610 C.3   117  GLY117      0.2014
     77  C         22.3710   34.5310   -8.6480 C.2   117  GLY117      0.2639
     78  O         23.2830   34.2340   -7.9230 O.2   117  GLY117     -0.2714
     79  N         22.0490   35.7780   -8.9060 N.am  118  GLY118     -0.1939
     80  CA        22.7360   36.8470   -8.2530 C.3   118  GLY118      0.2014
     81  C         22.2980   38.1680   -8.8380 C.2   118  GLY118      0.2639
     82  O         21.4230   38.2270   -9.7410 O.2   118  GLY118     -0.2714
     83  N         22.9110   39.2200   -8.3340 N.am  119  GLU119     -0.1963
     84  CA        22.5530   40.5850   -8.7050 C.3   119  GLU119      0.1733
     85  C         23.8360   41.3880   -8.7870 C.2   119  GLU119      0.2617
     86  O         24.6710   41.2670   -7.9010 O.2   119  GLU119     -0.2715
     87  CB        21.6720   41.1460   -7.5940 C.3   119  GLU119      0.0429
     88  CG        20.2580   41.4000   -7.9730 C.3   119  GLU119      0.1163
     89  CD        20.1410   42.7050   -8.6840 C.2   119  GLU119      0.3649
     90  OE1       20.5970   42.7760   -9.8510 O.co2 119  GLU119     -0.2457
     91  OE2       19.6170   43.6650   -8.0680 O.co2 119  GLU119     -0.2457
     92  N         23.9780   42.2170   -9.8170 N.am  120  THR120     -0.1951
     93  CA        25.0710   43.1700   -9.8740 C.3   120  THR120      0.1897
     94  C         24.4850   44.5600   -9.8950 C.2   120  THR120      0.2313
     95  O         23.7250   44.8830  -10.8010 O.2   120  THR120     -0.2863
     96  CB        25.9310   42.9150  -11.1140 C.3   120  THR120      0.1794
     97  OG1       26.2990   41.5420  -11.1350 O.3   120  THR120     -0.2208
     98  CG2       27.1890   43.7360  -11.1030 C.3   120  THR120      0.0378
@<TRIPOS>BOND
     1    14    13    1
     2    11    12    2
     3    11    10    1
     4     1     2    1
     5    13    10    1
     6    13    15    1
     7     9    10    1
     8     9     3   am
     9     3     2    1
    10     3     4    2
    11     2     5    1
    12    16    17    1
    13    18    17    1
    14    18    19    2
    15     5     6    1
    16    17    20    1
    17    21    20    1
    18    21    23    1
    19     6     7    1
    20     6     8    1
    21    20    22    1
    22    24    25    1
    23    26    25    1
    24    26    27    2
    25    28    29    1
    26    28    25    1
    27    28    30    1
    28    97    96    1
    29    96    98    1
    30    96    93    1
    31    57    55    1
    32    58    56    1
    33    95    94    2
    34    55    56    1
    35    55    52    1
    36    70    69    2
    37    62    61    2
    38    94    93    1
    39    53    52    1
    40    53    54    2
    41    93    92    1
    42    90    89   ar
    43    92    85   am
    44    82    81    2
    45    69    68    1
    46    69    75   am
    47    52    51    1
    48    66    64    1
    49    68    71    1
    50    68    67    1
    51    76    75    1
    52    76    77    1
    53    61    67   am
    54    61    60    1
    55    79    77   am
    56    79    80    1
    57    64    63    1
    58    64    65    1
    59    81    83   am
    60    81    80    1
    61    71    73    1
    62    71    72    1
    63    85    84    1
    64    85    86    2
    65    50    49    1
    66    63    60    1
    67    84    83    1
    68    84    87    1
    69    89    91   ar
    70    89    88    1
    71    47    49   ar
    72    47    45   ar
    73    77    78    2
    74    49    48   ar
    75    45    44   ar
    76    60    59    1
    77    88    87    1
    78    48    46   ar
    79    44    46   ar
    80    44    43    1
    81    72    74    1
    82    37    36   ar
    83    43    40    1
    84    42    41    2
    85    38    36   ar
    86    36    35    1
    87    34    33    2
    88    41    40    1
    89    40    39    1
    90    35    32    1
    91    33    32    1
    92    31    32    1
