@<TRIPOS>MOLECULE
tmp/3p4fA00.pdb
 122 116 0 0 0
SMALL
GASTEIGER

@<TRIPOS>ATOM
      1  N         17.2020  -24.2960  -11.4120 N.3   151  ARG151     -0.1245
      2  CA        18.3570  -23.7000  -10.8130 C.3   151  ARG151      0.1563
      3  C         19.6950  -24.1730  -11.3960 C.2   151  ARG151      0.2260
      4  O         20.6180  -23.4190  -11.4590 O.2   151  ARG151     -0.2867
      5  CB        18.2890  -24.1930   -9.3980 C.3   151  ARG151      0.0307
      6  CG        18.6320  -23.2900   -8.3490 C.3   151  ARG151      0.0489
      7  CD        18.9000  -24.0940   -7.1200 C.3   151  ARG151      0.2205
      8  NE        20.3180  -24.3340   -6.9810 N.pl3 151  ARG151     -0.0865
      9  CZ        20.8910  -25.5170   -7.0360 C.cat 151  ARG151      0.5346
     10  NH1       20.1590  -26.5780   -7.1950 N.pl3 151  ARG151      0.1354
     11  NH2       22.1950  -25.6280   -6.9210 N.pl3 151  ARG151      0.1354
     12  N         10.6040  -22.0460   -8.4320 N.3   193  SER193     -0.1203
     13  CA        10.9950  -21.1330   -7.3570 C.3   193  SER193      0.2005
     14  C         12.5560  -20.9830   -7.4470 C.2   193  SER193      0.2461
     15  O         13.2080  -21.8300   -8.1010 O.2   193  SER193     -0.2732
     16  CB        10.5430  -21.6700   -5.9980 C.3   193  SER193      0.2103
     17  OG        11.0890  -22.9430   -5.7210 O.3   193  SER193     -0.2182
     18  N         13.1850  -19.9460   -6.8440 N.am  194  PRO194     -0.2717
     19  CA        14.6660  -19.8280   -6.9540 C.3   194  PRO194      0.1535
     20  C         15.4880  -21.0900   -6.5930 C.2   194  PRO194      0.2598
     21  O         16.5280  -21.3320   -7.2100 O.2   194  PRO194     -0.2715
     22  CB        15.0100  -18.6500   -6.0380 C.3   194  PRO194      0.0310
     23  CG        13.7490  -17.8430   -5.9650 C.3   194  PRO194      0.0237
     24  CD        12.6000  -18.8170   -6.0860 C.3   194  PRO194      0.0939
     25  N         15.0090  -21.9060   -5.6220 N.am  195  ASN195     -0.1973
     26  CA        15.6730  -23.1380   -5.1730 C.3   195  ASN195      0.1688
     27  C         15.2730  -24.3940   -5.9600 C.2   195  ASN195      0.2292
     28  O         15.7750  -25.4750   -5.6640 O.2   195  ASN195     -0.2864
     29  CB        15.4960  -23.3470   -3.6460 C.3   195  ASN195      0.1181
     30  CG        14.0810  -23.6290   -3.1850 C.2   195  ASN195      0.2629
     31  OD1       13.1380  -23.8040   -3.9720 O.2   195  ASN195     -0.2716
     32  ND2       13.8970  -23.6370   -1.8880 N.am  195  ASN195     -0.0877
     33  N         12.6260  -26.1630   -5.9530 N.3   197  LYS197     -0.1231
     34  CA        11.7910  -27.0900   -5.2110 C.3   197  LYS197      0.1693
     35  C         10.3110  -26.9580   -5.5000 C.2   197  LYS197      0.2592
     36  O          9.5910  -27.9340   -5.3530 O.2   197  LYS197     -0.2718
     37  CB        12.0700  -26.9800   -3.6990 C.3   197  LYS197      0.0285
     38  CG        13.4970  -27.3760   -3.3470 C.3   197  LYS197      0.0035
     39  CD        13.7970  -27.2970   -1.8570 C.3   197  LYS197      0.0206
     40  CE        15.2770  -27.4800   -1.6200 C.3   197  LYS197      0.1093
     41  NZ        15.7250  -28.8700   -1.9300 N.3   197  LYS197     -0.1314
     42  N          9.8530  -25.7650   -5.8980 N.am  198  TYR198     -0.1976
     43  CA         8.4340  -25.5020   -6.1680 C.3   198  TYR198      0.1639
     44  C          8.2630  -24.8810   -7.5330 C.2   198  TYR198      0.2290
     45  O          9.2380  -24.4460   -8.1460 O.2   198  TYR198     -0.2864
     46  CB         7.8130  -24.5670   -5.0920 C.3   198  TYR198      0.0560
     47  CG         8.0710  -25.0190   -3.6770 C.ar  198  TYR198     -0.0198
     48  CD1        9.1790  -24.5590   -2.9690 C.ar  198  TYR198     -0.0009
     49  CD2        7.2530  -25.9640   -3.0670 C.ar  198  TYR198     -0.0009
     50  CE1        9.4800  -25.0520   -1.6980 C.ar  198  TYR198      0.0417
     51  CE2        7.5330  -26.4480   -1.7910 C.ar  198  TYR198      0.0417
     52  CZ         8.6470  -25.9890   -1.1100 C.ar  198  TYR198      0.1957
     53  OH         8.9050  -26.4460    0.1580 O.3   198  TYR198     -0.2866
     54  N          1.0660  -22.4070   -5.8950 N.3   210  LEU210     -0.1245
     55  CA         2.4240  -22.8080   -5.5750 C.3   210  LEU210      0.1561
     56  C          2.3940  -24.3060   -5.3250 C.2   210  LEU210      0.2260
     57  O          1.8370  -24.7400   -4.3200 O.2   210  LEU210     -0.2867
     58  CB         2.9970  -22.0500   -4.3530 C.3   210  LEU210      0.0270
     59  CG         4.4460  -22.3960   -4.0110 C.3   210  LEU210      0.0019
     60  CD1        5.3770  -21.7940   -4.9850 C.3   210  LEU210      0.0001
     61  CD2        4.8130  -21.9660   -2.6350 C.3   210  LEU210      0.0001
     62  N          0.5000  -26.1510   -2.2790 N.3   219  LEU219     -0.1231
     63  CA         0.7830  -25.6830   -0.9280 C.3   219  LEU219      0.1693
     64  C          0.2160  -24.3130   -0.6010 C.2   219  LEU219      0.2591
     65  O         -0.0190  -24.0090    0.5770 O.2   219  LEU219     -0.2718
     66  CB         2.2910  -25.7240   -0.6430 C.3   219  LEU219      0.0284
     67  CG         3.0310  -27.0740   -0.7590 C.3   219  LEU219      0.0019
     68  CD1        4.3580  -26.9830   -0.1080 C.3   219  LEU219      0.0001
     69  CD2        2.2690  -28.2230   -0.0900 C.3   219  LEU219      0.0001
     70  N          0.0260  -23.4680   -1.6230 N.am  220  LYS220     -0.1980
     71  CA        -0.4890  -22.1090   -1.4580 C.3   220  LYS220      0.1596
     72  C         -1.2990  -21.7330   -2.6920 C.2   220  LYS220      0.2287
     73  O         -0.9470  -22.1240   -3.8070 O.2   220  LYS220     -0.2864
     74  CB         0.6580  -21.0950   -1.2930 C.3   220  LYS220      0.0298
     75  CG         1.6650  -21.3140   -0.1510 C.3   220  LYS220      0.0038
     76  CD         1.0980  -20.9050    1.2220 C.3   220  LYS220      0.0206
     77  CE         1.8920  -21.5020    2.3420 C.3   220  LYS220      0.1093
     78  NZ         1.3890  -21.0620    3.6750 N.3   220  LYS220     -0.1314
     79  N          8.2920  -14.4120   -7.8980 N.3   236  PHE236     -0.1241
     80  CA         8.6970  -14.5660   -6.5040 C.3   236  PHE236      0.1605
     81  C          9.5430  -13.3240   -6.2340 C.2   236  PHE236      0.2264
     82  O         10.5770  -13.1450   -6.8800 O.2   236  PHE236     -0.2867
     83  CB         9.5860  -15.8030   -6.2630 C.3   236  PHE236      0.0534
     84  CG         8.8950  -17.1310   -6.3750 C.ar  236  PHE236     -0.0203
     85  CD1        8.9520  -17.8650   -7.5540 C.ar  236  PHE236     -0.0042
     86  CD2        8.1630  -17.6430   -5.3130 C.ar  236  PHE236     -0.0042
     87  CE1        8.2850  -19.0720   -7.6710 C.ar  236  PHE236     -0.0003
     88  CE2        7.5060  -18.8660   -5.4310 C.ar  236  PHE236     -0.0003
     89  CZ         7.5920  -19.5780   -6.6060 C.ar  236  PHE236     -0.0000
     90  N         11.9010  -11.8040   -3.6210 N.3   238  VAL238     -0.1245
     91  CA        12.7240  -12.3380   -2.5260 C.3   238  VAL238      0.1561
     92  C         13.8340  -11.3810   -1.9820 C.2   238  VAL238      0.2260
     93  O         14.5620  -11.7610   -1.0580 O.2   238  VAL238     -0.2867
     94  CB        13.2710  -13.7560   -2.8950 C.3   238  VAL238      0.0252
     95  CG1       12.1370  -14.7370   -3.2100 C.3   238  VAL238      0.0019
     96  CG2       14.2690  -13.6970   -4.0530 C.3   238  VAL238      0.0019
     97  N          9.0780  -11.8420    1.5080 N.3   242  LYS242     -0.1245
     98  CA         8.7030  -12.8130    0.4930 C.3   242  LYS242      0.1561
     99  C          7.2970  -12.5350   -0.0060 C.2   242  LYS242      0.2260
    100  O          6.3160  -12.6720    0.7340 O.2   242  LYS242     -0.2867
    101  CB         8.8630  -14.2660    1.0200 C.3   242  LYS242      0.0271
    102  CG        10.2000  -14.5560    1.7210 C.3   242  LYS242      0.0035
    103  CD        11.4600  -14.4580    0.8320 C.3   242  LYS242      0.0206
    104  CE        12.6500  -14.0740    1.7030 C.3   242  LYS242      0.1093
    105  NZ        13.9630  -14.4710    1.1170 N.3   242  LYS242     -0.1314
    106  N          3.6700  -14.1810    0.5940 N.3   258  LEU258     -0.1231
    107  CA         3.9000  -15.5690    0.1720 C.3   258  LEU258      0.1693
    108  C          3.3050  -16.6180    1.1570 C.2   258  LEU258      0.2591
    109  O          2.6690  -17.5830    0.7230 O.2   258  LEU258     -0.2718
    110  CB         5.3950  -15.8430   -0.1150 C.3   258  LEU258      0.0284
    111  CG         5.7800  -17.3340   -0.2650 C.3   258  LEU258      0.0019
    112  CD1        5.7700  -17.7720   -1.6850 C.3   258  LEU258      0.0001
    113  CD2        7.1050  -17.6440    0.4090 C.3   258  LEU258      0.0001
    114  N          3.5020  -16.4180    2.4590 N.am  259  GLN259     -0.1979
    115  CA         3.0360  -17.3810    3.4700 C.3   259  GLN259      0.1601
    116  C          1.5640  -17.3280    3.8000 C.2   259  GLN259      0.2287
    117  O          0.9410  -18.3850    3.8220 O.2   259  GLN259     -0.2864
    118  CB         3.8720  -17.2850    4.7480 C.3   259  GLN259      0.0394
    119  CG         5.3860  -17.2230    4.5040 C.3   259  GLN259      0.0908
    120  CD         6.0030  -18.4940    3.9490 C.2   259  GLN259      0.2608
    121  OE1        5.3320  -19.5100    3.7190 O.2   259  GLN259     -0.2717
    122  NE2        7.3190  -18.4670    3.7540 N.am  259  GLN259     -0.0878
@<TRIPOS>BOND
     1     4     3    2
     2     1     2    1
     3     3     2    1
     4     2     5    1
     5     5     6    1
     6    12    13    1
     7     6     7    1
     8    45    44    2
     9    15    14    2
    10    79    80    1
    11    87    85   ar
    12    87    89   ar
    13    85    84   ar
    14    44    43    1
    15    14    13    1
    16    14    18   am
    17    13    16    1
    18    21    20    2
    19    10     9    1
    20     7     8    1
    21     9     8    2
    22     9    11    1
    23    19    18    1
    24    19    20    1
    25    19    22    1
    26    82    81    2
    27    18    24    1
    28    89    88   ar
    29    20    25   am
    30    80    83    1
    31    80    81    1
    32    84    83    1
    33    84    86   ar
    34    43    42    1
    35    43    46    1
    36    24    23    1
    37    22    23    1
    38    16    17    1
    39    27    28    2
    40    27    26    1
    41    33    34    1
    42    42    35   am
    43    54    55    1
    44    25    26    1
    45    55    56    1
    46    55    58    1
    47    35    36    2
    48    35    34    1
    49    88    86   ar
    50    56    57    2
    51    34    37    1
    52    26    29    1
    53    46    47    1
    54    60    59    1
    55    58    59    1
    56    96    94    1
    57    59    61    1
    58    31    30    2
    59    73    72    2
    60    37    38    1
    61    47    49   ar
    62    47    48   ar
    63    29    30    1
    64    90    91    1
    65    38    39    1
    66    95    94    1
    67    30    32   am
    68    49    51   ar
    69    48    50   ar
    70    94    91    1
    71    72    71    1
    72    91    92    1
    73    62    63    1
    74    92    93    2
    75    41    40    1
    76    39    40    1
    77    51    52   ar
    78    50    52   ar
    79   112   111    1
    80    70    71    1
    81    70    64   am
    82    71    74    1
    83    74    75    1
    84    52    53    1
    85    63    66    1
    86    63    64    1
    87    67    66    1
    88    67    68    1
    89    67    69    1
    90    64    65    2
    91   111   110    1
    92   111   113    1
    93    75    76    1
    94   110   107    1
    95    99    98    1
    96    99   100    2
    97   107   106    1
    98   107   108    1
    99    98   101    1
   100    98    97    1
   101   109   108    2
   102   103   104    1
   103   103   102    1
   104   101   102    1
   105   105   104    1
   106   108   114   am
   107    76    77    1
   108    77    78    1
   109   114   115    1
   110   115   116    1
   111   115   118    1
   112   121   120    2
   113   122   120   am
   114   116   117    2
   115   120   119    1
   116   119   118    1
