@<TRIPOS>MOLECULE
tmp/3p4fA01.pdb
 221 213 0 0 0
SMALL
GASTEIGER

@<TRIPOS>ATOM
      1  N          3.0070   -0.0640  -29.6760 N.3    16  LYS16      -0.1231
      2  CA         1.9900   -1.1020  -29.5710 C.3    16  LYS16       0.1693
      3  C          2.1400   -1.7680  -28.1990 C.2    16  LYS16       0.2591
      4  O          3.1040   -1.4810  -27.4820 O.2    16  LYS16      -0.2718
      5  CB         2.1500   -2.1190  -30.7320 C.3    16  LYS16       0.0285
      6  CG         1.6870   -1.5650  -32.0970 C.3    16  LYS16       0.0035
      7  CD         1.5780   -2.6430  -33.1570 C.3    16  LYS16       0.0206
      8  CE         1.0130   -2.1200  -34.4620 C.3    16  LYS16       0.1093
      9  NZ         0.8420   -3.2040  -35.4710 N.3    16  LYS16      -0.1314
     10  N          1.2060   -2.6550  -27.8320 N.am   17  ALA17      -0.1980
     11  CA         1.2020   -3.3770  -26.5610 C.3    17  ALA17       0.1597
     12  C          2.5990   -3.8830  -26.1260 C.2    17  ALA17       0.2287
     13  O          3.3400   -4.4090  -26.9540 O.2    17  ALA17      -0.2864
     14  CB         0.2410   -4.5550  -26.6460 C.3    17  ALA17       0.0319
     15  N          4.5950   -6.6770  -24.1860 N.3    19  SER19      -0.1217
     16  CA         4.3200   -8.0860  -23.8780 C.3    19  SER19       0.1889
     17  C          5.1730   -8.6630  -22.7420 C.2    19  SER19       0.2288
     18  O          4.7180   -9.5760  -22.0360 O.2    19  SER19      -0.2866
     19  CB         4.5420   -8.9340  -25.1250 C.3    19  SER19       0.2089
     20  OG         5.8600   -8.7620  -25.6320 O.3    19  SER19      -0.2183
     21  N          4.5280   -5.7600  -29.3670 N.3    35  ALA35      -0.1245
     22  CA         3.8000   -6.0650  -30.5920 C.3    35  ALA35       0.1562
     23  C          4.2960   -5.1680  -31.7410 C.2    35  ALA35       0.2260
     24  O          4.0410   -5.4980  -32.8980 O.2    35  ALA35      -0.2867
     25  CB         2.2990   -5.8840  -30.3800 C.3    35  ALA35       0.0290
     26  N          7.4430   -9.7860  -37.2560 N.3    58  LEU58      -0.1231
     27  CA         6.1500   -9.6130  -36.5910 C.3    58  LEU58       0.1693
     28  C          6.3760   -9.3250  -35.1010 C.2    58  LEU58       0.2593
     29  O          7.5380   -9.1620  -34.6840 O.2    58  LEU58      -0.2718
     30  CB         5.2040  -10.8070  -36.8400 C.3    58  LEU58       0.0284
     31  CG         4.8540  -11.1520  -38.3170 C.3    58  LEU58       0.0019
     32  CD1        4.1110  -12.4680  -38.4060 C.3    58  LEU58       0.0001
     33  CD2        4.0570  -10.0350  -38.9990 C.3    58  LEU58       0.0001
     34  N          5.2900   -9.1870  -34.3350 N.am   59  GLY59      -0.1942
     35  CA         5.3480   -8.8820  -32.9030 C.3    59  GLY59       0.2014
     36  C          6.0290   -9.9240  -32.0310 C.2    59  GLY59       0.2639
     37  O          6.0640  -11.1140  -32.3650 O.2    59  GLY59      -0.2714
     38  N          6.5850   -9.4690  -30.9030 N.am   60  ILE60      -0.1963
     39  CA         7.3020  -10.3170  -29.9290 C.3    60  ILE60       0.1727
     40  C          6.4340  -10.5090  -28.6730 C.2    60  ILE60       0.2617
     41  O          5.8820   -9.5500  -28.1590 O.2    60  ILE60      -0.2715
     42  CB         8.6970   -9.6910  -29.6040 C.3    60  ILE60       0.0290
     43  CG1        9.4430   -9.2570  -30.8940 C.3    60  ILE60       0.0022
     44  CG2        9.5580  -10.6380  -28.7710 C.3    60  ILE60       0.0023
     45  CD1       10.5070   -8.2150  -30.6760 C.3    60  ILE60       0.0001
     46  N          6.3200  -11.7580  -28.1900 N.am   61  SER61      -0.1936
     47  CA         5.5460  -12.1320  -27.0010 C.3    61  SER61       0.2055
     48  C          6.3900  -12.2560  -25.7230 C.2    61  SER61       0.2643
     49  O          5.8360  -12.1820  -24.6190 O.2    61  SER61      -0.2714
     50  CB         4.7940  -13.4330  -27.2510 C.3    61  SER61       0.2130
     51  OG         3.7630  -13.2230  -28.1990 O.3    61  SER61      -0.2179
     52  N          7.7190  -12.4530  -25.8660 N.am   62  ASP62      -0.1971
     53  CA         8.6200  -12.6560  -24.7400 C.3    62  ASP62       0.1709
     54  C         10.0580  -12.3260  -25.1070 C.2    62  ASP62       0.2293
     55  O         10.4370  -12.3900  -26.2700 O.2    62  ASP62      -0.2864
     56  CB         8.5450  -14.1280  -24.2770 C.3    62  ASP62       0.1436
     57  CG         8.9740  -14.4520  -22.8400 C.2    62  ASP62       0.3671
     58  OD1        9.2440  -13.5050  -22.0590 O.co2  62  ASP62      -0.2456
     59  OD2        8.9750  -15.6430  -22.4820 O.co2  62  ASP62      -0.2456
     60  N          5.9240  -13.9040  -33.3260 N.3    77  ASP77      -0.1239
     61  CA         4.7920  -14.3480  -34.1360 C.3    77  ASP77       0.1674
     62  C          5.3160  -14.7180  -35.5370 C.2    77  ASP77       0.2266
     63  O          4.6570  -15.4570  -36.2610 O.2    77  ASP77      -0.2867
     64  CB         3.7380  -13.2300  -34.2630 C.3    77  ASP77       0.1410
     65  CG         2.6780  -13.2200  -33.1740 C.2    77  ASP77       0.3668
     66  OD1        3.0270  -13.5120  -31.9930 O.co2  77  ASP77      -0.2456
     67  OD2        1.5190  -12.8310  -33.4770 O.co2  77  ASP77      -0.2456
     68  N          3.4710  -19.2260  -34.0930 N.3   101  TYR101     -0.1241
     69  CA         3.9720  -18.1960  -33.1790 C.3   101  TYR101      0.1605
     70  C          4.7700  -18.7790  -32.0120 C.2   101  TYR101      0.2264
     71  O          4.3000  -19.7240  -31.3510 O.2   101  TYR101     -0.2867
     72  CB         2.8230  -17.4060  -32.5330 C.3   101  TYR101      0.0534
     73  CG         1.6550  -16.9920  -33.3980 C.ar  101  TYR101     -0.0201
     74  CD1        1.8580  -16.3990  -34.6470 C.ar  101  TYR101     -0.0009
     75  CD2        0.3520  -17.0430  -32.9050 C.ar  101  TYR101     -0.0009
     76  CE1        0.7850  -15.9370  -35.4120 C.ar  101  TYR101      0.0417
     77  CE2       -0.7290  -16.6080  -33.6690 C.ar  101  TYR101      0.0417
     78  CZ        -0.5070  -16.0550  -34.9210 C.ar  101  TYR101      0.1957
     79  OH        -1.5760  -15.6160  -35.6530 O.3   101  TYR101     -0.2866
     80  N          5.8090  -18.2400  -28.3700 N.3   103  PHE103     -0.1227
     81  CA         5.2010  -17.5330  -27.2620 C.3   103  PHE103      0.1736
     82  C          6.1410  -17.1820  -26.0900 C.2   103  PHE103      0.2595
     83  O          6.1140  -16.0690  -25.5640 O.2   103  PHE103     -0.2718
     84  CB         3.9970  -18.3690  -26.7760 C.3   103  PHE103      0.0547
     85  CG         2.9620  -17.5980  -25.9880 C.ar  103  PHE103     -0.0202
     86  CD1        2.9500  -17.6380  -24.5980 C.ar  103  PHE103     -0.0042
     87  CD2        1.9720  -16.8700  -26.6360 C.ar  103  PHE103     -0.0042
     88  CE1        1.9670  -16.9690  -23.8780 C.ar  103  PHE103     -0.0003
     89  CE2        0.9810  -16.2130  -25.9120 C.ar  103  PHE103     -0.0003
     90  CZ         0.9960  -16.2520  -24.5390 C.ar  103  PHE103     -0.0000
     91  N          6.9470  -18.1390  -25.6740 N.am  104  CYS104     -0.1970
     92  CA         7.7990  -18.0140  -24.4970 C.3   104  CYS104      0.1712
     93  C          9.2210  -18.4380  -24.7520 C.2   104  CYS104      0.2296
     94  O          9.4810  -19.2420  -25.6440 O.2   104  CYS104     -0.2864
     95  CB         7.1870  -18.8140  -23.3560 C.3   104  CYS104      0.0983
     96  SG         6.4880  -20.3850  -23.8800 S.3   104  CYS104     -0.0798
     97  N          2.7330  -21.9180  -30.0830 N.3   119  PHE119     -0.1241
     98  CA         1.3400  -22.1650  -30.4430 C.3   119  PHE119      0.1605
     99  C          1.2400  -23.4990  -31.2280 C.2   119  PHE119      0.2264
    100  O          0.1930  -24.1680  -31.2000 O.2   119  PHE119     -0.2867
    101  CB         0.8080  -20.9830  -31.2770 C.3   119  PHE119      0.0534
    102  CG        -0.1000  -20.0490  -30.5190 C.ar  119  PHE119     -0.0203
    103  CD1        0.3810  -19.2930  -29.4520 C.ar  119  PHE119     -0.0042
    104  CD2       -1.4340  -19.9090  -30.8780 C.ar  119  PHE119     -0.0042
    105  CE1       -0.4610  -18.4170  -28.7530 C.ar  119  PHE119     -0.0003
    106  CE2       -2.2830  -19.0440  -30.1620 C.ar  119  PHE119     -0.0003
    107  CZ        -1.7850  -18.2920  -29.1160 C.ar  119  PHE119     -0.0000
    108  N          2.1870  -21.9610  -23.0640 N.3   145  SER145     -0.1217
    109  CA         2.2030  -20.6310  -22.4560 C.3   145  SER145      0.1889
    110  C          3.4750  -20.2020  -21.7490 C.2   145  SER145      0.2288
    111  O          3.7610  -19.0000  -21.7230 O.2   145  SER145     -0.2866
    112  CB         0.9860  -20.4230  -21.5700 C.3   145  SER145      0.2089
    113  OG         1.0220  -21.3170  -20.4800 O.3   145  SER145     -0.2183
    114  N         -2.4560  -24.2710  -22.4940 N.3   161  TYR161     -0.1241
    115  CA        -3.9100  -24.0700  -22.4340 C.3   161  TYR161      0.1605
    116  C         -4.6490  -25.4080  -22.2390 C.2   161  TYR161      0.2264
    117  O         -5.8160  -25.4020  -21.8550 O.2   161  TYR161     -0.2867
    118  CB        -4.4360  -23.3700  -23.7000 C.3   161  TYR161      0.0534
    119  CG        -3.9660  -21.9450  -23.8990 C.ar  161  TYR161     -0.0201
    120  CD1       -3.6200  -21.1420  -22.8130 C.ar  161  TYR161     -0.0009
    121  CD2       -3.9700  -21.3630  -25.1590 C.ar  161  TYR161     -0.0009
    122  CE1       -3.2260  -19.8160  -22.9910 C.ar  161  TYR161      0.0417
    123  CE2       -3.5470  -20.0500  -25.3520 C.ar  161  TYR161      0.0417
    124  CZ        -3.1770  -19.2810  -24.2670 C.ar  161  TYR161      0.1957
    125  OH        -2.7710  -17.9900  -24.4860 O.3   161  TYR161     -0.2866
    126  N         -1.6080  -20.6330  -17.7930 N.3   188  SER188     -0.1202
    127  CA        -1.1100  -19.4720  -18.5400 C.3   188  SER188      0.2020
    128  C          0.3030  -19.0310  -18.1820 C.2   188  SER188      0.2618
    129  O          0.8830  -18.1990  -18.8790 O.2   188  SER188     -0.2717
    130  CB        -2.0920  -18.3260  -18.3880 C.3   188  SER188      0.2103
    131  OG        -2.2660  -18.0700  -17.0060 O.3   188  SER188     -0.2182
    132  N          0.8360  -19.5630  -17.0810 N.am  189  PHE189     -0.1975
    133  CA         2.1680  -19.2320  -16.5940 C.3   189  PHE189      0.1639
    134  C          2.6650  -20.2840  -15.6420 C.2   189  PHE189      0.2290
    135  O          1.8940  -20.8880  -14.8920 O.2   189  PHE189     -0.2864
    136  CB         2.2280  -17.8410  -15.9170 C.3   189  PHE189      0.0560
    137  CG         3.6370  -17.4200  -15.5550 C.ar  189  PHE189     -0.0200
    138  CD1        4.5170  -16.9650  -16.5330 C.ar  189  PHE189     -0.0042
    139  CD2        4.1010  -17.5380  -14.2520 C.ar  189  PHE189     -0.0042
    140  CE1        5.8440  -16.6610  -16.2110 C.ar  189  PHE189     -0.0003
    141  CE2        5.4220  -17.2250  -13.9330 C.ar  189  PHE189     -0.0003
    142  CZ         6.2830  -16.7800  -14.9130 C.ar  189  PHE189     -0.0000
    143  N         -6.1930  -19.6230  -15.9480 N.3   204  LEU204     -0.1245
    144  CA        -7.2010  -18.7120  -16.4700 C.3   204  LEU204      0.1561
    145  C         -8.5470  -18.7670  -15.7380 C.2   204  LEU204      0.2260
    146  O         -9.5910  -18.6810  -16.3700 O.2   204  LEU204     -0.2867
    147  CB        -7.3020  -18.7870  -18.0060 C.3   204  LEU204      0.0270
    148  CG        -6.0340  -18.3560  -18.7800 C.3   204  LEU204      0.0019
    149  CD1       -6.2320  -18.4940  -20.2440 C.3   204  LEU204      0.0001
    150  CD2       -5.6180  -16.9320  -18.4530 C.3   204  LEU204      0.0001
    151  N         -8.3690  -14.2110  -16.6910 N.3   228  GLU228     -0.1231
    152  CA        -9.1520  -15.2010  -17.4240 C.3   228  GLU228      0.1699
    153  C         -8.8660  -15.1820  -18.8930 C.2   228  GLU228      0.2592
    154  O         -9.3320  -16.0690  -19.5830 O.2   228  GLU228     -0.2718
    155  CB       -10.6580  -14.9480  -17.2230 C.3   228  GLU228      0.0402
    156  CG       -11.1810  -15.3560  -15.8580 C.3   228  GLU228      0.1161
    157  CD       -12.5380  -14.8010  -15.4740 C.2   228  GLU228      0.3649
    158  OE1      -13.1250  -14.0420  -16.2760 O.co2 228  GLU228     -0.2457
    159  OE2      -13.0120  -15.1210  -14.3600 O.co2 228  GLU228     -0.2457
    160  N         -8.1620  -14.1630  -19.3980 N.am  229  LYS229     -0.1966
    161  CA        -7.9810  -13.9920  -20.8460 C.3   229  LYS229      0.1728
    162  C         -6.5520  -13.8630  -21.3590 C.2   229  LYS229      0.2616
    163  O         -6.3360  -14.0090  -22.5600 O.2   229  LYS229     -0.2715
    164  CB        -8.8150  -12.7720  -21.3160 C.3   229  LYS229      0.0311
    165  CG       -10.3370  -12.9790  -21.2530 C.3   229  LYS229      0.0038
    166  CD       -11.1040  -11.6790  -21.4470 C.3   229  LYS229      0.0206
    167  CE       -12.5990  -11.9000  -21.5660 C.3   229  LYS229      0.1093
    168  NZ       -13.3290  -10.6690  -21.9920 N.3   229  LYS229     -0.1314
    169  N         -5.5810  -13.6150  -20.4750 N.am  230  TYR230     -0.1960
    170  CA        -4.1790  -13.3570  -20.8750 C.3   230  TYR230      0.1771
    171  C         -3.1160  -14.1690  -20.1490 C.2   230  TYR230      0.2620
    172  O         -3.3090  -14.5340  -19.0060 O.2   230  TYR230     -0.2715
    173  CB        -3.8680  -11.8590  -20.6740 C.3   230  TYR230      0.0574
    174  CG        -4.6450  -10.9640  -21.6000 C.ar  230  TYR230     -0.0198
    175  CD1       -5.8380  -10.3710  -21.1910 C.ar  230  TYR230     -0.0009
    176  CD2       -4.2180  -10.7420  -22.9060 C.ar  230  TYR230     -0.0009
    177  CE1       -6.5710   -9.5560  -22.0520 C.ar  230  TYR230      0.0417
    178  CE2       -4.9480   -9.9370  -23.7780 C.ar  230  TYR230      0.0417
    179  CZ        -6.1220   -9.3420  -23.3460 C.ar  230  TYR230      0.1957
    180  OH        -6.8300   -8.5330  -24.1980 O.3   230  TYR230     -0.2866
    181  N         -1.9800  -14.4160  -20.8010 N.am  231  CYS231     -0.1954
    182  CA        -0.8760  -15.1230  -20.1520 C.3   231  CYS231      0.1843
    183  C         -0.0030  -14.1100  -19.4590 C.2   231  CYS231      0.2625
    184  O          0.9460  -13.5770  -20.0400 O.2   231  CYS231     -0.2714
    185  CB        -0.0890  -15.9770  -21.1350 C.3   231  CYS231      0.0997
    186  SG        -1.0360  -17.3610  -21.8260 S.3   231  CYS231     -0.0797
    187  N         -0.3580  -13.8330  -18.2030 N.am  232  ILE232     -0.1963
    188  CA         0.2890  -12.8550  -17.3300 C.3   232  ILE232      0.1727
    189  C          1.4210  -13.5240  -16.5680 C.2   232  ILE232      0.2616
    190  O          1.2540  -14.6200  -16.0220 O.2   232  ILE232     -0.2715
    191  CB        -0.7680  -12.1770  -16.4110 C.3   232  ILE232      0.0290
    192  CG1       -1.8010  -11.3660  -17.2390 C.3   232  ILE232      0.0022
    193  CG2       -0.1430  -11.3600  -15.3080 C.3   232  ILE232      0.0023
    194  CD1       -2.9260  -10.7360  -16.4600 C.3   232  ILE232      0.0001
    195  N          2.5730  -12.8510  -16.5450 N.am  233  PHE233     -0.1974
    196  CA         3.7730  -13.2470  -15.8170 C.3   233  PHE233      0.1639
    197  C          3.5680  -13.0490  -14.3030 C.2   233  PHE233      0.2290
    198  O          3.0250  -12.0330  -13.8610 O.2   233  PHE233     -0.2864
    199  CB         4.9850  -12.4020  -16.2690 C.3   233  PHE233      0.0560
    200  CG         5.4800  -12.7090  -17.6620 C.ar  233  PHE233     -0.0200
    201  CD1        5.0080  -11.9960  -18.7590 C.ar  233  PHE233     -0.0042
    202  CD2        6.4610  -13.6760  -17.8730 C.ar  233  PHE233     -0.0042
    203  CE1        5.4880  -12.2600  -20.0370 C.ar  233  PHE233     -0.0003
    204  CE2        6.9580  -13.9160  -19.1500 C.ar  233  PHE233     -0.0003
    205  CZ         6.4710  -13.2020  -20.2240 C.ar  233  PHE233     -0.0000
    206  N          0.1240   -7.1290  -18.2600 N.3   275  ILE275     -0.1245
    207  CA         0.5370   -8.4230  -18.8280 C.3   275  ILE275      0.1561
    208  C          1.8440   -8.9780  -18.2170 C.2   275  ILE275      0.2260
    209  O          2.0850  -10.1890  -18.2360 O.2   275  ILE275     -0.2867
    210  CB         0.6660   -8.2410  -20.3750 C.3   275  ILE275      0.0252
    211  CG1        0.6650   -9.5740  -21.1570 C.3   275  ILE275      0.0019
    212  CG2        1.8710   -7.3830  -20.7470 C.3   275  ILE275      0.0019
    213  CD1       -0.5710  -10.4930  -20.9360 C.3   275  ILE275      0.0001
    214  N         -0.7960   -3.4510  -21.7150 N.3   291  LEU291     -0.1245
    215  CA        -1.2450   -3.7130  -23.0710 C.3   291  LEU291      0.1561
    216  C         -1.5030   -2.4850  -23.9770 C.2   291  LEU291      0.2260
    217  O         -1.0150   -1.4050  -23.6630 O.2   291  LEU291     -0.2867
    218  CB        -2.3170   -4.8220  -23.1310 C.3   291  LEU291      0.0270
    219  CG        -1.8560   -6.2360  -22.7330 C.3   291  LEU291      0.0019
    220  CD1       -2.9680   -7.2330  -22.8870 C.3   291  LEU291      0.0001
    221  CD2       -0.6470   -6.6990  -23.5420 C.3   291  LEU291      0.0001
@<TRIPOS>BOND
     1    33    31    1
     2    32    31    1
     3    31    30    1
     4    26    27    1
     5    30    27    1
     6    27    28    1
     7    63    62    2
     8    79    78    1
     9    62    61    1
    10     9     8    1
    11    76    78   ar
    12    76    74   ar
    13    28    29    2
    14    28    34   am
    15    78    77   ar
    16    74    73   ar
    17     8     7    1
    18    34    35    1
    19    64    61    1
    20    64    65    1
    21    61    60    1
    22    68    69    1
    23    77    75   ar
    24    67    65   ar
    25    73    75   ar
    26    73    72    1
    27    69    72    1
    28    69    70    1
    29    65    66   ar
    30     7     6    1
    31    35    36    1
    32    24    23    2
    33    37    36    2
    34     6     5    1
    35    36    38   am
    36    70    71    2
    37    23    22    1
    38   101   102    1
    39   101    98    1
    40    99   100    2
    41    99    98    1
    42    38    39    1
    43    43    45    1
    44    43    42    1
    45   104   102   ar
    46   104   106   ar
    47     5     2    1
    48    22    25    1
    49    22    21    1
    50   102   103   ar
    51    98    97    1
    52   106   107   ar
    53    39    42    1
    54    39    40    1
    55     1     2    1
    56    42    44    1
    57     2     3    1
    58   103   105   ar
    59   107   105   ar
    60    40    46   am
    61    40    41    2
    62    80    81    1
    63     3    10   am
    64     3     4    2
    65    51    50    1
    66    46    47    1
    67    10    11    1
    68    81    84    1
    69    81    82    1
    70    50    47    1
    71    47    48    1
    72    13    12    2
    73    84    85    1
    74    14    11    1
    75    87    85   ar
    76    87    89   ar
    77    11    12    1
    78    55    54    2
    79    82    91   am
    80    82    83    2
    81    85    86   ar
    82    89    90   ar
    83    52    48   am
    84    52    53    1
    85    48    49    2
    86    91    92    1
    87    94    93    2
    88    20    19    1
    89   123   121   ar
    90   123   124   ar
    91   121   119   ar
    92    19    16    1
    93    54    53    1
    94    93    92    1
    95    53    56    1
    96    86    88   ar
    97    90    88   ar
    98    92    95    1
    99   125   124    1
   100    56    57    1
   101   124   122   ar
   102   180   179    1
   103    15    16    1
   104   216   217    2
   105   216   215    1
   106   119   118    1
   107   119   120   ar
   108    96    95    1
   109    16    17    1
   110   178   179   ar
   111   178   176   ar
   112   118   115    1
   113   221   219    1
   114   179   177   ar
   115   218   215    1
   116   218   219    1
   117   215   214    1
   118   108   109    1
   119   122   120   ar
   120   176   174   ar
   121   220   219    1
   122    57    59   ar
   123    57    58   ar
   124    17    18    2
   125   163   162    2
   126   114   115    1
   127   109   110    1
   128   109   112    1
   129   115   116    1
   130   116   117    2
   131   177   175   ar
   132   168   167    1
   133   186   185    1
   134   110   111    2
   135   174   175   ar
   136   174   173    1
   137   112   113    1
   138   167   166    1
   139   166   165    1
   140   162   161    1
   141   162   169   am
   142   164   165    1
   143   164   161    1
   144   211   213    1
   145   211   210    1
   146   185   182    1
   147   170   173    1
   148   170   169    1
   149   170   171    1
   150   161   160    1
   151   181   182    1
   152   181   171   am
   153   212   210    1
   154   210   207    1
   155   149   148    1
   156   205   203   ar
   157   205   204   ar
   158   182   183    1
   159   171   172    2
   160   184   183    2
   161   203   201   ar
   162   154   153    2
   163   183   187   am
   164   160   153   am
   165   204   202   ar
   166   153   152    1
   167   129   128    2
   168   207   206    1
   169   207   208    1
   170   148   150    1
   171   148   147    1
   172   201   200   ar
   173   127   130    1
   174   127   128    1
   175   127   126    1
   176   130   131    1
   177   209   208    2
   178   187   188    1
   179   128   132   am
   180   147   144    1
   181   202   200   ar
   182   200   199    1
   183   152   155    1
   184   152   151    1
   185   188   189    1
   186   188   191    1
   187   192   194    1
   188   192   191    1
   189   155   156    1
   190   132   133    1
   191   133   136    1
   192   133   134    1
   193   189   195   am
   194   189   190    2
   195   195   196    1
   196   138   140   ar
   197   138   137   ar
   198   144   143    1
   199   144   145    1
   200   191   193    1
   201   146   145    2
   202   158   157   ar
   203   199   196    1
   204   140   142   ar
   205   136   137    1
   206   156   157    1
   207   196   197    1
   208   134   135    2
   209   137   139   ar
   210   157   159   ar
   211   142   141   ar
   212   197   198    2
   213   139   141   ar
