@<TRIPOS>MOLECULE
tmp/3p4kA00.pdb
 136 131 0 0 0
SMALL
GASTEIGER

@<TRIPOS>ATOM
      1  N         23.3850   34.5020   18.4050 N.3   107  GLY107     -0.1210
      2  CA        23.2120   34.9930   17.0200 C.3   107  GLY107      0.1956
      3  C         24.3470   34.4670   16.1450 C.2   107  GLY107      0.2611
      4  O         24.2220   33.4340   15.4890 O.2   107  GLY107     -0.2717
      5  N         25.5040   35.1120   16.2270 N.am  108  ALA108     -0.1979
      6  CA        26.6330   34.7880   15.3870 C.3   108  ALA108      0.1597
      7  C         27.7810   34.3420   16.2780 C.2   108  ALA108      0.2287
      8  O         27.8880   34.7640   17.4110 O.2   108  ALA108     -0.2864
      9  CB        27.0220   36.0110   14.6450 C.3   108  ALA108      0.0319
     10  N         31.0720   34.0660   11.7070 N.3   112  ASN112     -0.1225
     11  CA        30.0700   34.8810   11.0510 C.3   112  ASN112      0.1785
     12  C         30.4780   36.3070   11.0550 C.2   112  ASN112      0.2597
     13  O         30.2240   37.0210   10.1060 O.2   112  ASN112     -0.2718
     14  CB        28.7250   34.8270   11.7820 C.3   112  ASN112      0.1169
     15  CG        28.0660   33.4570   11.7330 C.2   112  ASN112      0.2627
     16  OD1       27.6050   33.0330   10.6820 O.2   112  ASN112     -0.2716
     17  ND2       28.0040   32.7630   12.8890 N.am  112  ASN112     -0.0877
     18  N         31.0750   36.7890   12.1400 N.am  113  ILE113     -0.1980
     19  CA        31.4630   38.1940   12.1520 C.3   113  ILE113      0.1595
     20  C         32.4940   38.4450   10.9830 C.2   113  ILE113      0.2287
     21  O         32.3320   39.3720   10.1830 O.2   113  ILE113     -0.2864
     22  CB        32.0660   38.6170   13.5440 C.3   113  ILE113      0.0276
     23  CG1       30.9920   38.5610   14.6730 C.3   113  ILE113      0.0022
     24  CG2       32.8630   39.9230   13.4760 C.3   113  ILE113      0.0022
     25  CD1       29.7030   39.2800   14.3890 C.3   113  ILE113      0.0001
     26  N         33.0500   36.7590    8.3240 N.3   115  LYS115     -0.1231
     27  CA        32.3990   36.6010    7.0330 C.3   115  LYS115      0.1693
     28  C         31.5980   37.8350    6.5010 C.2   115  LYS115      0.2592
     29  O         31.5850   38.0590    5.3170 O.2   115  LYS115     -0.2718
     30  CB        31.6170   35.2970    7.0240 C.3   115  LYS115      0.0285
     31  CG        30.4960   35.2870    6.0680 C.3   115  LYS115      0.0035
     32  CD        29.8330   33.9020    5.9380 C.3   115  LYS115      0.0206
     33  CE        28.7070   33.9120    4.8850 C.3   115  LYS115      0.1093
     34  NZ        27.8050   32.7530    5.2330 N.3   115  LYS115     -0.1314
     35  N         31.0030   38.6580    7.3640 N.am  116  CYS116     -0.1956
     36  CA        30.1770   39.7920    6.9370 C.3   116  CYS116      0.1843
     37  C         30.8650   41.1410    6.9670 C.2   116  CYS116      0.2625
     38  O         30.2780   42.1310    6.5540 O.2   116  CYS116     -0.2714
     39  CB        28.8690   39.8700    7.7640 C.3   116  CYS116      0.0997
     40  SG        27.9810   38.2800    7.8620 S.3   116  CYS116     -0.0797
     41  N         32.1080   41.2240    7.4410 N.am  117  GLN117     -0.1977
     42  CA        32.8040   42.5010    7.3540 C.3   117  GLN117      0.1601
     43  C         34.2970   42.3510    7.6100 C.2   117  GLN117      0.2287
     44  O         34.7810   41.3210    8.1340 O.2   117  GLN117     -0.2864
     45  CB        32.2290   43.5560    8.3300 C.3   117  GLN117      0.0394
     46  CG        32.3300   43.1060    9.8440 C.3   117  GLN117      0.0908
     47  CD        30.9440   42.8170   10.3990 C.2   117  GLN117      0.2608
     48  OE1       30.5630   41.6660   10.5930 O.2   117  GLN117     -0.2717
     49  NE2       30.1640   43.8570   10.5690 N.am  117  GLN117     -0.0878
     50  N         37.2320   43.3490    9.7740 N.3   119  LEU119     -0.1245
     51  CA        37.4930   43.8810   11.1170 C.3   119  LEU119      0.1561
     52  C         38.6210   44.9380   11.1260 C.2   119  LEU119      0.2260
     53  O         39.6940   44.7300   10.5240 O.2   119  LEU119     -0.2867
     54  CB        37.8910   42.7360   12.0520 C.3   119  LEU119      0.0270
     55  CG        36.7650   41.7140   12.3020 C.3   119  LEU119      0.0019
     56  CD1       37.1740   40.6630   13.3370 C.3   119  LEU119      0.0001
     57  CD2       35.5440   42.4610   12.8230 C.3   119  LEU119      0.0001
     58  N         40.9970   48.0560   15.8940 N.3   122  ASP122     -0.1225
     59  CA        40.2210   48.2860   17.1150 C.3   122  ASP122      0.1805
     60  C         39.2160   47.1470   17.4630 C.2   122  ASP122      0.2597
     61  O         39.0600   46.7980   18.6380 O.2   122  ASP122     -0.2718
     62  CB        39.4910   49.6270   17.0510 C.3   122  ASP122      0.1424
     63  CG        38.6140   49.8590   18.2920 C.2   122  ASP122      0.3668
     64  OD1       37.3730   50.0120   18.1460 O.co2 122  ASP122     -0.2456
     65  OD2       39.1480   49.8240   19.4330 O.co2 122  ASP122     -0.2456
     66  N         38.5410   46.5740   16.4510 N.am  123  HIS123     -0.1975
     67  CA        37.7010   45.3870   16.6590 C.3   123  HIS123      0.1656
     68  C         38.5160   44.2070   17.2110 C.2   123  HIS123      0.2291
     69  O         38.0420   43.4680   18.0930 O.2   123  HIS123     -0.2864
     70  CB        37.0970   44.9030   15.3530 C.3   123  HIS123      0.0771
     71  CG        36.0630   45.8130   14.7810 C.ar  123  HIS123      0.0820
     72  ND1       36.1670   46.3470   13.5150 N.ar  123  HIS123     -0.2267
     73  CD2       34.8950   46.2650   15.2860 C.ar  123  HIS123      0.1154
     74  CE1       35.0980   47.0840   13.2690 C.ar  123  HIS123      0.1986
     75  NE2       34.3180   47.0580   14.3280 N.ar  123  HIS123     -0.2212
     76  N         39.2470   44.8570   20.9550 N.3   126  PHE126     -0.1241
     77  CA        38.1080   44.6100   21.8480 C.3   126  PHE126      0.1605
     78  C         37.7580   43.0850   21.9330 C.2   126  PHE126      0.2264
     79  O         37.4320   42.5450   23.0060 O.2   126  PHE126     -0.2867
     80  CB        36.9190   45.3990   21.3720 C.3   126  PHE126      0.0534
     81  CG        35.7630   45.4600   22.3460 C.ar  126  PHE126     -0.0203
     82  CD1       35.9600   45.6360   23.7130 C.ar  126  PHE126     -0.0042
     83  CD2       34.4550   45.4070   21.8690 C.ar  126  PHE126     -0.0042
     84  CE1       34.8850   45.7020   24.6010 C.ar  126  PHE126     -0.0003
     85  CE2       33.3460   45.4910   22.7480 C.ar  126  PHE126     -0.0003
     86  CZ        33.5680   45.6560   24.1340 C.ar  126  PHE126     -0.0000
     87  N         29.2800   36.4560   19.3930 N.3   155  VAL155     -0.1231
     88  CA        29.6120   37.8960   19.2810 C.3   155  VAL155      0.1692
     89  C         28.3470   38.5660   18.8150 C.2   155  VAL155      0.2592
     90  O         27.7220   38.0760   17.8670 O.2   155  VAL155     -0.2718
     91  CB        30.7170   38.1860   18.2140 C.3   155  VAL155      0.0266
     92  CG1       30.9280   39.6880   18.0370 C.3   155  VAL155      0.0020
     93  CG2       32.0430   37.5160   18.5910 C.3   155  VAL155      0.0020
     94  N         27.9520   39.6570   19.4440 N.am  156  ASN156     -0.1960
     95  CA        26.7500   40.3850   19.0060 C.3   156  ASN156      0.1819
     96  C         27.0110   41.6430   18.1630 C.2   156  ASN156      0.2621
     97  O         28.1710   41.8700   17.7400 O.2   156  ASN156     -0.2715
     98  CB        25.7820   40.6500   20.1700 C.3   156  ASN156      0.1195
     99  CG        26.2930   41.6460   21.1190 C.2   156  ASN156      0.2630
    100  OD1       27.1520   42.4800   20.7800 O.2   156  ASN156     -0.2716
    101  ND2       25.7540   41.6100   22.3530 N.am  156  ASN156     -0.0877
    102  N         25.9440   42.4160   17.8730 N.am  157  GLU157     -0.1963
    103  CA        26.0060   43.6190   16.9910 C.3   157  GLU157      0.1733
    104  C         26.9020   44.6640   17.5820 C.2   157  GLU157      0.2616
    105  O         27.4710   45.5110   16.8390 O.2   157  GLU157     -0.2715
    106  CB        24.6310   44.2920   16.8330 C.3   157  GLU157      0.0429
    107  CG        23.6280   43.5620   15.9120 C.3   157  GLU157      0.1163
    108  CD        22.7540   42.4610   16.6170 C.2   157  GLU157      0.3649
    109  OE1       21.6310   42.2210   16.0400 O.co2 157  GLU157     -0.2457
    110  OE2       23.1980   41.8280   17.6800 O.co2 157  GLU157     -0.2457
    111  N         27.0090   44.6460   18.9210 N.am  158  ASP158     -0.1957
    112  CA        27.8520   45.6150   19.5910 C.3   158  ASP158      0.1840
    113  C         29.2990   45.1340   19.7360 C.2   158  ASP158      0.2622
    114  O         30.0790   45.7650   20.4350 O.2   158  ASP158     -0.2715
    115  CB        27.2640   46.0150   20.9530 C.3   158  ASP158      0.1450
    116  CG        25.8790   46.6460   20.8190 C.2   158  ASP158      0.3671
    117  OD1       25.7950   47.7560   20.2460 O.co2 158  ASP158     -0.2456
    118  OD2       24.8740   45.9980   21.2250 O.co2 158  ASP158     -0.2456
    119  N         29.6420   44.0180   19.0950 N.am  159  CYS159     -0.1968
    120  CA        30.9680   43.4420   19.2000 C.3   159  CYS159      0.1712
    121  C         31.2610   42.9250   20.6530 C.2   159  CYS159      0.2296
    122  O         32.4220   42.7770   21.0550 O.2   159  CYS159     -0.2864
    123  CB        31.9970   44.4680   18.7180 C.3   159  CYS159      0.0983
    124  SG        33.6660   43.8170   18.3440 S.3   159  CYS159     -0.0798
    125  N         41.1520   49.5070   26.6240 N.3   296  TYR296     -0.1241
    126  CA        40.0690   48.7460   27.1900 C.3   296  TYR296      0.1605
    127  C         40.3960   48.2720   28.6070 C.2   296  TYR296      0.2264
    128  O         39.4850   48.0000   29.4010 O.2   296  TYR296     -0.2867
    129  CB        39.7810   47.5710   26.2840 C.3   296  TYR296      0.0534
    130  CG        39.2100   48.0000   24.9340 C.ar  296  TYR296     -0.0201
    131  CD1       37.9140   48.5050   24.8320 C.ar  296  TYR296     -0.0009
    132  CD2       39.9770   47.9240   23.7740 C.ar  296  TYR296     -0.0009
    133  CE1       37.3840   48.8820   23.6150 C.ar  296  TYR296      0.0417
    134  CE2       39.4730   48.2990   22.5530 C.ar  296  TYR296      0.0417
    135  CZ        38.1810   48.8000   22.4750 C.ar  296  TYR296      0.1957
    136  OH        37.6770   49.1870   21.2580 O.3   296  TYR296     -0.2866
@<TRIPOS>BOND
     1    33    34    1
     2    33    32    1
     3    29    28    2
     4    32    31    1
     5    31    30    1
     6    28    27    1
     7    28    35   am
     8    38    37    2
     9    36    37    1
    10    36    35    1
    11    36    39    1
    12    37    41   am
    13    30    27    1
    14    27    26    1
    15    42    41    1
    16    42    43    1
    17    42    45    1
    18    43    44    2
    19    39    40    1
    20    45    46    1
    21    50    51    1
    22    46    47    1
    23    13    12    2
    24    21    20    2
    25    47    49   am
    26    47    48    2
    27    53    52    2
    28    16    15    2
    29    20    19    1
    30    11    12    1
    31    11    10    1
    32    11    14    1
    33    12    18   am
    34    51    52    1
    35    51    54    1
    36    15    14    1
    37    15    17   am
    38    54    55    1
    39    18    19    1
    40    19    22    1
    41    55    57    1
    42    55    56    1
    43    74    72   ar
    44    74    75   ar
    45    24    22    1
    46    72    71   ar
    47    22    23    1
    48    75    73   ar
    49    25    23    1
    50     9     6    1
    51    71    73   ar
    52    71    70    1
    53    70    67    1
    54     6     5    1
    55     6     7    1
    56     4     3    2
    57    58    59    1
    58   107   108    1
    59   107   106    1
    60   109   108   ar
    61     3     5   am
    62     3     2    1
    63     7     8    2
    64    66    67    1
    65    66    60   am
    66   108   110   ar
    67    67    68    1
    68   106   103    1
    69   105   104    2
    70   103   104    1
    71   103   102    1
    72     2     1    1
    73    62    59    1
    74    62    63    1
    75    59    60    1
    76    68    69    2
    77    60    61    2
    78   104   111   am
    79    97    96    2
    80    90    89    2
    81   102    96   am
    82    92    91    1
    83    64    63   ar
    84    96    95    1
    85    91    93    1
    86    91    88    1
    87    63    65   ar
    88   124   123    1
    89   123   120    1
    90    89    88    1
    91    89    94   am
    92   111   112    1
    93    95    94    1
    94    95    98    1
    95   119   120    1
    96   119   113   am
    97   120   121    1
    98    88    87    1
    99   112   113    1
   100   112   115    1
   101   113   114    2
   102    98    99    1
   103   117   116   ar
   104   121   122    2
   105   100    99    2
   106   116   115    1
   107   116   118   ar
   108    76    77    1
   109    99   101   am
   110   136   135    1
   111    80    77    1
   112    80    81    1
   113    77    78    1
   114    83    81   ar
   115    83    85   ar
   116    78    79    2
   117    81    82   ar
   118   135   134   ar
   119   135   133   ar
   120   134   132   ar
   121    85    86   ar
   122   133   131   ar
   123    82    84   ar
   124   132   130   ar
   125    86    84   ar
   126   131   130   ar
   127   130   129    1
   128   129   126    1
   129   125   126    1
   130   126   127    1
   131   127   128    2
