@<TRIPOS>MOLECULE
tmp/3p4pA01.pdb
 113 106 0 0 0
SMALL
GASTEIGER

@<TRIPOS>ATOM
      1  N         17.6780   32.5090  -19.9110 N.3    50  GLU50      -0.1231
      2  CA        18.7890   33.1250  -20.6630 C.3    50  GLU50       0.1699
      3  C         19.8180   33.8410  -19.8700 C.2    50  GLU50       0.2593
      4  O         20.9180   33.9960  -20.3580 O.2    50  GLU50      -0.2718
      5  CB        18.3260   34.1560  -21.6580 C.3    50  GLU50       0.0402
      6  CG        17.7880   33.6350  -22.9120 C.3    50  GLU50       0.1161
      7  CD        16.6270   34.5100  -23.3730 C.2    50  GLU50       0.3649
      8  OE1       16.2760   34.4510  -24.5770 O.co2  50  GLU50      -0.2457
      9  OE2       16.0540   35.2510  -22.5230 O.co2  50  GLU50      -0.2457
     10  N         19.4760   34.3430  -18.7000 N.am   51  GLY51      -0.1942
     11  CA        20.4720   35.0260  -17.9040 C.3    51  GLY51       0.2014
     12  C         21.6530   34.1650  -17.4660 C.2    51  GLY51       0.2639
     13  O         22.8020   34.5710  -17.6910 O.2    51  GLY51      -0.2714
     14  N         21.3900   33.0070  -16.8360 N.am   52  GLY52      -0.1954
     15  CA        22.4600   32.1200  -16.3770 C.3    52  GLY52       0.1869
     16  C         22.2530   31.4790  -14.9970 C.2    52  GLY52       0.2309
     17  O         21.1820   31.6450  -14.3620 O.2    52  GLY52      -0.2863
     18  N         24.6500   39.5410  -12.4940 N.3   117  PHE117     -0.1241
     19  CA        23.2370   39.3080  -12.5570 C.3   117  PHE117      0.1605
     20  C         22.6000   39.5870  -11.2160 C.2   117  PHE117      0.2264
     21  O         23.2690   39.5310  -10.1870 O.2   117  PHE117     -0.2867
     22  CB        22.9660   37.8630  -12.9570 C.3   117  PHE117      0.0534
     23  CG        22.0840   37.7640  -14.1160 C.ar  117  PHE117     -0.0203
     24  CD1       22.5230   38.2140  -15.3570 C.ar  117  PHE117     -0.0042
     25  CD2       20.8020   37.2750  -13.9760 C.ar  117  PHE117     -0.0042
     26  CE1       21.7150   38.1630  -16.4390 C.ar  117  PHE117     -0.0003
     27  CE2       19.9710   37.2170  -15.0540 C.ar  117  PHE117     -0.0003
     28  CZ        20.4240   37.6750  -16.2980 C.ar  117  PHE117     -0.0000
     29  N          7.4430   36.4650   -8.2670 N.3   231  GLN231     -0.1245
     30  CA         8.3810   37.3950   -8.8860 C.3   231  GLN231      0.1566
     31  C          7.8940   37.9280  -10.2340 C.2   231  GLN231      0.2260
     32  O          7.4130   37.1560  -11.0840 O.2   231  GLN231     -0.2867
     33  CB         9.7010   36.6950   -9.0750 C.3   231  GLN231      0.0367
     34  CG        10.7450   37.5520   -9.6610 C.3   231  GLN231      0.0905
     35  CD        12.0780   36.9030   -9.5130 C.2   231  GLN231      0.2608
     36  OE1       12.6710   36.4120  -10.4890 O.2   231  GLN231     -0.2717
     37  NE2       12.5620   36.8550   -8.2730 N.am  231  GLN231     -0.0878
     38  N          9.0420   40.2030  -13.6880 N.3   233  HIS233     -0.1241
     39  CA        10.2160   40.7070  -14.3630 C.3   233  HIS233      0.1621
     40  C          9.8750   42.0570  -14.9210 C.2   233  HIS233      0.2264
     41  O          8.7460   42.2910  -15.3870 O.2   233  HIS233     -0.2867
     42  CB        10.5860   39.7940  -15.4940 C.3   233  HIS233      0.0745
     43  CG        11.9930   39.9410  -15.9300 C.ar  233  HIS233      0.0817
     44  ND1       12.3700   40.7780  -16.9590 N.ar  233  HIS233     -0.2268
     45  CD2       13.1220   39.3510  -15.4800 C.ar  233  HIS233      0.1154
     46  CE1       13.6780   40.6870  -17.1310 C.ar  233  HIS233      0.1986
     47  NE2       14.1570   39.8250  -16.2460 N.ar  233  HIS233     -0.2212
     48  N          9.9530   37.4360  -22.2140 N.3   243  LEU243     -0.1245
     49  CA        11.0450   38.0640  -21.4520 C.3   243  LEU243      0.1561
     50  C         12.1110   38.7440  -22.2760 C.2   243  LEU243      0.2260
     51  O         12.5850   38.1950  -23.2660 O.2   243  LEU243     -0.2867
     52  CB        11.7360   37.0020  -20.5900 C.3   243  LEU243      0.0270
     53  CG        12.8700   37.5140  -19.7050 C.3   243  LEU243      0.0019
     54  CD1       12.3010   38.5290  -18.7120 C.3   243  LEU243      0.0001
     55  CD2       13.4400   36.3810  -18.9380 C.3   243  LEU243      0.0001
     56  N         15.7120   39.5860  -21.4640 N.3   245  THR245     -0.1203
     57  CA        16.6780   39.3420  -20.4050 C.3   245  THR245      0.1994
     58  C         17.2650   40.6170  -19.8090 C.2   245  THR245      0.2617
     59  O         17.4770   41.6130  -20.5140 O.2   245  THR245     -0.2717
     60  CB        17.8340   38.4450  -20.8620 C.3   245  THR245      0.1784
     61  OG1       18.7300   38.3050  -19.7700 O.3   245  THR245     -0.2211
     62  CG2       18.5720   39.0540  -21.9990 C.3   245  THR245      0.0376
     63  N         17.4960   40.5660  -18.4980 N.am  246  GLU246     -0.1979
     64  CA        18.2250   41.5970  -17.7890 C.3   246  GLU246      0.1602
     65  C         19.4940   41.9960  -18.5660 C.2   246  GLU246      0.2287
     66  O         19.8720   43.1710  -18.6330 O.2   246  GLU246     -0.2864
     67  CB        18.6080   41.0760  -16.4260 C.3   246  GLU246      0.0415
     68  CG        19.2830   42.1110  -15.5300 C.3   246  GLU246      0.1163
     69  CD        19.5580   41.5630  -14.1120 C.2   246  GLU246      0.3649
     70  OE1       18.6180   41.0270  -13.4740 O.co2 246  GLU246     -0.2457
     71  OE2       20.7080   41.6500  -13.6250 O.co2 246  GLU246     -0.2457
     72  N         15.3930   45.0620   -8.7400 N.3   288  ARG288     -0.1245
     73  CA        14.3090   44.5620   -9.5540 C.3   288  ARG288      0.1563
     74  C         12.9190   45.1290   -9.1810 C.2   288  ARG288      0.2260
     75  O         12.2500   45.7570  -10.0240 O.2   288  ARG288     -0.2867
     76  CB        14.3130   43.0620   -9.3810 C.3   288  ARG288      0.0307
     77  CG        13.7060   42.3300  -10.5220 C.3   288  ARG288      0.0489
     78  CD        12.5950   41.4270  -10.0190 C.3   288  ARG288      0.2205
     79  NE        12.9520   40.7260   -8.7890 N.pl3 288  ARG288     -0.0865
     80  CZ        13.7450   39.6640   -8.7420 C.cat 288  ARG288      0.5346
     81  NH1       14.2820   39.1810   -9.8580 N.pl3 288  ARG288      0.1354
     82  NH2       14.0140   39.0890   -7.5790 N.pl3 288  ARG288      0.1354
     83  N          6.4630   36.1390  -13.5640 N.3   356  HIS356     -0.1241
     84  CA         7.6550   35.4810  -14.0190 C.3   356  HIS356      0.1621
     85  C          8.0350   34.2390  -13.2670 C.2   356  HIS356      0.2264
     86  O          8.2530   33.1980  -13.8860 O.2   356  HIS356     -0.2867
     87  CB         8.7990   36.4680  -14.0570 C.3   356  HIS356      0.0745
     88  CG        10.0890   35.8520  -14.4340 C.ar  356  HIS356      0.0817
     89  ND1       10.2520   35.0850  -15.5700 N.ar  356  HIS356     -0.2268
     90  CD2       11.2990   35.9020  -13.8370 C.ar  356  HIS356      0.1154
     91  CE1       11.5070   34.6800  -15.6520 C.ar  356  HIS356      0.1986
     92  NE2       12.1640   35.1640  -14.6140 N.ar  356  HIS356     -0.2212
     93  N         13.5580   35.4930   -5.0460 N.3   391  ARG391     -0.1245
     94  CA        14.6480   34.7920   -5.6480 C.3   391  ARG391      0.1563
     95  C         15.7080   35.7590   -6.1960 C.2   391  ARG391      0.2260
     96  O         15.3960   36.8680   -6.6370 O.2   391  ARG391     -0.2867
     97  CB        14.1320   33.9230   -6.7630 C.3   391  ARG391      0.0307
     98  CG        15.2240   33.1790   -7.4350 C.3   391  ARG391      0.0489
     99  CD        14.6780   32.2270   -8.4980 C.3   391  ARG391      0.2205
    100  NE        14.1550   32.9420   -9.6580 N.pl3 391  ARG391     -0.0865
    101  CZ        14.8770   33.3120  -10.7280 C.cat 391  ARG391      0.5346
    102  NH1       16.1950   33.0550  -10.8230 N.pl3 391  ARG391      0.1354
    103  NH2       14.2790   33.9650  -11.7130 N.pl3 391  ARG391      0.1354
    104  N         18.4950   36.6430   -9.0860 N.3   393  GLY393     -0.1210
    105  CA        18.5760   36.3890  -10.5280 C.3   393  GLY393      0.1956
    106  C         19.6170   35.2980  -10.6940 C.2   393  GLY393      0.2612
    107  O         20.6890   35.3370  -10.0600 O.2   393  GLY393     -0.2717
    108  N         19.3140   34.2900  -11.4880 N.am  394  SER394     -0.1952
    109  CA        20.2950   33.2340  -11.7120 C.3   394  SER394      0.1924
    110  C         20.4190   32.2080  -10.5660 C.2   394  SER394      0.2314
    111  O         21.1200   31.2340  -10.7220 O.2   394  SER394     -0.2863
    112  CB        21.6660   33.8020  -12.0840 C.3   394  SER394      0.2116
    113  OG        22.4130   34.0390  -10.9070 O.3   394  SER394     -0.2180
@<TRIPOS>BOND
     1     8     7   ar
     2     7     6    1
     3     7     9   ar
     4    51    50    2
     5     6     5    1
     6    50    49    1
     7    48    49    1
     8    62    60    1
     9     5     2    1
    10    56    57    1
    11    49    52    1
    12    60    57    1
    13    60    61    1
    14     2     1    1
    15     2     3    1
    16    52    53    1
    17    59    58    2
    18    57    58    1
    19     4     3    2
    20     3    10   am
    21    58    63   am
    22    53    55    1
    23    53    54    1
    24    10    11    1
    25    66    65    2
    26    65    64    1
    27    63    64    1
    28    11    12    1
    29    64    67    1
    30    13    12    2
    31    12    14   am
    32    46    44   ar
    33    46    47   ar
    34    44    43   ar
    35    14    15    1
    36    26    28   ar
    37    26    24   ar
    38    67    68    1
    39    15    16    1
    40    28    27   ar
    41    47    45   ar
    42    43    42    1
    43    43    45   ar
    44    91    89   ar
    45    91    92   ar
    46    89    88   ar
    47    68    69    1
    48    42    39    1
    49    41    40    2
    50    24    23   ar
    51    27    25   ar
    52    16    17    2
    53    40    39    1
    54    92    90   ar
    55    88    87    1
    56    88    90   ar
    57    39    38    1
    58    23    25   ar
    59    23    22    1
    60    69    71   ar
    61    69    70   ar
    62    87    84    1
    63    84    83    1
    64    84    85    1
    65    86    85    2
    66    22    19    1
    67    19    18    1
    68    19    20    1
    69   112   109    1
    70   112   113    1
    71   103   101    1
    72   109   108    1
    73   109   110    1
    74   108   106   am
    75    20    21    2
    76    32    31    2
    77   102   101    1
    78   101   100    2
    79   111   110    2
    80   106   105    1
    81   106   107    2
    82   105   104    1
    83    77    78    1
    84    77    76    1
    85    36    35    2
    86    31    30    1
    87    75    74    2
    88    78    79    1
    89    81    80    1
    90    34    35    1
    91    34    33    1
    92   100    99    1
    93    73    76    1
    94    73    74    1
    95    73    72    1
    96    35    37   am
    97    33    30    1
    98    30    29    1
    99    79    80    2
   100    80    82    1
   101    99    98    1
   102    98    97    1
   103    97    94    1
   104    96    95    2
   105    95    94    1
   106    94    93    1
