@<TRIPOS>MOLECULE
tmp/3p4rA01.pdb
 112 105 0 0 0
SMALL
GASTEIGER

@<TRIPOS>ATOM
      1  N         16.6370   32.4900  -19.9590 N.3    50  GLU50      -0.1231
      2  CA        17.6690   33.1800  -20.7360 C.3    50  GLU50       0.1699
      3  C         18.7840   33.7750  -19.9050 C.2    50  GLU50       0.2593
      4  O         19.9360   33.7600  -20.3230 O.2    50  GLU50      -0.2718
      5  CB        17.0570   34.2480  -21.6590 C.3    50  GLU50       0.0402
      6  CG        15.7070   34.8190  -21.2030 C.3    50  GLU50       0.1161
      7  CD        14.7890   35.1700  -22.3760 C.2    50  GLU50       0.3649
      8  OE1       14.7100   34.3720  -23.3450 O.co2  50  GLU50      -0.2457
      9  OE2       14.1390   36.2440  -22.3220 O.co2  50  GLU50      -0.2457
     10  N         18.4350   34.2870  -18.7300 N.am   51  GLY51      -0.1942
     11  CA        19.3750   34.9970  -17.8770 C.3    51  GLY51       0.2014
     12  C         20.5980   34.1900  -17.5040 C.2    51  GLY51       0.2639
     13  O         21.6880   34.4680  -18.0040 O.2    51  GLY51      -0.2714
     14  N         20.4180   33.2020  -16.6260 N.am   52  GLY52      -0.1954
     15  CA        21.5000   32.3060  -16.2270 C.3    52  GLY52       0.1869
     16  C         21.3270   31.6280  -14.8800 C.2    52  GLY52       0.2309
     17  O         20.4250   31.9460  -14.1170 O.2    52  GLY52      -0.2863
     18  N         23.4960   39.2250  -12.1250 N.3   117  PHE117     -0.1241
     19  CA        22.0430   39.1460  -12.1820 C.3   117  PHE117      0.1605
     20  C         21.4150   39.2790  -10.7980 C.2   117  PHE117      0.2264
     21  O         22.0730   39.0560   -9.7740 O.2   117  PHE117     -0.2867
     22  CB        21.5980   37.8350  -12.8260 C.3   117  PHE117      0.0534
     23  CG        21.3730   37.9360  -14.3010 C.ar  117  PHE117     -0.0203
     24  CD1       22.3890   37.6390  -15.1980 C.ar  117  PHE117     -0.0042
     25  CD2       20.1450   38.3310  -14.8010 C.ar  117  PHE117     -0.0042
     26  CE1       22.1760   37.7350  -16.5730 C.ar  117  PHE117     -0.0003
     27  CE2       19.9270   38.4300  -16.1730 C.ar  117  PHE117     -0.0003
     28  CZ        20.9390   38.1310  -17.0560 C.ar  117  PHE117     -0.0000
     29  N          8.2000   40.3550  -13.7530 N.3   233  HIS233     -0.1241
     30  CA         9.4330   40.8050  -14.3800 C.3   233  HIS233      0.1621
     31  C          9.2240   42.1760  -14.9900 C.2   233  HIS233      0.2264
     32  O          8.3190   42.3500  -15.7980 O.2   233  HIS233     -0.2867
     33  CB         9.8570   39.8440  -15.4760 C.3   233  HIS233      0.0745
     34  CG        11.2080   40.1440  -16.0470 C.ar  233  HIS233      0.0817
     35  ND1       12.3110   39.3530  -15.8020 N.ar  233  HIS233     -0.2268
     36  CD2       11.6350   41.1460  -16.8550 C.ar  233  HIS233      0.1154
     37  CE1       13.3580   39.8530  -16.4350 C.ar  233  HIS233      0.1986
     38  NE2       12.9750   40.9400  -17.0830 N.ar  233  HIS233     -0.2212
     39  N          9.0960   37.6510  -22.2110 N.3   243  LEU243     -0.1245
     40  CA        10.2030   38.1990  -21.4610 C.3   243  LEU243      0.1561
     41  C         11.3540   38.7730  -22.2890 C.2   243  LEU243      0.2260
     42  O         11.9100   38.0990  -23.1660 O.2   243  LEU243     -0.2867
     43  CB        10.7700   37.1340  -20.5320 C.3   243  LEU243      0.0270
     44  CG        11.7160   37.7920  -19.5420 C.3   243  LEU243      0.0019
     45  CD1       10.8660   38.6400  -18.6380 C.3   243  LEU243      0.0001
     46  CD2       12.5230   36.7850  -18.7650 C.3   243  LEU243      0.0001
     47  N         15.0350   39.7510  -21.4030 N.3   245  THR245     -0.1203
     48  CA        16.0240   39.5280  -20.3460 C.3   245  THR245      0.1994
     49  C         16.5600   40.8050  -19.7080 C.2   245  THR245      0.2617
     50  O         16.7950   41.7960  -20.3980 O.2   245  THR245     -0.2717
     51  CB        17.2130   38.6890  -20.8430 C.3   245  THR245      0.1784
     52  OG1       18.1170   38.4820  -19.7540 O.3   245  THR245     -0.2211
     53  CG2       17.9550   39.3940  -21.9690 C.3   245  THR245      0.0376
     54  N         16.7530   40.7710  -18.3910 N.am  246  GLU246     -0.1979
     55  CA        17.3910   41.8740  -17.6710 C.3   246  GLU246      0.1602
     56  C         18.7510   42.2040  -18.2930 C.2   246  GLU246      0.2287
     57  O         19.2070   43.3480  -18.2330 O.2   246  GLU246     -0.2864
     58  CB        17.5440   41.5390  -16.1840 C.3   246  GLU246      0.0415
     59  CG        18.4690   42.4680  -15.3940 C.3   246  GLU246      0.1163
     60  CD        18.8810   41.8800  -14.0470 C.2   246  GLU246      0.3649
     61  OE1       18.0410   41.8300  -13.1230 O.co2 246  GLU246     -0.2457
     62  OE2       20.0520   41.4660  -13.9040 O.co2 246  GLU246     -0.2457
     63  N         14.3890   45.1060   -8.4300 N.3   288  ARG288     -0.1245
     64  CA        13.2830   44.6300   -9.2660 C.3   288  ARG288      0.1563
     65  C         11.9290   45.3000   -8.9930 C.2   288  ARG288      0.2260
     66  O         11.3590   45.9640   -9.8750 O.2   288  ARG288     -0.2867
     67  CB        13.1400   43.1200   -9.0840 C.3   288  ARG288      0.0307
     68  CG        12.8460   42.3630  -10.3540 C.3   288  ARG288      0.0489
     69  CD        12.2420   41.0080  -10.0450 C.3   288  ARG288      0.2205
     70  NE        13.0120   40.2770   -9.0440 N.pl3 288  ARG288     -0.0865
     71  CZ        13.9930   39.4160   -9.3250 C.cat 288  ARG288      0.5346
     72  NH1       14.3360   39.1620  -10.5890 N.pl3 288  ARG288      0.1354
     73  NH2       14.6390   38.8030   -8.3370 N.pl3 288  ARG288      0.1354
     74  N          5.7820   36.4610  -13.7270 N.3   356  HIS356     -0.1241
     75  CA         6.9680   35.6950  -14.0800 C.3   356  HIS356      0.1621
     76  C          7.1650   34.4210  -13.2780 C.2   356  HIS356      0.2264
     77  O          7.0490   33.3340  -13.8240 O.2   356  HIS356     -0.2867
     78  CB         8.2030   36.5830  -13.9810 C.3   356  HIS356      0.0745
     79  CG         9.4360   35.9560  -14.5260 C.ar  356  HIS356      0.0817
     80  ND1        9.5150   35.4820  -15.8160 N.ar  356  HIS356     -0.2268
     81  CD2       10.6480   35.7390  -13.9680 C.ar  356  HIS356      0.1154
     82  CE1       10.7230   34.9950  -16.0290 C.ar  356  HIS356      0.1986
     83  NE2       11.4290   35.1330  -14.9210 N.ar  356  HIS356     -0.2212
     84  N         12.6540   35.8280   -4.9530 N.3   391  ARG391     -0.1245
     85  CA        13.7560   35.0380   -5.4760 C.3   391  ARG391      0.1563
     86  C         14.8180   35.9330   -6.1030 C.2   391  ARG391      0.2260
     87  O         14.4930   36.8880   -6.8070 O.2   391  ARG391     -0.2867
     88  CB        13.2490   34.0290   -6.5010 C.3   391  ARG391      0.0307
     89  CG        14.3490   33.1830   -7.1470 C.3   391  ARG391      0.0489
     90  CD        13.8770   32.5700   -8.4450 C.3   391  ARG391      0.2205
     91  NE        13.4900   33.6050   -9.3990 N.pl3 391  ARG391     -0.0865
     92  CZ        14.0750   33.8160  -10.5710 C.cat 391  ARG391      0.5346
     93  NH1       15.0820   33.0520  -10.9720 N.pl3 391  ARG391      0.1354
     94  NH2       13.6370   34.7970  -11.3470 N.pl3 391  ARG391      0.1354
     95  N         17.5380   36.6920   -8.8480 N.3   393  GLY393     -0.1210
     96  CA        17.5600   36.3330  -10.2620 C.3   393  GLY393      0.1956
     97  C         18.6740   35.3490  -10.5030 C.2   393  GLY393      0.2612
     98  O         19.7990   35.5970  -10.0780 O.2   393  GLY393     -0.2717
     99  N         18.3650   34.2250  -11.1510 N.am  394  SER394     -0.1952
    100  CA        19.3660   33.1870  -11.4890 C.3   394  SER394      0.1924
    101  C         19.5840   32.1240  -10.4150 C.2   394  SER394      0.2314
    102  O         20.2810   31.1290  -10.6520 O.2   394  SER394     -0.2863
    103  CB        20.7080   33.7860  -11.9400 C.3   394  SER394      0.2116
    104  OG        21.4700   34.2730  -10.8520 O.3   394  SER394     -0.2180
    105  N         17.1800   28.5570  -11.6860 N.3   397  LEU397     -0.1245
    106  CA        17.8320   27.5130  -12.4550 C.3   397  LEU397      0.1561
    107  C         18.8560   26.7540  -11.5970 C.2   397  LEU397      0.2260
    108  O         18.8990   25.5220  -11.6100 O.2   397  LEU397     -0.2867
    109  CB        18.4880   28.0900  -13.6970 C.3   397  LEU397      0.0270
    110  CG        17.5870   28.5000  -14.8560 C.3   397  LEU397      0.0019
    111  CD1       18.4090   29.2860  -15.8680 C.3   397  LEU397      0.0001
    112  CD2       16.9390   27.2900  -15.5170 C.3   397  LEU397      0.0001
@<TRIPOS>BOND
     1     8     7   ar
     2    42    41    2
     3     7     9   ar
     4     7     6    1
     5    41    40    1
     6    39    40    1
     7    53    51    1
     8     5     6    1
     9     5     2    1
    10    40    43    1
    11    47    48    1
    12    51    48    1
    13    51    52    1
    14     2     1    1
    15     2     3    1
    16    43    44    1
    17    50    49    2
    18    48    49    1
    19     4     3    2
    20     3    10   am
    21    49    54   am
    22    44    46    1
    23    44    45    1
    24    10    11    1
    25    54    55    1
    26    56    57    2
    27    56    55    1
    28    13    12    2
    29    11    12    1
    30    55    58    1
    31    12    14   am
    32    38    36   ar
    33    38    37   ar
    34    28    26   ar
    35    28    27   ar
    36    36    34   ar
    37    14    15    1
    38    26    24   ar
    39    37    35   ar
    40    15    16    1
    41    58    59    1
    42    27    25   ar
    43    34    35   ar
    44    34    33    1
    45    82    80   ar
    46    82    83   ar
    47   111   110    1
    48    80    79   ar
    49    32    31    2
    50   112   110    1
    51    33    30    1
    52    59    60    1
    53    24    23   ar
    54    31    30    1
    55    83    81   ar
    56    16    17    2
    57   110   109    1
    58    25    23   ar
    59    79    78    1
    60    79    81   ar
    61    30    29    1
    62    23    22    1
    63    75    78    1
    64    75    74    1
    65    75    76    1
    66    60    62   ar
    67    60    61   ar
    68    77    76    2
    69   109   106    1
    70    22    19    1
    71   106   105    1
    72   106   107    1
    73    19    18    1
    74    19    20    1
    75   103   100    1
    76   103   104    1
    77   108   107    2
    78   100    99    1
    79   100   101    1
    80    94    92    1
    81    99    97   am
    82    93    92    1
    83    20    21    2
    84   102   101    2
    85    72    71    1
    86    92    91    2
    87    97    96    1
    88    97    98    2
    89    68    69    1
    90    68    67    1
    91    96    95    1
    92    69    70    1
    93    66    65    2
    94    91    90    1
    95    71    70    2
    96    71    73    1
    97    64    67    1
    98    64    65    1
    99    64    63    1
   100    90    89    1
   101    89    88    1
   102    87    86    2
   103    88    85    1
   104    86    85    1
   105    85    84    1
