@<TRIPOS>MOLECULE
tmp/3p4uD00.pdb
 117 118 0 0 0
SMALL
GASTEIGER

@<TRIPOS>ATOM
      1  N         -0.3320   10.9850   40.2380 N.3    20  TYR20      -0.1227
      2  CA        -0.8000   10.8780   41.6120 C.3    20  TYR20       0.1736
      3  C         -0.6150    9.4500   42.1410 C.2    20  TYR20       0.2596
      4  O         -0.7560    8.4880   41.3970 O.2    20  TYR20      -0.2718
      5  CB        -2.2970   11.1970   41.7120 C.3    20  TYR20       0.0548
      6  CG        -2.7050   12.6370   41.5010 C.ar   20  TYR20      -0.0200
      7  CD1       -1.9470   13.6990   42.0030 C.ar   20  TYR20      -0.0009
      8  CD2       -3.9000   12.9380   40.8500 C.ar   20  TYR20      -0.0009
      9  CE1       -2.3590   15.0270   41.8180 C.ar   20  TYR20       0.0417
     10  CE2       -4.3120   14.2540   40.6680 C.ar   20  TYR20       0.0417
     11  CZ        -3.5380   15.2890   41.1500 C.ar   20  TYR20       0.1957
     12  OH        -3.9670   16.5880   40.9640 O.3    20  TYR20      -0.2866
     13  N         -0.3150    9.3390   43.4320 N.am   21  SER21      -0.1938
     14  CA        -0.2920    8.0610   44.1380 C.3    21  SER21       0.2055
     15  C         -1.4100    8.1010   45.1830 C.2    21  SER21       0.2643
     16  O         -1.7770    9.1780   45.6470 O.2    21  SER21      -0.2714
     17  CB         1.0690    7.8590   44.8000 C.3    21  SER21       0.2130
     18  OG         1.1870    6.5650   45.3530 O.3    21  SER21      -0.2179
     19  N         -1.9460    6.9360   45.5460 N.am   22  HIS22      -0.1959
     20  CA        -3.1410    6.8590   46.4020 C.3    22  HIS22       0.1787
     21  C         -2.8570    6.3180   47.8010 C.2    22  HIS22       0.2620
     22  O         -2.0480    5.4040   47.9820 O.2    22  HIS22      -0.2715
     23  CB        -4.2050    5.9850   45.7410 C.3    22  HIS22       0.0785
     24  CG        -4.6520    6.4910   44.4060 C.ar   22  HIS22       0.0821
     25  ND1       -3.9970    6.1780   43.2340 N.ar   22  HIS22      -0.2267
     26  CD2       -5.6760    7.3050   44.0600 C.ar   22  HIS22       0.1154
     27  CE1       -4.6050    6.7700   42.2220 C.ar   22  HIS22       0.1986
     28  NE2       -5.6300    7.4550   42.6950 N.ar   22  HIS22      -0.2212
     29  N         -3.5640    6.8750   48.7800 N.am   23  ARG23      -0.1963
     30  CA        -3.4040    6.5140   50.1810 C.3    23  ARG23       0.1729
     31  C         -4.7780    6.3900   50.8180 C.2    23  ARG23       0.2616
     32  O         -5.5960    7.3110   50.7110 O.2    23  ARG23      -0.2715
     33  CB        -2.5760    7.5780   50.9040 C.3    23  ARG23       0.0348
     34  CG        -2.4800    7.4200   52.4270 C.3    23  ARG23       0.0492
     35  CD        -1.5100    8.4470   53.0380 C.3    23  ARG23       0.2205
     36  NE        -1.5960    9.7050   52.2890 N.pl3  23  ARG23      -0.0865
     37  CZ        -2.6030   10.5730   52.3720 C.cat  23  ARG23       0.5346
     38  NH1       -3.6220   10.3760   53.2070 N.pl3  23  ARG23       0.1354
     39  NH2       -2.5910   11.6560   51.5960 N.pl3  23  ARG23       0.1354
     40  N         -5.0340    5.2500   51.4620 N.am   24  GLU24      -0.1963
     41  CA        -6.2460    5.0710   52.2590 C.3    24  GLU24       0.1733
     42  C         -5.9950    5.5930   53.6690 C.2    24  GLU24       0.2617
     43  O         -4.9260    5.3800   54.2410 O.2    24  GLU24      -0.2715
     44  CB        -6.6660    3.6000   52.3000 C.3    24  GLU24       0.0429
     45  CG        -7.0610    3.0300   50.9380 C.3    24  GLU24       0.1163
     46  CD        -7.6130    1.6120   51.0160 C.2    24  GLU24       0.3649
     47  OE1       -6.9700    0.7510   51.6500 O.co2  24  GLU24      -0.2457
     48  OE2       -8.6860    1.3520   50.4210 O.co2  24  GLU24      -0.2457
     49  N         -6.9910    6.2630   54.2360 N.am   25  THR25      -0.1951
     50  CA        -6.8080    6.9810   55.4930 C.3    25  THR25       0.1897
     51  C         -6.6060    6.0780   56.7120 C.2    25  THR25       0.2313
     52  O         -5.9660    6.4860   57.6720 O.2    25  THR25      -0.2863
     53  CB        -7.9770    7.9480   55.7530 C.3    25  THR25       0.1794
     54  OG1       -9.2040    7.2220   55.7310 O.3    25  THR25      -0.2208
     55  CG2       -8.0150    9.0100   54.6800 C.3    25  THR25       0.0378
     56  N         -1.1610    3.4760   52.2880 N.3    29  SER29      -0.1202
     57  CA        -1.0970    3.6410   50.8380 C.3    29  SER29       0.2020
     58  C         -1.3320    2.3190   50.1110 C.2    29  SER29       0.2618
     59  O         -1.0460    1.2560   50.6480 O.2    29  SER29      -0.2717
     60  CB         0.2310    4.2830   50.4180 C.3    29  SER29       0.2103
     61  OG         1.3440    3.4720   50.7560 O.3    29  SER29      -0.2182
     62  N         -1.8850    2.3990   48.9010 N.am   30  TRP30      -0.1975
     63  CA        -2.0690    1.2220   48.0490 C.3    30  TRP30       0.1640
     64  C         -0.7600    0.4540   47.9210 C.2    30  TRP30       0.2290
     65  O         -0.7150   -0.7570   48.1190 O.2    30  TRP30      -0.2864
     66  CB        -2.5180    1.6410   46.6470 C.3    30  TRP30       0.0576
     67  CG        -3.9430    2.0730   46.5090 C.ar   30  TRP30       0.0006
     68  CD1       -4.8680    2.2300   47.5040 C.ar   30  TRP30       0.0946
     69  CD2       -4.5980    2.4450   45.2900 C.ar   30  TRP30       0.0152
     70  NE1       -6.0620    2.6710   46.9770 N.ar   30  TRP30      -0.2442
     71  CE2       -5.9240    2.8080   45.6200 C.ar   30  TRP30       0.0810
     72  CE3       -4.1910    2.5110   43.9520 C.ar   30  TRP30       0.0012
     73  CZ2       -6.8470    3.2150   44.6600 C.ar   30  TRP30       0.0191
     74  CZ3       -5.1080    2.9190   42.9960 C.ar   30  TRP30       0.0001
     75  CH2       -6.4250    3.2620   43.3560 C.ar   30  TRP30       0.0015
     76  N         -8.4670    0.3550   42.2230 N.3    63  ARG63      -0.1231
     77  CA        -9.0960    1.5180   41.6070 C.3    63  ARG63       0.1694
     78  C         -9.7120    2.4050   42.6830 C.2    63  ARG63       0.2592
     79  O        -10.0070    1.9430   43.7850 O.2    63  ARG63      -0.2718
     80  CB       -10.1650    1.0840   40.5950 C.3    63  ARG63       0.0321
     81  CG       -11.2610    0.2030   41.1880 C.3    63  ARG63       0.0489
     82  CD       -12.2130   -0.3160   40.1260 C.3    63  ARG63       0.2205
     83  NE       -13.0560    0.7410   39.5730 N.pl3  63  ARG63      -0.0865
     84  CZ       -14.1350    1.2490   40.1660 C.cat  63  ARG63       0.5346
     85  NH1      -14.8310    2.2040   39.5600 N.pl3  63  ARG63       0.1354
     86  NH2      -14.5370    0.8120   41.3590 N.pl3  63  ARG63       0.1354
     87  N         -9.8970    3.6820   42.3710 N.am   64  VAL64      -0.1966
     88  CA       -10.6230    4.5680   43.2680 C.3    64  VAL64       0.1727
     89  C        -12.1110    4.1820   43.2330 C.2    64  VAL64       0.2616
     90  O        -12.8300    4.5100   42.2900 O.2    64  VAL64      -0.2715
     91  CB       -10.4270    6.0550   42.9060 C.3    64  VAL64       0.0290
     92  CG1      -11.2300    6.9360   43.8470 C.3    64  VAL64       0.0023
     93  CG2       -8.9310    6.4390   42.9560 C.3    64  VAL64       0.0023
     94  N        -12.5510    3.4650   44.2640 N.am   65  ASP65      -0.1957
     95  CA       -13.9030    2.8970   44.3030 C.3    65  ASP65       0.1840
     96  C        -14.9630    3.9320   44.6660 C.2    65  ASP65       0.2622
     97  O        -16.0750    3.8940   44.1380 O.2    65  ASP65      -0.2715
     98  CB       -13.9530    1.7270   45.2840 C.3    65  ASP65       0.1450
     99  CG       -13.0770    0.5720   44.8450 C.2    65  ASP65       0.3671
    100  OD1      -13.2920    0.0430   43.7290 O.co2  65  ASP65      -0.2456
    101  OD2      -12.1750    0.1910   45.6150 O.co2  65  ASP65      -0.2456
    102  N        -14.6160    4.8340   45.5820 N.am   66  PHE66      -0.1974
    103  CA       -15.4690    5.9670   45.9520 C.3    66  PHE66       0.1639
    104  C        -14.6370    7.2380   46.0670 C.2    66  PHE66       0.2290
    105  O        -13.4770    7.1930   46.4920 O.2    66  PHE66      -0.2864
    106  CB       -16.1670    5.7190   47.2900 C.3    66  PHE66       0.0560
    107  CG       -17.0410    4.5050   47.3040 C.ar   66  PHE66      -0.0200
    108  CD1      -16.5750    3.3050   47.8150 C.ar   66  PHE66      -0.0042
    109  CD2      -18.3350    4.5610   46.8050 C.ar   66  PHE66      -0.0042
    110  CE1      -17.3840    2.1810   47.8320 C.ar   66  PHE66      -0.0003
    111  CE2      -19.1440    3.4430   46.8200 C.ar   66  PHE66      -0.0003
    112  CZ       -18.6670    2.2520   47.3350 C.ar   66  PHE66      -0.0000
    113  N        -12.9140   11.3740   39.5070 N.3    71  ALA71      -0.1245
    114  CA       -11.8240   10.5590   40.0500 C.3    71  ALA71       0.1562
    115  C        -12.1980    9.0850   40.2260 C.2    71  ALA71       0.2260
    116  O        -11.3130    8.2420   40.4170 O.2    71  ALA71      -0.2867
    117  CB       -11.3690   11.1210   41.3780 C.3    71  ALA71       0.0290
@<TRIPOS>BOND
     1   113   114    1
     2    85    84    1
     3    83    82    1
     4    83    84    2
     5   114   115    1
     6   114   117    1
     7    82    81    1
     8    84    86    1
     9   115   116    2
    10     1     2    1
    11    80    81    1
    12    80    77    1
    13    10     8   ar
    14    10    11   ar
    15     8     6   ar
    16    12    11    1
    17    11     9   ar
    18     4     3    2
    19     6     5    1
    20     6     7   ar
    21    77    76    1
    22    77    78    1
    23     2     5    1
    24     2     3    1
    25     9     7   ar
    26     3    13   am
    27    27    28   ar
    28    27    25   ar
    29    90    89    2
    30    87    78   am
    31    87    88    1
    32    78    79    2
    33    28    26   ar
    34    91    93    1
    35    91    88    1
    36    91    92    1
    37    74    75   ar
    38    74    72   ar
    39    89    88    1
    40    89    94   am
    41    25    24   ar
    42    75    73   ar
    43    13    14    1
    44   100    99   ar
    45    72    69   ar
    46    26    24   ar
    47    97    96    2
    48    14    17    1
    49    14    15    1
    50    94    95    1
    51    95    96    1
    52    95    98    1
    53    24    23    1
    54    73    71   ar
    55    96   102   am
    56    17    18    1
    57    99    98    1
    58    99   101   ar
    59    15    19   am
    60    15    16    2
    61    69    71   ar
    62    69    67   ar
    63    19    20    1
    64   102   103    1
    65    71    70   ar
    66    23    20    1
    67   103   104    1
    68   103   106    1
    69   104   105    2
    70    20    21    1
    71    67    66    1
    72    67    68   ar
    73    66    63    1
    74   109   111   ar
    75   109   107   ar
    76   111   112   ar
    77    70    68   ar
    78   106   107    1
    79   107   108   ar
    80   112   110   ar
    81    21    22    2
    82    21    29   am
    83   108   110   ar
    84    64    63    1
    85    64    65    2
    86    63    62    1
    87    29    30    1
    88    62    58   am
    89    58    59    2
    90    58    57    1
    91    30    31    1
    92    30    33    1
    93    60    61    1
    94    60    57    1
    95    48    46   ar
    96    32    31    2
    97    31    40   am
    98    57    56    1
    99    33    34    1
   100    45    46    1
   101    45    44    1
   102    46    47   ar
   103    40    41    1
   104    39    37    1
   105    41    44    1
   106    41    42    1
   107    36    37    2
   108    36    35    1
   109    37    38    1
   110    34    35    1
   111    42    49   am
   112    42    43    2
   113    49    50    1
   114    55    53    1
   115    50    53    1
   116    50    51    1
   117    54    53    1
   118    51    52    2
