@<TRIPOS>MOLECULE
tmp/3p4uA00.pdb
 88 87 0 0 0
SMALL
GASTEIGER

@<TRIPOS>ATOM
      1  N         28.9400   15.4500   17.5510 N.3    32  PRO32      -0.2102
      2  CA        29.8330   14.6500   16.7140 C.3    32  PRO32       0.1504
      3  C         29.1290   13.4320   16.1040 C.2    32  PRO32       0.2576
      4  O         28.0970   12.9800   16.6220 O.2    32  PRO32      -0.2718
      5  CB        30.9500   14.2260   17.6810 C.3    32  PRO32       0.0282
      6  CG        30.3340   14.2740   19.0360 C.3    32  PRO32       0.0208
      7  CD        29.2790   15.3620   18.9830 C.3    32  PRO32       0.0893
      8  N         29.6830   12.9270   15.0040 N.am   33  GLU33      -0.1966
      9  CA        29.2040   11.6930   14.3830 C.3    33  GLU33       0.1733
     10  C         29.2590   10.5300   15.3740 C.2    33  GLU33       0.2616
     11  O         30.1190   10.4940   16.2530 O.2    33  GLU33      -0.2715
     12  CB        30.0620   11.3310   13.1680 C.3    33  GLU33       0.0429
     13  CG        29.9050   12.2390   11.9590 C.3    33  GLU33       0.1163
     14  CD        30.4830   11.6110   10.6880 C.2    33  GLU33       0.3649
     15  OE1       31.3770   10.7320   10.8030 O.co2  33  GLU33      -0.2457
     16  OE2       30.0400   12.0000    9.5830 O.co2  33  GLU33      -0.2457
     17  N         28.3530    9.5710   15.2260 N.am   34  ARG34      -0.1963
     18  CA        28.3230    8.4250   16.1300 C.3    34  ARG34       0.1729
     19  C         28.7870    7.1580   15.4110 C.2    34  ARG34       0.2616
     20  O         27.9970    6.2560   15.1550 O.2    34  ARG34      -0.2715
     21  CB        26.9220    8.2480   16.7210 C.3    34  ARG34       0.0348
     22  CG        26.4330    9.4570   17.5210 C.3    34  ARG34       0.0492
     23  CD        25.0600    9.2230   18.1420 C.3    34  ARG34       0.2205
     24  NE        25.0610    8.0640   19.0340 N.pl3  34  ARG34      -0.0865
     25  CZ        24.5590    6.8630   18.7440 C.cat  34  ARG34       0.5346
     26  NH1       23.9630    6.6200   17.5810 N.pl3  34  ARG34       0.1354
     27  NH2       24.6460    5.8890   19.6420 N.pl3  34  ARG34       0.1354
     28  N         30.0760    7.1080   15.0780 N.am   35  ARG35      -0.1977
     29  CA        30.6610    5.9320   14.4410 C.3    35  ARG35       0.1597
     30  C         30.4270    4.7060   15.3070 C.2    35  ARG35       0.2287
     31  O         30.5330    4.7700   16.5290 O.2    35  ARG35      -0.2864
     32  CB        32.1680    6.1150   14.2090 C.3    35  ARG35       0.0334
     33  CG        32.5100    7.0130   13.0270 C.3    35  ARG35       0.0492
     34  CD        34.0170    7.2240   12.9070 C.3    35  ARG35       0.2205
     35  NE        34.5710    7.8290   14.1220 N.pl3  35  ARG35      -0.0865
     36  CZ        35.8720    7.9930   14.3700 C.cat  35  ARG35       0.5346
     37  NH1       36.2600    8.5490   15.5140 N.pl3  35  ARG35       0.1354
     38  NH2       36.7890    7.6120   13.4840 N.pl3  35  ARG35       0.1354
     39  N         21.2370    7.2390   19.5940 N.3    88  SER88      -0.1202
     40  CA        21.5010    8.6460   19.3010 C.3    88  SER88       0.2020
     41  C         22.2800    9.3380   20.4190 C.2    88  SER88       0.2619
     42  O         22.7020    8.7070   21.3900 O.2    88  SER88      -0.2717
     43  CB        20.1740    9.3850   19.0850 C.3    88  SER88       0.2103
     44  OG        20.3950   10.6560   18.5210 O.3    88  SER88      -0.2182
     45  N         22.4830   10.6400   20.2530 N.am   89  HIS89      -0.1961
     46  CA        22.9160   11.4900   21.3470 C.3    89  HIS89       0.1787
     47  C         21.7290   11.8320   22.2310 C.2    89  HIS89       0.2620
     48  O         20.5680   11.7040   21.8200 O.2    89  HIS89      -0.2715
     49  CB        23.5630   12.7760   20.8250 C.3    89  HIS89       0.0785
     50  CG        24.9630   12.5840   20.3390 C.ar   89  HIS89       0.0821
     51  ND1       25.9640   12.0810   21.1420 N.ar   89  HIS89      -0.2267
     52  CD2       25.5310   12.8210   19.1330 C.ar   89  HIS89       0.1154
     53  CE1       27.0890   12.0200   20.4510 C.ar   89  HIS89       0.1986
     54  NE2       26.8530   12.4650   19.2290 N.ar   89  HIS89      -0.2212
     55  N         22.0330   12.2600   23.4520 N.am   90  GLY90      -0.1954
     56  CA        21.0150   12.7080   24.3900 C.3    90  GLY90       0.1869
     57  C         21.6070   13.4770   25.5570 C.2    90  GLY90       0.2309
     58  O         22.8210   13.5150   25.7410 O.2    90  GLY90      -0.2863
     59  N         19.9380    3.8830   23.7300 N.3   129  GLN129     -0.1231
     60  CA        21.3790    4.0770   23.7610 C.3   129  GLN129      0.1698
     61  C         21.6320    5.5540   23.4650 C.2   129  GLN129      0.2592
     62  O         21.4200    6.0170   22.3420 O.2   129  GLN129     -0.2718
     63  CB        22.0920    3.1710   22.7490 C.3   129  GLN129      0.0381
     64  CG        23.5840    3.4980   22.5290 C.3   129  GLN129      0.0905
     65  CD        24.4010    3.4840   23.8160 C.2   129  GLN129      0.2608
     66  OE1       24.3120    2.5480   24.5930 O.2   129  GLN129     -0.2717
     67  NE2       25.2230    4.5140   24.0270 N.am  129  GLN129     -0.0878
     68  N         22.0510    6.2860   24.4980 N.am  130  ALA130     -0.1966
     69  CA        22.2700    7.7260   24.4270 C.3   130  ALA130      0.1728
     70  C         22.8470    8.2240   25.7440 C.2   130  ALA130      0.2616
     71  O         22.5740    7.6370   26.7880 O.2   130  ALA130     -0.2715
     72  CB        20.9620    8.4600   24.1440 C.3   130  ALA130      0.0334
     73  N         23.6230    9.3050   25.7020 N.am  131  CYS131     -0.1968
     74  CA        24.0480    9.9600   26.9460 C.3   131  CYS131      0.1712
     75  C         22.8370   10.5860   27.6240 C.2   131  CYS131      0.2296
     76  O         21.8270   10.8920   26.9780 O.2   131  CYS131     -0.2864
     77  CB        25.1120   11.0240   26.7020 C.3   131  CYS131      0.0983
     78  SG        26.6520   10.3650   26.0350 S.3   131  CYS131     -0.0798
     79  N         30.6070   11.7150   34.2870 N.3   136  HIS136     -0.1241
     80  CA        31.3290   10.5500   33.8210 C.3   136  HIS136      0.1621
     81  C         31.5440    9.6760   35.0430 C.2   136  HIS136      0.2264
     82  O         32.2890   10.0470   35.9480 O.2   136  HIS136     -0.2867
     83  CB        32.6580   10.9560   33.1790 C.3   136  HIS136      0.0745
     84  CG        33.1190   10.0230   32.1040 C.ar  136  HIS136      0.0817
     85  ND1       34.1310   10.3440   31.2270 N.ar  136  HIS136     -0.2268
     86  CD2       32.6820    8.7950   31.7390 C.ar  136  HIS136      0.1154
     87  CE1       34.3110    9.3450   30.3820 C.ar  136  HIS136      0.1986
     88  NE2       33.4390    8.3960   30.6660 N.ar  136  HIS136     -0.2212
@<TRIPOS>BOND
     1    16    14   ar
     2    14    15   ar
     3    14    13    1
     4    13    12    1
     5    34    33    1
     6    34    35    1
     7    33    32    1
     8    12     9    1
     9    38    36    1
    10    35    36    2
    11    32    29    1
    12    36    37    1
    13     9     8    1
    14     9    10    1
    15    29    28    1
    16    29    30    1
    17     8     3   am
    18    28    19   am
    19    20    19    2
    20    17    10   am
    21    17    18    1
    22    30    31    2
    23    10    11    2
    24    19    18    1
    25     3     4    2
    26     3     2    1
    27    18    21    1
    28     2     1    1
    29     2     5    1
    30    21    22    1
    31    22    23    1
    32     1     7    1
    33    26    25    1
    34     5     6    1
    35    23    24    1
    36    44    43    1
    37    25    24    2
    38    25    27    1
    39     7     6    1
    40    43    40    1
    41    52    54   ar
    42    52    50   ar
    43    54    53   ar
    44    40    39    1
    45    40    41    1
    46    45    41   am
    47    45    46    1
    48    50    49    1
    49    50    51   ar
    50    41    42    2
    51    53    51   ar
    52    49    46    1
    53    46    47    1
    54    48    47    2
    55    47    55   am
    56    62    61    2
    57    64    63    1
    58    64    65    1
    59    63    60    1
    60    55    56    1
    61    61    60    1
    62    61    68   am
    63    59    60    1
    64    65    67   am
    65    65    66    2
    66    72    69    1
    67    56    57    1
    68    69    68    1
    69    69    70    1
    70    57    58    2
    71    73    70   am
    72    73    74    1
    73    70    71    2
    74    78    77    1
    75    77    74    1
    76    74    75    1
    77    76    75    2
    78    87    88   ar
    79    87    85   ar
    80    88    86   ar
    81    85    84   ar
    82    86    84   ar
    83    84    83    1
    84    83    80    1
    85    80    79    1
    86    80    81    1
    87    81    82    2
