@<TRIPOS>MOLECULE
tmp/3p4vA00.pdb
 133 129 0 0 0
SMALL
GASTEIGER

@<TRIPOS>ATOM
      1  N         17.8710    0.9820    3.6730 N.3    59  ASN59      -0.1240
      2  CA        19.0020    1.7950    4.1160 C.3    59  ASN59       0.1653
      3  C         20.2620    0.9660    4.4150 C.2    59  ASN59       0.2266
      4  O         21.2370    1.4780    4.9630 O.2    59  ASN59      -0.2867
      5  CB        18.6140    2.6660    5.3210 C.3    59  ASN59       0.1155
      6  CG        18.3240    1.8430    6.5730 C.2    59  ASN59       0.2627
      7  OD1       18.6960    0.6770    6.6620 O.2    59  ASN59      -0.2716
      8  ND2       17.6490    2.4510    7.5360 N.am   59  ASN59      -0.0877
      9  N         12.8500    1.0620    5.9080 N.3    64  ASN64      -0.1240
     10  CA        12.0190    2.0170    6.6390 C.3    64  ASN64       0.1653
     11  C         10.8210    2.4820    5.8070 C.2    64  ASN64       0.2266
     12  O         10.9810    2.9450    4.6770 O.2    64  ASN64      -0.2867
     13  CB        12.8190    3.2720    7.0430 C.3    64  ASN64       0.1155
     14  CG        13.8670    3.0050    8.1050 C.2    64  ASN64       0.2627
     15  OD1       14.5650    3.9270    8.5470 O.2    64  ASN64      -0.2716
     16  ND2       13.9900    1.7560    8.5190 N.am   64  ASN64      -0.0877
     17  N          8.7310    6.9920   11.3010 N.3    89  GLN89      -0.1245
     18  CA         9.0360    5.8120   10.4720 C.3    89  GLN89       0.1566
     19  C          8.7970    4.5100   11.2160 C.2    89  GLN89       0.2260
     20  O          8.7580    4.5140   12.4370 O.2    89  GLN89      -0.2867
     21  CB        10.4920    5.8570    9.9620 C.3    89  GLN89       0.0367
     22  CG        11.5700    5.9280   11.0580 C.3    89  GLN89       0.0905
     23  CD        12.2630    4.5900   11.3370 C.2    89  GLN89       0.2608
     24  OE1       11.6960    3.5080   11.1330 O.2    89  GLN89      -0.2717
     25  NE2       13.5010    4.6660   11.8140 N.am   89  GLN89      -0.0878
     26  N         10.0880    0.1310   10.9420 N.3    91  HIS91      -0.1241
     27  CA        10.9670   -0.8360   10.2950 C.3    91  HIS91       0.1621
     28  C         10.9420   -2.0960   11.1460 C.2    91  HIS91       0.2264
     29  O         10.3390   -2.1050   12.2180 O.2    91  HIS91      -0.2867
     30  CB        12.3960   -0.2900   10.2450 C.3    91  HIS91       0.0745
     31  CG        12.9540    0.0030   11.5990 C.ar   91  HIS91       0.0817
     32  ND1       12.8250    1.2300   12.2110 N.ar   91  HIS91      -0.2268
     33  CD2       13.5940   -0.7950   12.4880 C.ar   91  HIS91       0.1154
     34  CE1       13.3890    1.1870   13.4070 C.ar   91  HIS91       0.1986
     35  NE2       13.8620   -0.0330   13.5950 N.ar   91  HIS91      -0.2212
     36  N          9.2870   -1.9540   14.9220 N.3   116  HIS116     -0.1241
     37  CA         9.5170   -0.7270   15.6850 C.3   116  HIS116      0.1621
     38  C          8.8460    0.4580   15.0020 C.2   116  HIS116      0.2264
     39  O          9.2150    0.8380   13.8720 O.2   116  HIS116     -0.2867
     40  CB        11.0180   -0.4430   15.8330 C.3   116  HIS116      0.0745
     41  CG        11.7270   -1.4090   16.7330 C.ar  116  HIS116      0.0817
     42  ND1       13.0940   -1.5820   16.7130 N.ar  116  HIS116     -0.2268
     43  CD2       11.2590   -2.2340   17.6950 C.ar  116  HIS116      0.1154
     44  CE1       13.4340   -2.4940   17.6080 C.ar  116  HIS116      0.1986
     45  NE2       12.3390   -2.9010   18.2210 N.ar  116  HIS116     -0.2212
     46  N          8.5330    4.2510   15.2800 N.3   118  VAL118     -0.1245
     47  CA         9.3630    5.2680   15.9220 C.3   118  VAL118      0.1561
     48  C          8.6410    6.6140   15.9450 C.2   118  VAL118      0.2260
     49  O          8.2520    7.1080   14.9000 O.2   118  VAL118     -0.2867
     50  CB        10.7120    5.4210   15.1610 C.3   118  VAL118      0.0252
     51  CG1       11.6160    6.4580   15.8340 C.3   118  VAL118      0.0019
     52  CG2       11.4140    4.0640   15.0170 C.3   118  VAL118      0.0019
     53  N         12.9790   15.5160   14.7990 N.3   127  PHE127     -0.1241
     54  CA        13.5910   14.2530   15.1910 C.3   127  PHE127      0.1605
     55  C         15.0380   14.4380   15.6560 C.2   127  PHE127      0.2264
     56  O         15.4430   13.8920   16.6810 O.2   127  PHE127     -0.2867
     57  CB        13.5260   13.2530   14.0260 C.3   127  PHE127      0.0534
     58  CG        14.1330   11.9150   14.3400 C.ar  127  PHE127     -0.0203
     59  CD1       13.3990   10.9490   15.0030 C.ar  127  PHE127     -0.0042
     60  CD2       15.4430   11.6270   13.9810 C.ar  127  PHE127     -0.0042
     61  CE1       13.9550    9.7140   15.3050 C.ar  127  PHE127     -0.0003
     62  CE2       16.0060   10.4000   14.2740 C.ar  127  PHE127     -0.0003
     63  CZ        15.2640    9.4380   14.9360 C.ar  127  PHE127     -0.0000
     64  N          9.1650    4.5630   21.1880 N.3   139  VAL139     -0.1245
     65  CA         9.1400    3.4950   20.1890 C.3   139  VAL139      0.1561
     66  C          8.1960    2.4010   20.6500 C.2   139  VAL139      0.2260
     67  O          8.3380    1.8630   21.7570 O.2   139  VAL139     -0.2867
     68  CB        10.5550    2.8880   19.8990 C.3   139  VAL139      0.0252
     69  CG1       10.4750    1.8280   18.7730 C.3   139  VAL139      0.0019
     70  CG2       11.5340    3.9800   19.5150 C.3   139  VAL139      0.0019
     71  N         17.2830    3.0040   24.7010 N.3   193  SER193     -0.1202
     72  CA        18.0890    3.6680   23.6800 C.3   193  SER193      0.2020
     73  C         17.6640    3.2760   22.2830 C.2   193  SER193      0.2619
     74  O         16.8730    2.3560   22.1100 O.2   193  SER193     -0.2717
     75  CB        19.5610    3.2570   23.8330 C.3   193  SER193      0.2103
     76  OG        19.7410    1.8870   23.4690 O.3   193  SER193     -0.2182
     77  N         18.2210    3.9600   21.2850 N.am  194  LEU194     -0.1965
     78  CA        18.2000    3.4520   19.9120 C.3   194  LEU194      0.1728
     79  C         18.9000    2.0810   19.9070 C.2   194  LEU194      0.2617
     80  O         19.8610    1.8880   20.6530 O.2   194  LEU194     -0.2715
     81  CB        18.9590    4.4160   18.9880 C.3   194  LEU194      0.0311
     82  CG        18.5830    5.9090   19.0180 C.3   194  LEU194      0.0022
     83  CD1       19.4710    6.6900   18.0540 C.3   194  LEU194      0.0001
     84  CD2       17.1020    6.1400   18.6820 C.3   194  LEU194      0.0001
     85  N         18.4420    1.1360   19.0820 N.am  195  THR195     -0.1937
     86  CA        19.1160   -0.1760   19.0020 C.3   195  THR195      0.2028
     87  C         20.1360   -0.2790   17.8560 C.2   195  THR195      0.2643
     88  O         20.7580   -1.3220   17.6570 O.2   195  THR195     -0.2714
     89  CB        18.1210   -1.3610   18.9270 C.3   195  THR195      0.1808
     90  OG1       17.3510   -1.2820   17.7170 O.3   195  THR195     -0.2208
     91  CG2       17.1900   -1.3830   20.1620 C.3   195  THR195      0.0379
     92  N         20.2900    0.8070   17.1040 N.am  196  THR196     -0.1937
     93  CA        21.3450    0.9300   16.1060 C.3   196  THR196      0.2013
     94  C         22.1890    2.1520   16.4350 C.2   196  THR196      0.2484
     95  O         21.7250    3.0700   17.1130 O.2   196  THR196     -0.2729
     96  CB        20.7680    1.1110   14.6880 C.3   196  THR196      0.1807
     97  OG1       19.7620    2.1350   14.7180 O.3   196  THR196     -0.2208
     98  CG2       20.1530   -0.1940   14.1910 C.3   196  THR196      0.0379
     99  N         23.4480    2.1570   15.9890 N.am  197  PRO197     -0.2715
    100  CA        24.2450    3.3760   16.1570 C.3   197  PRO197      0.1521
    101  C         23.4410    4.5570   15.6300 C.2   197  PRO197      0.2440
    102  O         22.7520    4.4100   14.6090 O.2   197  PRO197     -0.2731
    103  CB        25.4650    3.1060   15.2770 C.3   197  PRO197      0.0310
    104  CG        25.6510    1.5960   15.3830 C.3   197  PRO197      0.0237
    105  CD        24.2280    1.0460   15.4110 C.3   197  PRO197      0.0939
    106  N         23.5420    5.7230   16.2820 N.am  198  PRO198     -0.2727
    107  CA        24.4980    6.0650   17.3480 C.3   198  PRO198      0.1402
    108  C         24.0650    5.6690   18.7720 C.2   198  PRO198      0.2269
    109  O         24.6460    6.1640   19.7400 O.2   198  PRO198     -0.2865
    110  CB        24.6120    7.5830   17.2260 C.3   198  PRO198      0.0296
    111  CG        23.2740    8.0110   16.7010 C.3   198  PRO198      0.0237
    112  CD        22.8080    6.9060   15.7900 C.3   198  PRO198      0.0939
    113  N         15.1300    7.0020   24.4250 N.3   203  VAL203     -0.1245
    114  CA        13.9060    6.2680   24.0970 C.3   203  VAL203      0.1561
    115  C         13.1000    5.7860   25.2860 C.2   203  VAL203      0.2260
    116  O         13.6200    5.0970   26.1640 O.2   203  VAL203     -0.2867
    117  CB        14.1750    5.0360   23.1980 C.3   203  VAL203      0.0252
    118  CG1       12.8400    4.3490   22.8270 C.3   203  VAL203      0.0019
    119  CG2       14.9460    5.4410   21.9430 C.3   203  VAL203      0.0019
    120  N         10.6500    3.0960   25.7310 N.3   205  TRP205     -0.1241
    121  CA        10.1860    1.8730   25.0980 C.3   205  TRP205      0.1605
    122  C          8.8140    1.4520   25.5850 C.2   205  TRP205      0.2264
    123  O          8.5290    1.4620   26.7900 O.2   205  TRP205     -0.2867
    124  CB        11.1950    0.7290   25.3210 C.3   205  TRP205      0.0550
    125  CG        12.3190    0.8060   24.3470 C.ar  205  TRP205      0.0003
    126  CD1       13.5530    1.3580   24.5520 C.ar  205  TRP205      0.0946
    127  CD2       12.2980    0.3460   22.9920 C.ar  205  TRP205      0.0152
    128  NE1       14.3040    1.2630   23.4000 N.ar  205  TRP205     -0.2442
    129  CE2       13.5570    0.6390   22.4330 C.ar  205  TRP205      0.0810
    130  CE3       11.3360   -0.2910   22.1980 C.ar  205  TRP205      0.0012
    131  CZ2       13.8740    0.3270   21.1150 C.ar  205  TRP205      0.0191
    132  CZ3       11.6620   -0.6180   20.8860 C.ar  205  TRP205      0.0001
    133  CH2       12.9180   -0.3100   20.3650 C.ar  205  TRP205      0.0015
@<TRIPOS>BOND
     1     1     2    1
     2     2     3    1
     3     2     5    1
     4     3     4    2
     5    12    11    2
     6     5     6    1
     7    11    10    1
     8     9    10    1
     9     6     7    2
    10     6     8   am
    11    10    13    1
    12    13    14    1
    13    14    16   am
    14    14    15    2
    15    21    18    1
    16    21    22    1
    17    30    27    1
    18    30    31    1
    19    27    26    1
    20    27    28    1
    21    18    19    1
    22    18    17    1
    23    22    23    1
    24    24    23    2
    25    28    29    2
    26    19    20    2
    27    23    25   am
    28    31    32   ar
    29    31    33   ar
    30    32    34   ar
    31    33    35   ar
    32    34    35   ar
    33    39    38    2
    34    60    62   ar
    35    60    58   ar
    36    57    58    1
    37    57    54    1
    38    98    96    1
    39    62    63   ar
    40    58    59   ar
    41   102   101    2
    42    96    97    1
    43    96    93    1
    44    53    54    1
    45    49    48    2
    46    36    37    1
    47    63    61   ar
    48    38    37    1
    49    59    61   ar
    50    52    50    1
    51    50    51    1
    52    50    47    1
    53    54    55    1
    54   103   104    1
    55   103   100    1
    56    46    47    1
    57   104   105    1
    58   105    99    1
    59   101   100    1
    60   101   106   am
    61    55    56    2
    62    37    40    1
    63   112   106    1
    64   112   111    1
    65    40    41    1
    66    47    48    1
    67    99   100    1
    68    99    94   am
    69    93    94    1
    70    93    92    1
    71   106   107    1
    72    94    95    2
    73   111   110    1
    74    42    41   ar
    75    42    44   ar
    76    41    43   ar
    77    92    87   am
    78   110   107    1
    79   107   108    1
    80    44    45   ar
    81    88    87    2
    82    43    45   ar
    83    90    89    1
    84    87    86    1
    85    83    82    1
    86    84    82    1
    87   108   109    2
    88    69    68    1
    89    89    86    1
    90    89    91    1
    91    81    82    1
    92    81    78    1
    93    86    85    1
    94    85    79   am
    95    70    68    1
    96    68    65    1
    97    79    78    1
    98    79    80    2
    99    78    77    1
   100    65    66    1
   101    65    64    1
   102   133   132   ar
   103   133   131   ar
   104    66    67    2
   105   132   130   ar
   106   131   129   ar
   107    77    73   am
   108   119   117    1
   109    74    73    2
   110   130   127   ar
   111    73    72    1
   112   129   127   ar
   113   129   128   ar
   114   118   117    1
   115   127   125   ar
   116   117   114    1
   117   128   126   ar
   118    76    75    1
   119    72    75    1
   120    72    71    1
   121   114   113    1
   122   114   115    1
   123   125   126   ar
   124   125   124    1
   125   121   124    1
   126   121   122    1
   127   121   120    1
   128   115   116    2
   129   122   123    2
