@<TRIPOS>MOLECULE
tmp/3p4wE01.pdb
 108 106 0 0 0
SMALL
GASTEIGER

@<TRIPOS>ATOM
      1  N         68.7830  -12.0560   26.8650 N.3   115  TYR115     -0.1228
      2  CA        67.5290  -12.1340   27.6030 C.3   115  TYR115      0.1721
      3  C         67.7300  -11.7990   29.0870 C.2   115  TYR115      0.2437
      4  O         68.7170  -12.2710   29.6750 O.2   115  TYR115     -0.2733
      5  CB        66.9400  -13.5340   27.4390 C.3   115  TYR115      0.0547
      6  CG        65.6400  -13.7850   28.1700 C.ar  115  TYR115     -0.0200
      7  CD1       65.6310  -14.2890   29.4670 C.ar  115  TYR115     -0.0009
      8  CD2       64.4160  -13.6360   27.5240 C.ar  115  TYR115     -0.0009
      9  CE1       64.4300  -14.5820   30.1250 C.ar  115  TYR115      0.0417
     10  CE2       63.2080  -13.9200   28.1740 C.ar  115  TYR115      0.0417
     11  CZ        63.2210  -14.4030   29.4760 C.ar  115  TYR115      0.1957
     12  OH        62.0420  -14.7230   30.1060 O.3   115  TYR115     -0.2866
     13  N         66.8160  -10.9970   29.7150 N.am  116  PRO116     -0.2718
     14  CA        65.6110  -10.3730   29.1520 C.3   116  PRO116      0.1535
     15  C         65.8280   -8.9680   28.5920 C.2   116  PRO116      0.2598
     16  O         64.8530   -8.2320   28.4260 O.2   116  PRO116     -0.2715
     17  CB        64.6500  -10.3980   30.3360 C.3   116  PRO116      0.0310
     18  CG        65.5400  -10.2360   31.5410 C.3   116  PRO116      0.0237
     19  CD        66.9340  -10.6710   31.1470 C.3   116  PRO116      0.0939
     20  N         67.0930   -8.6010   28.2800 N.am  117  PHE117     -0.1974
     21  CA        67.4580   -7.2730   27.7320 C.3   117  PHE117      0.1639
     22  C         67.7290   -7.3340   26.2090 C.2   117  PHE117      0.2290
     23  O         68.4550   -6.4810   25.6610 O.2   117  PHE117     -0.2864
     24  CB        68.6930   -6.6950   28.4840 C.3   117  PHE117      0.0560
     25  CG        68.4790   -6.6570   29.9740 C.ar  117  PHE117     -0.0200
     26  CD1       67.6750   -5.6760   30.5530 C.ar  117  PHE117     -0.0042
     27  CD2       69.0120   -7.6510   30.7930 C.ar  117  PHE117     -0.0042
     28  CE1       67.4070   -5.6910   31.9200 C.ar  117  PHE117     -0.0003
     29  CE2       68.7420   -7.6680   32.1630 C.ar  117  PHE117     -0.0003
     30  CZ        67.9410   -6.6890   32.7160 C.ar  117  PHE117     -0.0000
     31  N         60.8460   -7.9910   34.7080 N.3   193  TYR193     -0.1241
     32  CA        61.8160   -8.9860   35.1490 C.3   193  TYR193      0.1605
     33  C         62.5570   -8.5310   36.4020 C.2   193  TYR193      0.2264
     34  O         62.9410   -9.3590   37.2410 O.2   193  TYR193     -0.2867
     35  CB        62.7950   -9.3330   34.0170 C.3   193  TYR193      0.0534
     36  CG        62.1200  -10.0630   32.8770 C.ar  193  TYR193     -0.0201
     37  CD1       62.0710  -11.4560   32.8540 C.ar  193  TYR193     -0.0009
     38  CD2       61.4860   -9.3760   31.8540 C.ar  193  TYR193     -0.0009
     39  CE1       61.3960  -12.1390   31.8390 C.ar  193  TYR193      0.0417
     40  CE2       60.8120  -10.0460   30.8340 C.ar  193  TYR193      0.0417
     41  CZ        60.7800  -11.4310   30.8210 C.ar  193  TYR193      0.1957
     42  OH        60.1450  -12.1120   29.8040 O.3   193  TYR193     -0.2866
     43  N         61.7200  -11.2120   39.0910 N.3   197  ILE197     -0.1231
     44  CA        62.7470  -12.2520   39.0710 C.3   197  ILE197      0.1692
     45  C         64.1260  -11.8050   39.5480 C.2   197  ILE197      0.2591
     46  O         64.7040  -12.4770   40.4130 O.2   197  ILE197     -0.2718
     47  CB        62.7810  -13.0180   37.7110 C.3   197  ILE197      0.0266
     48  CG1       61.3970  -13.5650   37.3470 C.3   197  ILE197      0.0019
     49  CG2       63.7350  -14.1780   37.8100 C.3   197  ILE197      0.0020
     50  CD1       61.0670  -13.6130   35.8840 C.3   197  ILE197      0.0001
     51  N         64.6620  -10.7010   38.9750 N.am  198  ILE198     -0.1980
     52  CA        66.0040  -10.1940   39.3180 C.3   198  ILE198      0.1595
     53  C         66.1690   -9.8740   40.8090 C.2   198  ILE198      0.2287
     54  O         66.9190  -10.5690   41.4940 O.2   198  ILE198     -0.2864
     55  CB        66.4900   -9.0480   38.3900 C.3   198  ILE198      0.0276
     56  CG1       66.3450   -9.4460   36.9110 C.3   198  ILE198      0.0022
     57  CG2       67.9550   -8.6970   38.7310 C.3   198  ILE198      0.0022
     58  CD1       66.5260   -8.3580   35.8890 C.3   198  ILE198      0.0001
     59  N         65.5910  -12.7810   43.3670 N.3   201  MET201     -0.1245
     60  CA        66.7480  -13.6740   43.2620 C.3   201  MET201      0.1570
     61  C         67.9610  -13.1300   44.0200 C.2   201  MET201      0.2261
     62  O         68.6820  -13.9070   44.6560 O.2   201  MET201     -0.2867
     63  CB        67.1170  -13.8920   41.7980 C.3   201  MET201      0.0387
     64  CG        68.0750  -15.0320   41.5800 C.3   201  MET201      0.0595
     65  SD        68.3190  -15.3450   39.8400 S.3   201  MET201     -0.1393
     66  CE        66.6650  -15.6600   39.3410 C.3   201  MET201      0.0692
     67  N         62.2920  -19.6190   35.3240 N.3   238  VAL238     -0.1245
     68  CA        62.9240  -18.9360   34.2090 C.3   238  VAL238      0.1561
     69  C         63.1050  -19.8900   33.0120 C.2   238  VAL238      0.2260
     70  O         62.6880  -19.5470   31.9010 O.2   238  VAL238     -0.2867
     71  CB        64.2250  -18.2210   34.6440 C.3   238  VAL238      0.0252
     72  CG1       65.0920  -17.8500   33.4500 C.3   238  VAL238      0.0019
     73  CG2       63.9210  -16.9900   35.4770 C.3   238  VAL238      0.0019
     74  N         72.5940  -14.6610   28.8710 N.3   250  TYR250     -0.1227
     75  CA        73.0270  -13.7720   29.9360 C.3   250  TYR250      0.1736
     76  C         72.4040  -14.2020   31.2600 C.2   250  TYR250      0.2596
     77  O         73.1260  -14.4120   32.2320 O.2   250  TYR250     -0.2718
     78  CB        72.6920  -12.3190   29.5890 C.3   250  TYR250      0.0548
     79  CG        73.0160  -11.3420   30.6850 C.ar  250  TYR250     -0.0200
     80  CD1       72.0120  -10.5870   31.2880 C.ar  250  TYR250     -0.0009
     81  CD2       74.3210  -11.1780   31.1400 C.ar  250  TYR250     -0.0009
     82  CE1       72.3020   -9.6850   32.3050 C.ar  250  TYR250      0.0417
     83  CE2       74.6150  -10.3020   32.1740 C.ar  250  TYR250      0.0417
     84  CZ        73.6070   -9.5400   32.7470 C.ar  250  TYR250      0.1957
     85  OH        73.8780   -8.6790   33.7780 O.3   250  TYR250     -0.2866
     86  N         71.0700  -14.4130   31.2660 N.am  251  THR251     -0.1953
     87  CA        70.2950  -14.8630   32.4230 C.3   251  THR251      0.1897
     88  C         70.7860  -16.2120   32.8820 C.2   251  THR251      0.2313
     89  O         71.0230  -16.4020   34.0600 O.2   251  THR251     -0.2863
     90  CB        68.8420  -14.8910   32.0280 C.3   251  THR251      0.1794
     91  OG1       68.4020  -13.5380   31.9610 O.3   251  THR251     -0.2208
     92  CG2       67.9930  -15.6910   32.9840 C.3   251  THR251      0.0378
     93  N         74.1670  -15.9080   34.8030 N.3   254  ILE254     -0.1231
     94  CA        73.9170  -15.3710   36.1420 C.3   254  ILE254      0.1692
     95  C         73.3410  -16.4340   37.0430 C.2   254  ILE254      0.2591
     96  O         73.9420  -16.7100   38.0780 O.2   254  ILE254     -0.2718
     97  CB        72.9960  -14.1340   36.0910 C.3   254  ILE254      0.0266
     98  CG1       73.6680  -12.9920   35.3500 C.3   254  ILE254      0.0019
     99  CG2       72.5770  -13.7020   37.4950 C.3   254  ILE254      0.0020
    100  CD1       72.7320  -11.8010   35.1140 C.3   254  ILE254      0.0001
    101  N         72.2130  -17.0560   36.6290 N.am  255  ILE255     -0.1980
    102  CA        71.4990  -18.0980   37.3660 C.3   255  ILE255      0.1595
    103  C         72.4770  -19.1860   37.8000 C.2   255  ILE255      0.2287
    104  O         72.4780  -19.5650   38.9800 O.2   255  ILE255     -0.2864
    105  CB        70.3110  -18.6930   36.5410 C.3   255  ILE255      0.0276
    106  CG1       69.3170  -17.6020   36.0500 C.3   255  ILE255      0.0022
    107  CG2       69.6220  -19.8570   37.2880 C.3   255  ILE255      0.0022
    108  CD1       67.8870  -17.6140   36.5490 C.3   255  ILE255      0.0001
@<TRIPOS>BOND
     1    23    22    2
     2    22    21    1
     3     1     2    1
     4     5     2    1
     5     5     6    1
     6     8     6   ar
     7     8    10   ar
     8     2     3    1
     9    21    20    1
    10    21    24    1
    11     6     7   ar
    12    10    11   ar
    13    20    15   am
    14    16    15    2
    15    24    25    1
    16    15    14    1
    17    74    75    1
    18     3     4    2
    19     3    13   am
    20    14    13    1
    21    14    17    1
    22     7     9   ar
    23    11    12    1
    24    11     9   ar
    25    78    75    1
    26    78    79    1
    27    13    19    1
    28    42    41    1
    29    75    76    1
    30    25    26   ar
    31    25    27   ar
    32    17    18    1
    33    26    28   ar
    34    79    81   ar
    35    79    80   ar
    36    27    29   ar
    37    41    40   ar
    38    41    39   ar
    39    40    38   ar
    40    81    83   ar
    41    19    18    1
    42    76    86   am
    43    76    77    2
    44    86    87    1
    45    80    82   ar
    46    39    37   ar
    47    38    36   ar
    48    70    69    2
    49    28    30   ar
    50    91    90    1
    51    90    87    1
    52    90    92    1
    53    29    30   ar
    54    83    84   ar
    55    82    84   ar
    56    87    88    1
    57    84    85    1
    58    37    36   ar
    59    36    35    1
    60    88    89    2
    61    69    68    1
    62    72    71    1
    63    35    32    1
    64    68    71    1
    65    68    67    1
    66    71    73    1
    67    31    32    1
    68    93    94    1
    69   100    98    1
    70    32    33    1
    71    98    97    1
    72    50    48    1
    73    58    56    1
    74   106   105    1
    75   106   108    1
    76    97    94    1
    77    97    99    1
    78    94    95    1
    79    33    34    2
    80   105   107    1
    81   105   102    1
    82   101    95   am
    83   101   102    1
    84    56    55    1
    85    95    96    2
    86    48    47    1
    87   102   103    1
    88    47    49    1
    89    47    44    1
    90   103   104    2
    91    55    57    1
    92    55    52    1
    93    51    52    1
    94    51    45   am
    95    44    43    1
    96    44    45    1
    97    52    53    1
    98    66    65    1
    99    45    46    2
   100    65    64    1
   101    53    54    2
   102    64    63    1
   103    63    60    1
   104    60    59    1
   105    60    61    1
   106    61    62    2
