@<TRIPOS>MOLECULE
tmp/3p4xA00.pdb
 111 106 0 0 0
SMALL
GASTEIGER

@<TRIPOS>ATOM
      1  N          2.1370  -39.8910   -1.0560 N.3    13  PHE13      -0.1241
      2  CA         3.1180  -40.9430   -1.2400 C.3    13  PHE13       0.1605
      3  C          3.1600  -41.4010   -2.7080 C.2    13  PHE13       0.2264
      4  O          4.2080  -41.3580   -3.3720 O.2    13  PHE13      -0.2867
      5  CB         2.8000  -42.1310   -0.3320 C.3    13  PHE13       0.0534
      6  CG         3.8190  -43.2160   -0.4190 C.ar   13  PHE13      -0.0203
      7  CD1        3.8200  -44.0930   -1.4840 C.ar   13  PHE13      -0.0042
      8  CD2        4.8160  -43.3250    0.5310 C.ar   13  PHE13      -0.0042
      9  CE1        4.7800  -45.0690   -1.5850 C.ar   13  PHE13      -0.0003
     10  CE2        5.7790  -44.3050    0.4370 C.ar   13  PHE13      -0.0003
     11  CZ         5.7640  -45.1760   -0.6190 C.ar   13  PHE13      -0.0000
     12  N          6.6490  -40.6310   -4.5500 N.3    17  PHE17      -0.1241
     13  CA         7.4830  -41.8010   -4.7070 C.3    17  PHE17       0.1605
     14  C          7.4340  -42.3680   -6.1180 C.2    17  PHE17       0.2264
     15  O          8.4620  -42.7610   -6.6750 O.2    17  PHE17      -0.2867
     16  CB         7.1200  -42.8760   -3.6920 C.3    17  PHE17       0.0534
     17  CG         7.9230  -44.1140   -3.8560 C.ar   17  PHE17      -0.0203
     18  CD1        9.2750  -44.1120   -3.5520 C.ar   17  PHE17      -0.0042
     19  CD2        7.3450  -45.2670   -4.3520 C.ar   17  PHE17      -0.0042
     20  CE1       10.0330  -45.2490   -3.7170 C.ar   17  PHE17      -0.0003
     21  CE2        8.0920  -46.4090   -4.5280 C.ar   17  PHE17      -0.0003
     22  CZ         9.4400  -46.4040   -4.2080 C.ar   17  PHE17      -0.0000
     23  N          5.0470  -44.8450   -6.8640 N.3    19  LYS19      -0.1231
     24  CA         4.2750  -46.0870   -6.7620 C.3    19  LYS19       0.1693
     25  C          3.2500  -46.0630   -5.6290 C.2    19  LYS19       0.2592
     26  O          3.1180  -45.0650   -4.9240 O.2    19  LYS19      -0.2718
     27  CB         5.1970  -47.3090   -6.6290 C.3    19  LYS19       0.0285
     28  CG         6.0180  -47.5980   -7.8840 C.3    19  LYS19       0.0035
     29  CD         6.7670  -48.9240   -7.8090 C.3    19  LYS19       0.0206
     30  CE         7.5290  -49.2010   -9.1040 C.3    19  LYS19       0.1093
     31  NZ         8.1910  -50.5360   -9.0990 N.3    19  LYS19      -0.1314
     32  N          2.5250  -47.1670   -5.4670 N.am   20  ASP20      -0.1974
     33  CA         1.5470  -47.3090   -4.3900 C.3    20  ASP20       0.1709
     34  C          2.1900  -47.6290   -3.0420 C.2    20  ASP20       0.2293
     35  O          3.3760  -47.9120   -2.9660 O.2    20  ASP20      -0.2864
     36  CB         0.5250  -48.3920   -4.7390 C.3    20  ASP20       0.1436
     37  CG        -0.5540  -47.8890   -5.6740 C.2    20  ASP20       0.3671
     38  OD1       -0.8600  -46.6790   -5.6110 O.co2  20  ASP20      -0.2456
     39  OD2       -1.0970  -48.6970   -6.4630 O.co2  20  ASP20      -0.2456
     40  N          2.6850  -50.2150   -0.0380 N.3    22  THR22      -0.1218
     41  CA         2.5650  -51.6580    0.1670 C.3    22  THR22       0.1862
     42  C          1.6230  -51.9690    1.3240 C.2    22  THR22       0.2287
     43  O          1.2580  -51.0850    2.1060 O.2    22  THR22      -0.2866
     44  CB         3.9200  -52.3290    0.4480 C.3    22  THR22       0.1770
     45  OG1        4.4140  -51.9120    1.7310 O.3    22  THR22      -0.2211
     46  CG2        4.9260  -51.9800   -0.6480 C.3    22  THR22       0.0375
     47  N          3.2400  -50.6620    4.3660 N.3    25  GLN25      -0.1245
     48  CA         3.2640  -49.2020    4.4140 C.3    25  GLN25       0.1566
     49  C          1.8800  -48.5840    4.6230 C.2    25  GLN25       0.2260
     50  O          1.7580  -47.4350    5.0480 O.2    25  GLN25      -0.2867
     51  CB         3.9150  -48.6330    3.1560 C.3    25  GLN25       0.0367
     52  CG         5.3500  -49.0920    2.9610 C.3    25  GLN25       0.0905
     53  CD         5.9650  -48.5360    1.6930 C.2    25  GLN25       0.2608
     54  OE1        5.2800  -47.9070    0.8830 O.2    25  GLN25      -0.2717
     55  NE2        7.2630  -48.7650    1.5130 N.am   25  GLN25      -0.0878
     56  N         13.3290  -57.8830    5.4120 N.3    44  THR44      -0.1203
     57  CA        14.0180  -56.7810    4.7410 C.3    44  THR44       0.1994
     58  C         13.7280  -56.7030    3.2400 C.2    44  THR44       0.2618
     59  O         14.2130  -57.5170    2.4550 O.2    44  THR44      -0.2717
     60  CB        15.5450  -56.8120    4.9950 C.3    44  THR44       0.1784
     61  OG1       16.1960  -55.8650    4.1380 O.3    44  THR44      -0.2211
     62  CG2       16.1180  -58.1960    4.7400 C.3    44  THR44       0.0376
     63  N         12.9420  -55.7010    2.8540 N.am   45  GLY45      -0.1942
     64  CA        12.5610  -55.4930    1.4660 C.3    45  GLY45       0.2014
     65  C         11.1630  -54.9100    1.3970 C.2    45  GLY45       0.2639
     66  O         10.7720  -54.2960    0.4140 O.2    45  GLY45      -0.2714
     67  N         10.4220  -55.0960    2.4830 N.am   46  VAL46      -0.1963
     68  CA         9.0380  -54.6370    2.6120 C.3    46  VAL46       0.1727
     69  C          8.7820  -53.1420    2.3210 C.2    46  VAL46       0.2617
     70  O          7.7390  -52.8020    1.7710 O.2    46  VAL46      -0.2715
     71  CB         8.4680  -55.0220    4.0100 C.3    46  VAL46       0.0290
     72  CG1        7.2950  -54.1410    4.3880 C.3    46  VAL46       0.0023
     73  CG2        8.0760  -56.4950    4.0440 C.3    46  VAL46       0.0023
     74  N          9.7060  -52.2580    2.7030 N.am   47  GLY47      -0.1940
     75  CA         9.5360  -50.8230    2.4840 C.3    47  GLY47       0.2014
     76  C          9.6470  -49.9270    3.7220 C.2    47  GLY47       0.2639
     77  O          9.0500  -48.8420    3.7790 O.2    47  GLY47      -0.2714
     78  N         10.4270  -50.3710    4.7080 N.am   48  LYS48      -0.1963
     79  CA        10.5770  -49.6410    5.9630 C.3    48  LYS48       0.1728
     80  C         11.2900  -48.2850    5.8200 C.2    48  LYS48       0.2617
     81  O         10.7220  -47.2390    6.1540 O.2    48  LYS48      -0.2715
     82  CB        11.2900  -50.5030    7.0000 C.3    48  LYS48       0.0311
     83  CG        10.5700  -51.7840    7.3400 C.3    48  LYS48       0.0038
     84  CD        11.3060  -52.5260    8.4330 C.3    48  LYS48       0.0206
     85  CE        11.6550  -53.9500    8.0430 C.3    48  LYS48       0.1093
     86  NZ        12.7280  -54.0600    7.0060 N.3    48  LYS48      -0.1314
     87  N         12.5310  -48.2970    5.3430 N.am   49  THR49      -0.1937
     88  CA        13.2870  -47.0530    5.1960 C.3    49  THR49       0.2028
     89  C         12.5600  -46.0510    4.3110 C.2    49  THR49       0.2642
     90  O         12.5280  -44.8570    4.5950 O.2    49  THR49      -0.2714
     91  CB        14.6690  -47.3030    4.5650 C.3    49  THR49       0.1808
     92  OG1       15.4610  -48.0990    5.4460 O.3    49  THR49      -0.2208
     93  CG2       15.3890  -45.9900    4.3030 C.3    49  THR49       0.0379
     94  N         11.9870  -46.5370    3.2200 N.am   50  THR50      -0.1950
     95  CA        11.4210  -45.6350    2.2350 C.3    50  THR50       0.1897
     96  C         10.2610  -44.9120    2.8620 C.2    50  THR50       0.2313
     97  O         10.0730  -43.7090    2.6590 O.2    50  THR50      -0.2863
     98  CB        10.9540  -46.3710    0.9640 C.3    50  THR50       0.1794
     99  OG1       12.1020  -46.8260    0.2280 O.3    50  THR50      -0.2208
    100  CG2       10.1140  -45.4340    0.0830 C.3    50  THR50       0.0378
    101  N         18.5060  -39.2480   -1.8190 N.3    82  ARG82      -0.1245
    102  CA        17.1070  -39.4330   -2.1600 C.3    82  ARG82       0.1563
    103  C         16.2580  -38.2620   -1.6970 C.2    82  ARG82       0.2260
    104  O         15.4350  -37.7480   -2.4440 O.2    82  ARG82      -0.2867
    105  CB        16.5900  -40.6880   -1.4770 C.3    82  ARG82       0.0307
    106  CG        17.2500  -41.9750   -1.9170 C.3    82  ARG82       0.0489
    107  CD        16.1970  -43.0680   -2.0700 C.3    82  ARG82       0.2205
    108  NE        16.0510  -43.8840   -0.8730 N.pl3  82  ARG82      -0.0865
    109  CZ        14.9670  -44.5970   -0.5740 C.cat  82  ARG82       0.5346
    110  NH1       13.9160  -44.5800   -1.3830 N.pl3  82  ARG82       0.1354
    111  NH2       14.9310  -45.3200    0.5420 N.pl3  82  ARG82       0.1354
@<TRIPOS>BOND
     1    30    31    1
     2    30    29    1
     3    28    29    1
     4    28    27    1
     5    23    24    1
     6    24    27    1
     7    24    25    1
     8    15    14    2
     9    39    37   ar
    10    14    13    1
    11    37    38   ar
    12    37    36    1
    13    25    32   am
    14    25    26    2
    15    32    33    1
    16    36    33    1
    17    13    12    1
    18    13    16    1
    19    21    19   ar
    20    21    22   ar
    21    33    34    1
    22    19    17   ar
    23    22    20   ar
    24    17    16    1
    25    17    18   ar
    26    20    18   ar
    27     4     3    2
    28    34    35    2
    29     3     2    1
    30   104   103    2
    31   102   101    1
    32   102   103    1
    33   102   105    1
    34   107   106    1
    35   107   108    1
    36   106   105    1
    37     9     7   ar
    38     9    11   ar
    39     7     6   ar
    40   110   109    1
    41     2     1    1
    42     2     5    1
    43   108   109    2
    44    46    44    1
    45    11    10   ar
    46   109   111    1
    47     6     5    1
    48     6     8   ar
    49    40    41    1
    50   100    98    1
    51    41    44    1
    52    41    42    1
    53    99    98    1
    54    66    65    2
    55    10     8   ar
    56    44    45    1
    57    54    53    2
    58    98    95    1
    59    42    43    2
    60    65    64    1
    61    65    67   am
    62    64    63    1
    63    55    53   am
    64    53    52    1
    65    70    69    2
    66    95    96    1
    67    95    94    1
    68    69    68    1
    69    69    74   am
    70    59    58    2
    71    67    68    1
    72    75    74    1
    73    75    76    1
    74    68    71    1
    75    97    96    2
    76    63    58   am
    77    52    51    1
    78    51    48    1
    79    94    89   am
    80    58    57    1
    81    76    77    2
    82    76    78   am
    83    71    73    1
    84    71    72    1
    85    61    60    1
    86    93    91    1
    87    89    90    2
    88    89    88    1
    89    47    48    1
    90    48    49    1
    91    91    88    1
    92    91    92    1
    93    49    50    2
    94    78    79    1
    95    62    60    1
    96    57    60    1
    97    57    56    1
    98    88    87    1
    99    87    80   am
   100    80    79    1
   101    80    81    2
   102    79    82    1
   103    82    83    1
   104    86    85    1
   105    83    84    1
   106    85    84    1
