@<TRIPOS>MOLECULE
tmp/3p50C01.pdb
 100 94 0 0 0
SMALL
GASTEIGER

@<TRIPOS>ATOM
      1  N         43.2240  -51.1390   39.1790 N.3   114  ARG114     -0.1245
      2  CA        44.5590  -51.7300   39.3610 C.3   114  ARG114      0.1563
      3  C         45.7780  -50.8700   38.8880 C.2   114  ARG114      0.2260
      4  O         46.8880  -51.4110   38.7790 O.2   114  ARG114     -0.2867
      5  CB        44.6320  -53.1490   38.7850 C.3   114  ARG114      0.0307
      6  CG        43.7370  -54.1530   39.5020 C.3   114  ARG114      0.0489
      7  CD        43.6930  -55.4730   38.7430 C.3   114  ARG114      0.2205
      8  NE        42.8240  -56.4510   39.3980 N.pl3 114  ARG114     -0.0865
      9  CZ        42.8120  -57.7500   39.1160 C.cat 114  ARG114      0.5346
     10  NH1       43.6120  -58.2440   38.1790 N.pl3 114  ARG114      0.1354
     11  NH2       42.0040  -58.5700   39.7760 N.pl3 114  ARG114      0.1354
     12  N         49.1880  -51.1120   37.3100 N.3   117  PHE117     -0.1241
     13  CA        49.2890  -52.5180   36.8680 C.3   117  PHE117      0.1605
     14  C         48.0150  -52.9900   36.1290 C.2   117  PHE117      0.2264
     15  O         47.7600  -54.1940   36.0220 O.2   117  PHE117     -0.2867
     16  CB        49.5910  -53.4480   38.0640 C.3   117  PHE117      0.0534
     17  CG        50.7860  -52.9950   38.8540 C.ar  117  PHE117     -0.0203
     18  CD1       52.0670  -53.2100   38.3860 C.ar  117  PHE117     -0.0042
     19  CD2       50.6250  -52.3050   40.0460 C.ar  117  PHE117     -0.0042
     20  CE1       53.1740  -52.7310   39.0920 C.ar  117  PHE117     -0.0003
     21  CE2       51.7320  -51.8240   40.7550 C.ar  117  PHE117     -0.0003
     22  CZ        52.9990  -52.0390   40.2730 C.ar  117  PHE117     -0.0000
     23  N         45.0250  -53.2780   32.9420 N.3   119  SER119     -0.1217
     24  CA        44.8130  -53.6300   31.5390 C.3   119  SER119      0.1889
     25  C         43.4750  -53.0040   31.1440 C.2   119  SER119      0.2288
     26  O         42.6090  -52.8110   32.0040 O.2   119  SER119     -0.2866
     27  CB        44.7300  -55.1410   31.3630 C.3   119  SER119      0.2089
     28  OG        46.0030  -55.7400   31.2380 O.3   119  SER119     -0.2183
     29  N         53.9230  -50.7800   33.2820 N.3   190  TYR190     -0.1241
     30  CA        54.1720  -50.3100   34.6430 C.3   190  TYR190      0.1605
     31  C         55.6330  -50.0720   35.0280 C.2   190  TYR190      0.2264
     32  O         55.8740  -49.5010   36.0860 O.2   190  TYR190     -0.2867
     33  CB        53.5250  -51.2590   35.6500 C.3   190  TYR190      0.0534
     34  CG        54.0760  -52.6670   35.5980 C.ar  190  TYR190     -0.0201
     35  CD1       55.2560  -53.0020   36.2610 C.ar  190  TYR190     -0.0009
     36  CD2       53.4170  -53.6660   34.9070 C.ar  190  TYR190     -0.0009
     37  CE1       55.7610  -54.2990   36.2270 C.ar  190  TYR190      0.0417
     38  CE2       53.9110  -54.9670   34.8720 C.ar  190  TYR190      0.0417
     39  CZ        55.0830  -55.2770   35.5360 C.ar  190  TYR190      0.1957
     40  OH        55.5810  -56.5470   35.4880 O.3   190  TYR190     -0.2866
     41  N         57.9580  -47.8330   38.8170 N.3   194  ILE194     -0.1245
     42  CA        58.8370  -48.3730   39.8430 C.3   194  ILE194      0.1561
     43  C         59.9490  -47.3870   40.2170 C.2   194  ILE194      0.2260
     44  O         59.9120  -46.9090   41.3470 O.2   194  ILE194     -0.2867
     45  CB        59.3420  -49.7890   39.4890 C.3   194  ILE194      0.0252
     46  CG1       58.1670  -50.7790   39.4500 C.3   194  ILE194      0.0019
     47  CG2       60.4090  -50.2280   40.4870 C.3   194  ILE194      0.0019
     48  CD1       58.3910  -51.9850   38.6700 C.3   194  ILE194      0.0001
     49  N         57.1080  -45.2360   42.7530 N.3   198  ILE198     -0.1231
     50  CA        57.0940  -46.2800   43.7820 C.3   198  ILE198      0.1692
     51  C         58.3020  -46.2500   44.7380 C.2   198  ILE198      0.2591
     52  O         58.1190  -45.9850   45.9250 O.2   198  ILE198     -0.2718
     53  CB        56.8280  -47.6750   43.1750 C.3   198  ILE198      0.0266
     54  CG1       55.4890  -47.6860   42.4090 C.3   198  ILE198      0.0019
     55  CG2       56.8490  -48.7330   44.2840 C.3   198  ILE198      0.0020
     56  CD1       55.2480  -48.8530   41.4730 C.3   198  ILE198      0.0001
     57  N         59.5130  -46.5260   44.2300 N.am  199  LEU199     -0.1980
     58  CA        60.7250  -46.5240   45.0390 C.3   199  LEU199      0.1596
     59  C         61.0160  -45.1760   45.7240 C.2   199  LEU199      0.2287
     60  O         61.1840  -45.1900   46.9530 O.2   199  LEU199     -0.2864
     61  CB        61.9440  -47.1320   44.3280 C.3   199  LEU199      0.0297
     62  CG        61.7530  -48.5760   43.8720 C.3   199  LEU199      0.0022
     63  CD1       62.9210  -49.0470   43.1020 C.3   199  LEU199      0.0001
     64  CD2       61.4690  -49.5140   45.0370 C.3   199  LEU199      0.0001
     65  N         58.7150  -44.9190   48.6310 N.3   202  LEU202     -0.1245
     66  CA        59.0590  -45.8450   49.7170 C.3   202  LEU202      0.1561
     67  C         60.2860  -45.3590   50.5070 C.2   202  LEU202      0.2260
     68  O         60.2750  -45.4060   51.7380 O.2   202  LEU202     -0.2867
     69  CB        59.2660  -47.2640   49.1930 C.3   202  LEU202      0.0270
     70  CG        58.0270  -47.9260   48.6270 C.3   202  LEU202      0.0019
     71  CD1       58.3830  -49.2050   47.9170 C.3   202  LEU202      0.0001
     72  CD2       57.0090  -48.2050   49.7050 C.3   202  LEU202      0.0001
     73  N         44.1130  -48.8890   43.3240 N.3   250  TYR250     -0.1241
     74  CA        45.2020  -49.5310   44.0470 C.3   250  TYR250      0.1605
     75  C         46.2100  -48.4980   44.5650 C.2   250  TYR250      0.2264
     76  O         46.4200  -48.4480   45.7690 O.2   250  TYR250     -0.2867
     77  CB        45.8550  -50.6250   43.2040 C.3   250  TYR250      0.0534
     78  CG        47.0160  -51.2910   43.8890 C.ar  250  TYR250     -0.0201
     79  CD1       48.2950  -51.2300   43.3520 C.ar  250  TYR250     -0.0009
     80  CD2       46.8500  -51.9380   45.1070 C.ar  250  TYR250     -0.0009
     81  CE1       49.3750  -51.8420   43.9860 C.ar  250  TYR250      0.0417
     82  CE2       47.9230  -52.5320   45.7610 C.ar  250  TYR250      0.0417
     83  CZ        49.1900  -52.4710   45.2020 C.ar  250  TYR250      0.1957
     84  OH        50.2600  -53.0540   45.8320 O.3   250  TYR250     -0.2866
     85  N         47.1800  -55.7140   48.2370 N.3   307  ALA307     -0.1245
     86  CA        47.5200  -56.4190   46.9990 C.3   307  ALA307      0.1562
     87  C         46.5520  -57.5790   46.8130 C.2   307  ALA307      0.2260
     88  O         46.0860  -57.8400   45.6980 O.2   307  ALA307     -0.2867
     89  CB        48.9420  -56.9360   47.0690 C.3   307  ALA307      0.0290
     90  N         44.1670  -57.6590   43.6080 N.3   311  PHE311     -0.1241
     91  CA        44.5730  -58.5390   42.5040 C.3   311  PHE311      0.1605
     92  C         44.1740  -60.0350   42.5900 C.2   311  PHE311      0.2264
     93  O         43.7010  -60.5310   43.6130 O.2   311  PHE311     -0.2867
     94  CB        46.0740  -58.3660   42.2000 C.3   311  PHE311      0.0534
     95  CG        46.5410  -56.9640   41.8950 C.ar  311  PHE311     -0.0203
     96  CD1       46.7000  -56.5400   40.5900 C.ar  311  PHE311     -0.0042
     97  CD2       46.8720  -56.0850   42.9240 C.ar  311  PHE311     -0.0042
     98  CE1       47.1450  -55.2410   40.3100 C.ar  311  PHE311     -0.0003
     99  CE2       47.2980  -54.7800   42.6490 C.ar  311  PHE311     -0.0003
    100  CZ        47.4340  -54.3640   41.3450 C.ar  311  PHE311     -0.0000
@<TRIPOS>BOND
     1    25    24    1
     2    25    26    2
     3    28    27    1
     4    27    24    1
     5    24    23    1
     6    29    30    1
     7    30    31    1
     8    30    33    1
     9    38    36   ar
    10    38    39   ar
    11    36    34   ar
    12    31    32    2
    13    40    39    1
    14    39    37   ar
    15    34    33    1
    16    34    35   ar
    17    15    14    2
    18    14    13    1
    19    37    35   ar
    20    13    12    1
    21    13    16    1
    22    16    17    1
    23    10     9    1
    24    18    17   ar
    25    18    20   ar
    26    48    46    1
    27     7     8    1
    28     7     6    1
    29     4     3    2
    30     5     2    1
    31     5     6    1
    32    41    42    1
    33    17    19   ar
    34     3     2    1
    35    20    22   ar
    36     9     8    2
    37     9    11    1
    38     1     2    1
    39    46    45    1
    40    45    42    1
    41    45    47    1
    42    42    43    1
    43    19    21   ar
    44    43    44    2
    45    22    21   ar
    46    98    96   ar
    47    98   100   ar
    48    96    95   ar
    49   100    99   ar
    50    56    54    1
    51    95    94    1
    52    95    97   ar
    53    94    91    1
    54    54    53    1
    55    91    92    1
    56    91    90    1
    57    92    93    2
    58    99    97   ar
    59    49    50    1
    60    63    62    1
    61    53    50    1
    62    53    55    1
    63    77    78    1
    64    77    74    1
    65    73    74    1
    66    79    78   ar
    67    79    81   ar
    68    50    51    1
    69    62    61    1
    70    62    64    1
    71    78    80   ar
    72    81    83   ar
    73    74    75    1
    74    57    51   am
    75    57    58    1
    76    61    58    1
    77    75    76    2
    78    51    52    2
    79    58    59    1
    80    80    82   ar
    81    83    82   ar
    82    83    84    1
    83    88    87    2
    84    59    60    2
    85    87    86    1
    86    86    89    1
    87    86    85    1
    88    71    70    1
    89    70    69    1
    90    70    72    1
    91    65    66    1
    92    69    66    1
    93    66    67    1
    94    67    68    2
