@<TRIPOS>MOLECULE
tmp/3p55A00.pdb
 136 132 0 0 0
SMALL
GASTEIGER

@<TRIPOS>ATOM
      1  N         12.9320    2.3100    5.8620 N.3    64  ASN64      -0.1240
      2  CA        12.0570    3.2270    6.5860 C.3    64  ASN64       0.1653
      3  C         10.8670    3.7060    5.7670 C.2    64  ASN64       0.2266
      4  O         11.0070    4.0300    4.5870 O.2    64  ASN64      -0.2867
      5  CB        12.8190    4.4900    7.0140 C.3    64  ASN64       0.1155
      6  CG        13.9450    4.2150    7.9800 C.2    64  ASN64       0.2627
      7  OD1       14.7810    5.0860    8.2190 O.2    64  ASN64      -0.2716
      8  ND2       13.9780    3.0200    8.5430 N.am   64  ASN64      -0.0877
      9  N          8.6270    8.1030   11.3530 N.3    89  GLN89      -0.1245
     10  CA         8.9280    6.9310   10.5360 C.3    89  GLN89       0.1566
     11  C          8.7860    5.6300   11.3040 C.2    89  GLN89       0.2260
     12  O          8.7050    5.6260   12.5300 O.2    89  GLN89      -0.2867
     13  CB        10.3570    7.0110    9.9790 C.3    89  GLN89       0.0367
     14  CG        11.4540    7.0700   11.0450 C.3    89  GLN89       0.0905
     15  CD        12.2120    5.7590   11.2240 C.2    89  GLN89       0.2608
     16  OE1       11.6210    4.6780   11.3130 O.2    89  GLN89      -0.2717
     17  NE2       13.5320    5.8540   11.2900 N.am   89  GLN89      -0.0878
     18  N         10.0990    1.2770   10.9630 N.3    91  HIS91      -0.1241
     19  CA        10.9770    0.3200   10.3090 C.3    91  HIS91       0.1621
     20  C         10.9440   -0.9680   11.1170 C.2    91  HIS91       0.2264
     21  O         10.3470   -1.0180   12.1960 O.2    91  HIS91      -0.2867
     22  CB        12.4110    0.8550   10.2750 C.3    91  HIS91       0.0745
     23  CG        12.9530    1.1890   11.6300 C.ar   91  HIS91       0.0817
     24  ND1       12.7300    2.4050   12.2410 N.ar   91  HIS91      -0.2268
     25  CD2       13.6350    0.4390   12.5260 C.ar   91  HIS91       0.1154
     26  CE1       13.2480    2.3880   13.4550 C.ar   91  HIS91       0.1986
     27  NE2       13.8020    1.2070   13.6540 N.ar   91  HIS91      -0.2212
     28  N         13.1900   -4.7940   12.3240 N.3    93  HIS93      -0.1241
     29  CA        14.4400   -5.4950   12.6160 C.3    93  HIS93       0.1621
     30  C         13.9790   -6.9470   12.5090 C.2    93  HIS93       0.2264
     31  O         12.9420   -7.3020   13.0790 O.2    93  HIS93      -0.2867
     32  CB        14.9200   -5.2230   14.0450 C.3    93  HIS93       0.0745
     33  CG        15.3410   -3.8090   14.2780 C.ar   93  HIS93       0.0817
     34  ND1       16.6210   -3.3630   14.0260 N.ar   93  HIS93      -0.2268
     35  CD2       14.6350   -2.7240   14.6760 C.ar   93  HIS93       0.1154
     36  CE1       16.6860   -2.0640   14.2560 C.ar   93  HIS93       0.1986
     37  NE2       15.4940   -1.6530   14.6500 N.ar   93  HIS93      -0.2212
     38  N          9.2820   -0.9210   14.7970 N.3   116  HIS116     -0.1241
     39  CA         9.5240    0.2840   15.5680 C.3   116  HIS116      0.1621
     40  C          8.8690    1.4920   14.9120 C.2   116  HIS116      0.2264
     41  O          9.2080    1.8610   13.7770 O.2   116  HIS116     -0.2867
     42  CB        11.0270    0.5380   15.7050 C.3   116  HIS116      0.0745
     43  CG        11.7220   -0.4220   16.6210 C.ar  116  HIS116      0.0817
     44  ND1       13.0920   -0.5580   16.6520 N.ar  116  HIS116     -0.2268
     45  CD2       11.2400   -1.2770   17.5530 C.ar  116  HIS116      0.1154
     46  CE1       13.4250   -1.4570   17.5620 C.ar  116  HIS116      0.1986
     47  NE2       12.3170   -1.9080   18.1230 N.ar  116  HIS116     -0.2212
     48  N          8.6220    5.2550   15.2580 N.3   118  VAL118     -0.1245
     49  CA         9.3590    6.3610   15.8710 C.3   118  VAL118      0.1561
     50  C          8.6020    7.6860   15.9290 C.2   118  VAL118      0.2260
     51  O          8.1060    8.1690   14.9120 O.2   118  VAL118     -0.2867
     52  CB        10.6920    6.5860   15.1150 C.3   118  VAL118      0.0252
     53  CG1       11.6220    7.4950   15.9310 C.3   118  VAL118      0.0019
     54  CG2       11.3490    5.2430   14.8260 C.3   118  VAL118      0.0019
     55  N         12.9550   16.8590   14.8520 N.3   127  PHE127     -0.1241
     56  CA        13.5760   15.5800   15.1890 C.3   127  PHE127      0.1605
     57  C         15.0360   15.7220   15.6100 C.2   127  PHE127      0.2264
     58  O         15.4620   15.1430   16.6130 O.2   127  PHE127     -0.2867
     59  CB        13.4830   14.6300   13.9880 C.3   127  PHE127      0.0534
     60  CG        13.9980   13.2450   14.2640 C.ar  127  PHE127     -0.0203
     61  CD1       13.2820   12.3720   15.0730 C.ar  127  PHE127     -0.0042
     62  CD2       15.1930   12.8110   13.7020 C.ar  127  PHE127     -0.0042
     63  CE1       13.7500   11.0800   15.3190 C.ar  127  PHE127     -0.0003
     64  CE2       15.6690   11.5210   13.9420 C.ar  127  PHE127     -0.0003
     65  CZ        14.9440   10.6550   14.7510 C.ar  127  PHE127     -0.0000
     66  N         16.4120   14.4210   19.4460 N.3   131  VAL131     -0.1245
     67  CA        17.3390   13.3390   19.7950 C.3   131  VAL131      0.1561
     68  C         18.4190   13.7530   20.7950 C.2   131  VAL131      0.2260
     69  O         19.1450   12.9050   21.3230 O.2   131  VAL131     -0.2867
     70  CB        18.0310   12.7350   18.5460 C.3   131  VAL131      0.0252
     71  CG1       16.9900   12.1180   17.6210 C.3   131  VAL131      0.0019
     72  CG2       18.8380   13.7970   17.8270 C.3   131  VAL131      0.0019
     73  N          9.3970    5.5720   21.1260 N.3   139  VAL139     -0.1245
     74  CA         9.3330    4.5440   20.1020 C.3   139  VAL139      0.1561
     75  C          8.4120    3.4370   20.5690 C.2   139  VAL139      0.2260
     76  O          8.5700    2.9050   21.6710 O.2   139  VAL139     -0.2867
     77  CB        10.7230    3.9520   19.7760 C.3   139  VAL139      0.0252
     78  CG1       10.5930    2.9050   18.6720 C.3   139  VAL139      0.0019
     79  CG2       11.6650    5.0640   19.3240 C.3   139  VAL139      0.0019
     80  N         18.4790    4.7830   21.1690 N.3   194  LEU194     -0.1231
     81  CA        18.2690    4.3090   19.8050 C.3   194  LEU194      0.1693
     82  C         19.0230    2.9810   19.8050 C.2   194  LEU194      0.2593
     83  O         20.0220    2.8450   20.5100 O.2   194  LEU194     -0.2718
     84  CB        18.9160    5.2600   18.7960 C.3   194  LEU194      0.0284
     85  CG        18.4370    6.7140   18.7740 C.3   194  LEU194      0.0019
     86  CD1       19.2620    7.4910   17.7560 C.3   194  LEU194      0.0001
     87  CD2       16.9490    6.7660   18.4250 C.3   194  LEU194      0.0001
     88  N         18.5700    2.0050   19.0270 N.am  195  THR195     -0.1939
     89  CA        19.2550    0.7180   19.0050 C.3   195  THR195      0.2028
     90  C         20.3250    0.6170   17.9220 C.2   195  THR195      0.2643
     91  O         20.9100   -0.4520   17.7160 O.2   195  THR195     -0.2714
     92  CB        18.2680   -0.4430   18.8260 C.3   195  THR195      0.1808
     93  OG1       17.5550   -0.2690   17.5980 O.3   195  THR195     -0.2208
     94  CG2       17.2920   -0.5030   20.0080 C.3   195  THR195      0.0379
     95  N         20.5690    1.7240   17.2250 N.am  196  THR196     -0.1937
     96  CA        21.5950    1.7700   16.1880 C.3   196  THR196      0.2013
     97  C         22.4070    3.0490   16.3600 C.2   196  THR196      0.2484
     98  O         21.8980    4.0490   16.8690 O.2   196  THR196     -0.2729
     99  CB        20.9910    1.8000   14.7560 C.3   196  THR196      0.1807
    100  OG1       20.1530    2.9560   14.6170 O.3   196  THR196     -0.2208
    101  CG2       20.1780    0.5460   14.4810 C.3   196  THR196      0.0379
    102  N         23.6830    3.0350   15.9380 N.am  197  PRO197     -0.2715
    103  CA        24.4980    4.2480   16.0760 C.3   197  PRO197      0.1521
    104  C         23.6680    5.4030   15.5230 C.2   197  PRO197      0.2440
    105  O         22.9440    5.2270   14.5420 O.2   197  PRO197     -0.2731
    106  CB        25.7170    3.9430   15.2120 C.3   197  PRO197      0.0310
    107  CG        25.8730    2.4400   15.3810 C.3   197  PRO197      0.0237
    108  CD        24.4340    1.9590   15.2660 C.3   197  PRO197      0.0939
    109  N         23.7850    6.6040   16.1070 N.am  198  PRO198     -0.2727
    110  CA        24.6150    7.0280   17.2370 C.3   198  PRO198      0.1402
    111  C         24.2010    6.5840   18.6480 C.2   198  PRO198      0.2269
    112  O         24.7190    7.1070   19.6310 O.2   198  PRO198     -0.2865
    113  CB        24.6280    8.5410   17.0860 C.3   198  PRO198      0.0296
    114  CG        23.2360    8.8180   16.6190 C.3   198  PRO198      0.0237
    115  CD        22.9890    7.7360   15.5910 C.3   198  PRO198      0.0939
    116  N         15.3300    8.0330   24.2460 N.3   203  VAL203     -0.1245
    117  CA        14.0860    7.3070   24.0330 C.3   203  VAL203      0.1561
    118  C         13.2850    6.7470   25.1880 C.2   203  VAL203      0.2260
    119  O         13.8160    6.0950   26.0870 O.2   203  VAL203     -0.2867
    120  CB        14.3140    6.1010   23.0770 C.3   203  VAL203      0.0252
    121  CG1       12.9730    5.4550   22.7280 C.3   203  VAL203      0.0019
    122  CG2       15.0550    6.5400   21.8190 C.3   203  VAL203      0.0019
    123  N         10.8840    4.0370   25.6750 N.3   205  TRP205     -0.1241
    124  CA        10.4110    2.8690   24.9540 C.3   205  TRP205      0.1605
    125  C          9.0560    2.4020   25.4590 C.2   205  TRP205      0.2264
    126  O          8.7980    2.3660   26.6650 O.2   205  TRP205     -0.2867
    127  CB        11.4220    1.7170   25.0430 C.3   205  TRP205      0.0550
    128  CG        12.5550    1.8430   24.0650 C.ar  205  TRP205      0.0003
    129  CD1       13.7790    2.4050   24.2880 C.ar  205  TRP205      0.0946
    130  CD2       12.5460    1.4320   22.6930 C.ar  205  TRP205      0.0152
    131  NE1       14.5320    2.3710   23.1400 N.ar  205  TRP205     -0.2442
    132  CE2       13.7960    1.7790   22.1450 C.ar  205  TRP205      0.0810
    133  CE3       11.5970    0.8030   21.8730 C.ar  205  TRP205      0.0012
    134  CZ2       14.1260    1.5210   20.8130 C.ar  205  TRP205      0.0191
    135  CZ3       11.9280    0.5430   20.5480 C.ar  205  TRP205      0.0001
    136  CH2       13.1780    0.9030   20.0330 C.ar  205  TRP205      0.0015
@<TRIPOS>BOND
     1     4     3    2
     2     3     2    1
     3     1     2    1
     4     2     5    1
     5     5     6    1
     6     6     7    2
     7     6     8   am
     8    13    10    1
     9    13    14    1
    10    22    19    1
    11    22    23    1
    12    19    18    1
    13    19    20    1
    14    10    11    1
    15    10     9    1
    16    14    15    1
    17    20    21    2
    18    15    17   am
    19    15    16    2
    20    11    12    2
    21    23    24   ar
    22    23    25   ar
    23    24    26   ar
    24    28    29    1
    25    30    29    1
    26    30    31    2
    27    25    27   ar
    28    29    32    1
    29    26    27   ar
    30    62    64   ar
    31    62    60   ar
    32    41    40    2
    33    64    65   ar
    34    59    60    1
    35    59    56    1
    36    34    36   ar
    37    34    33   ar
    38    32    33    1
    39    36    37   ar
    40    60    61   ar
    41    33    35   ar
    42   101    99    1
    43   105   104    2
    44   100    99    1
    45    37    35   ar
    46    65    63   ar
    47    99    96    1
    48    38    39    1
    49    54    52    1
    50    55    56    1
    51    51    50    2
    52    40    39    1
    53    61    63   ar
    54    52    49    1
    55    52    53    1
    56    56    57    1
    57   106   107    1
    58   106   103    1
    59    48    49    1
    60   108   107    1
    61   108   102    1
    62   104   103    1
    63   104   109   am
    64    39    42    1
    65   115   109    1
    66   115   114    1
    67    57    58    2
    68    42    43    1
    69    49    50    1
    70   102   103    1
    71   102    97   am
    72   109   110    1
    73    96    97    1
    74    96    95    1
    75    97    98    2
    76   114   113    1
    77    43    44   ar
    78    43    45   ar
    79    44    46   ar
    80   113   110    1
    81    95    90   am
    82   110   111    1
    83    45    47   ar
    84    46    47   ar
    85    93    92    1
    86    71    70    1
    87    91    90    2
    88    86    85    1
    89    72    70    1
    90    90    89    1
    91    87    85    1
    92    70    67    1
    93   111   112    2
    94    78    77    1
    95    85    84    1
    96    84    81    1
    97    92    89    1
    98    92    94    1
    99    89    88    1
   100    88    82   am
   101    79    77    1
   102    66    67    1
   103    77    74    1
   104    67    68    1
   105    82    81    1
   106    82    83    2
   107    81    80    1
   108   136   135   ar
   109   136   134   ar
   110    74    75    1
   111    74    73    1
   112   135   133   ar
   113    75    76    2
   114    68    69    2
   115   134   132   ar
   116   122   120    1
   117   133   130   ar
   118   132   130   ar
   119   132   131   ar
   120   130   128   ar
   121   121   120    1
   122   120   117    1
   123   131   129   ar
   124   117   116    1
   125   117   118    1
   126   128   129   ar
   127   128   127    1
   128   124   127    1
   129   124   125    1
   130   124   123    1
   131   118   119    2
   132   125   126    2
