@<TRIPOS>MOLECULE
tmp/3p58A00.pdb
 131 126 0 0 0
SMALL
GASTEIGER

@<TRIPOS>ATOM
      1  N         -3.3370    0.5940    3.6250 N.3    59  ASN59      -0.1240
      2  CA        -2.2300    1.4460    4.0850 C.3    59  ASN59       0.1653
      3  C         -0.9550    0.6860    4.3580 C.2    59  ASN59       0.2266
      4  O          0.0270    1.2350    4.8920 O.2    59  ASN59      -0.2867
      5  CB        -2.6220    2.2680    5.3220 C.3    59  ASN59       0.1155
      6  CG        -2.8390    1.4180    6.5460 C.2    59  ASN59       0.2627
      7  OD1       -2.6140    0.2300    6.5330 O.2    59  ASN59      -0.2716
      8  ND2       -3.2700    2.0330    7.6180 N.am   59  ASN59      -0.0877
      9  N         -0.6440   -1.9510    6.3560 N.3    61  HIS61      -0.1226
     10  CA        -0.7860   -2.8350    7.5280 C.3    61  HIS61       0.1752
     11  C         -2.2110   -3.2280    7.8600 C.2    61  HIS61       0.2595
     12  O         -2.4220   -4.1300    8.6740 O.2    61  HIS61      -0.2718
     13  CB        -0.0780   -2.2870    8.7650 C.3    61  HIS61       0.0759
     14  CG        -0.5490   -0.9600    9.2250 C.ar   61  HIS61       0.0818
     15  ND1       -1.4460   -0.8100   10.2650 N.ar   61  HIS61      -0.2268
     16  CD2       -0.1590    0.2940    8.8790 C.ar   61  HIS61       0.1154
     17  CE1       -1.6340    0.4780   10.4900 C.ar   61  HIS61       0.1986
     18  NE2       -0.8780    1.1670    9.6630 N.ar   61  HIS61      -0.2212
     19  N         -3.1820   -2.5960    7.2320 N.am   62  ALA62      -0.1980
     20  CA        -4.5860   -2.9600    7.3360 C.3    62  ALA62       0.1597
     21  C         -5.2940   -2.2940    6.1770 C.2    62  ALA62       0.2287
     22  O         -4.6440   -1.6510    5.3150 O.2    62  ALA62      -0.2864
     23  CB        -5.1450   -2.4750    8.6790 C.3    62  ALA62       0.0319
     24  N         -8.4450    0.5740    5.7780 N.3    64  ASN64      -0.1240
     25  CA        -9.2260    1.5180    6.5480 C.3    64  ASN64       0.1653
     26  C        -10.4290    1.9380    5.7060 C.2    64  ASN64       0.2266
     27  O        -10.2640    2.3930    4.5640 O.2    64  ASN64      -0.2867
     28  CB        -8.4220    2.7720    6.8380 C.3    64  ASN64       0.1155
     29  CG        -7.3320    2.5730    7.8480 C.2    64  ASN64       0.2627
     30  OD1       -7.1350    1.4950    8.3830 O.2    64  ASN64      -0.2716
     31  ND2       -6.6020    3.6610    8.1300 N.am   64  ASN64      -0.0877
     32  N        -12.6310    6.3100   11.1660 N.3    89  GLN89      -0.1245
     33  CA       -12.3700    5.1810   10.3010 C.3    89  GLN89       0.1566
     34  C        -12.6140    3.9210   11.0840 C.2    89  GLN89       0.2260
     35  O        -12.6460    3.9590   12.3090 O.2    89  GLN89      -0.2867
     36  CB       -10.9270    5.2030    9.7470 C.3    89  GLN89       0.0367
     37  CG        -9.8270    5.2450   10.8060 C.3    89  GLN89       0.0905
     38  CD        -9.1060    3.9370   11.0300 C.2    89  GLN89       0.2608
     39  OE1       -9.6930    2.8750   11.1490 O.2    89  GLN89      -0.2717
     40  NE2       -7.7830    4.0210   11.0950 N.am   89  GLN89      -0.0878
     41  N        -11.1010   -0.3460   10.8590 N.3    91  HIS91      -0.1241
     42  CA       -10.2030   -1.3080   10.2740 C.3    91  HIS91       0.1621
     43  C        -10.3040   -2.5680   11.0970 C.2    91  HIS91       0.2264
     44  O        -10.9580   -2.5950   12.1320 O.2    91  HIS91      -0.2867
     45  CB        -8.7490   -0.8270   10.2720 C.3    91  HIS91       0.0745
     46  CG        -8.2320   -0.5690   11.6460 C.ar   91  HIS91       0.0817
     47  ND1       -8.4270    0.6410   12.2850 N.ar   91  HIS91      -0.2268
     48  CD2       -7.6140   -1.3790   12.5250 C.ar   91  HIS91       0.1154
     49  CE1       -7.9170    0.5620   13.5060 C.ar   91  HIS91       0.1986
     50  NE2       -7.4000   -0.6530   13.6610 N.ar   91  HIS91      -0.2212
     51  N         -7.9770   -6.2920   12.4190 N.3    93  HIS93      -0.1241
     52  CA        -6.7650   -7.0520   12.5990 C.3    93  HIS93       0.1621
     53  C         -7.1760   -8.5160   12.4790 C.2    93  HIS93       0.2264
     54  O         -8.2540   -8.9050   12.9770 O.2    93  HIS93      -0.2867
     55  CB        -6.1500   -6.7950   13.9810 C.3    93  HIS93       0.0745
     56  CG        -5.8490   -5.3620   14.2430 C.ar   93  HIS93       0.0817
     57  ND1       -4.6070   -4.8110   14.0160 N.ar   93  HIS93      -0.2268
     58  CD2       -6.6440   -4.3480   14.6610 C.ar   93  HIS93       0.1154
     59  CE1       -4.6370   -3.5200   14.3210 C.ar   93  HIS93       0.1986
     60  NE2       -5.8650   -3.2100   14.7130 N.ar   93  HIS93      -0.2212
     61  N        -11.9030   -2.5450   14.8010 N.3   116  HIS116     -0.1241
     62  CA       -11.6970   -1.3190   15.5530 C.3   116  HIS116      0.1621
     63  C        -12.3890   -0.1780   14.8580 C.2   116  HIS116      0.2264
     64  O        -11.9810    0.2190   13.7480 O.2   116  HIS116     -0.2867
     65  CB       -10.2000   -1.0010   15.6630 C.3   116  HIS116      0.0745
     66  CG        -9.4820   -1.9680   16.5530 C.ar  116  HIS116      0.0817
     67  ND1       -8.1090   -2.1030   16.5740 N.ar  116  HIS116     -0.2268
     68  CD2       -9.9650   -2.8580   17.4500 C.ar  116  HIS116      0.1154
     69  CE1       -7.7790   -3.0430   17.4480 C.ar  116  HIS116      0.1986
     70  NE2       -8.8840   -3.4960   18.0050 N.ar  116  HIS116     -0.2212
     71  N        -12.7820    3.6030   15.1510 N.3   118  VAL118     -0.1245
     72  CA       -11.9280    4.6210   15.7570 C.3   118  VAL118      0.1561
     73  C        -12.6480    5.9520   15.7990 C.2   118  VAL118      0.2260
     74  O        -13.1200    6.4490   14.7560 O.2   118  VAL118     -0.2867
     75  CB       -10.6220    4.7720   14.9690 C.3   118  VAL118      0.0252
     76  CG1       -9.7190    5.7690   15.6580 C.3   118  VAL118      0.0019
     77  CG2       -9.9350    3.4140   14.7890 C.3   118  VAL118      0.0019
     78  N         -8.2380   14.7410   14.6350 N.3   127  PHE127     -0.1241
     79  CA        -7.6500   13.4730   15.0380 C.3   127  PHE127      0.1605
     80  C         -6.2070   13.6820   15.4500 C.2   127  PHE127      0.2264
     81  O         -5.7270   13.0930   16.4300 O.2   127  PHE127     -0.2867
     82  CB        -7.7500   12.4930   13.8700 C.3   127  PHE127      0.0534
     83  CG        -7.1800   11.1370   14.1570 C.ar  127  PHE127     -0.0203
     84  CD1       -7.9060   10.1760   14.8430 C.ar  127  PHE127     -0.0042
     85  CD2       -5.8980   10.8310   13.7290 C.ar  127  PHE127     -0.0042
     86  CE1       -7.3600    8.9470   15.0840 C.ar  127  PHE127     -0.0003
     87  CE2       -5.3630    9.6270   13.9570 C.ar  127  PHE127     -0.0003
     88  CZ        -6.0790    8.6750   14.6570 C.ar  127  PHE127     -0.0000
     89  N        -12.0200    3.8210   21.0600 N.3   139  VAL139     -0.1245
     90  CA       -12.0260    2.7770   20.0390 C.3   139  VAL139      0.1561
     91  C        -12.9730    1.6860   20.5000 C.2   139  VAL139      0.2260
     92  O        -12.8190    1.1660   21.6020 O.2   139  VAL139     -0.2867
     93  CB       -10.6310    2.2240   19.7270 C.3   139  VAL139      0.0252
     94  CG1      -10.7110    1.1910   18.5810 C.3   139  VAL139      0.0019
     95  CG2       -9.6750    3.3180   19.3130 C.3   139  VAL139      0.0019
     96  N         -3.0340    3.0280   21.0560 N.3   194  LEU194     -0.1231
     97  CA        -3.0800    2.4450   19.7250 C.3   194  LEU194      0.1693
     98  C         -2.3430    1.1300   19.7630 C.2   194  LEU194      0.2593
     99  O         -1.3340    0.9860   20.4910 O.2   194  LEU194     -0.2718
    100  CB        -2.3680    3.3350   18.7070 C.3   194  LEU194      0.0284
    101  CG        -2.7660    4.8080   18.7000 C.3   194  LEU194      0.0019
    102  CD1       -1.9370    5.6250   17.7100 C.3   194  LEU194      0.0001
    103  CD2       -4.2590    4.9520   18.3580 C.3   194  LEU194      0.0001
    104  N         -2.7400    0.1790   18.9460 N.am  195  THR195     -0.1939
    105  CA        -2.0520   -1.1170   18.9150 C.3   195  THR195      0.2028
    106  C         -1.0330   -1.2070   17.7870 C.2   195  THR195      0.2642
    107  O         -0.3800   -2.2380   17.6550 O.2   195  THR195     -0.2714
    108  CB        -3.0020   -2.2950   18.7810 C.3   195  THR195      0.1808
    109  OG1       -3.6170   -2.2430   17.4850 O.3   195  THR195     -0.2208
    110  CG2       -4.1120   -2.2880   19.8750 C.3   195  THR195      0.0379
    111  N         -0.8840   -0.1270   17.0330 N.am  196  THR196     -0.1950
    112  CA         0.2030   -0.0190   16.0550 C.3   196  THR196      0.1897
    113  C          1.0170    1.2090   16.3670 C.2   196  THR196      0.2313
    114  O          0.5070    2.1520   16.9750 O.2   196  THR196     -0.2863
    115  CB        -0.3440    0.1350   14.6300 C.3   196  THR196      0.1794
    116  OG1       -1.1230    1.3230   14.5490 O.3   196  THR196     -0.2208
    117  CG2       -1.2100   -1.0180   14.2730 C.3   196  THR196      0.0378
    118  N        -10.5150    2.3080   25.5900 N.3   205  TRP205     -0.1241
    119  CA       -10.9580    1.0890   24.9100 C.3   205  TRP205      0.1605
    120  C        -12.3040    0.6760   25.4100 C.2   205  TRP205      0.2264
    121  O        -12.5320    0.6290   26.6010 O.2   205  TRP205     -0.2867
    122  CB        -9.9460   -0.0700   25.1230 C.3   205  TRP205      0.0550
    123  CG        -8.8080    0.0390   24.1450 C.ar  205  TRP205      0.0003
    124  CD1       -7.5680    0.5690   24.3630 C.ar  205  TRP205      0.0946
    125  CD2       -8.8410   -0.3540   22.7720 C.ar  205  TRP205      0.0152
    126  NE1       -6.8500    0.5640   23.1890 N.ar  205  TRP205     -0.2442
    127  CE2       -7.6060   -0.0120   22.2020 C.ar  205  TRP205      0.0810
    128  CE3       -9.8210   -0.9240   21.9600 C.ar  205  TRP205      0.0012
    129  CZ2       -7.3220   -0.2610   20.8780 C.ar  205  TRP205      0.0191
    130  CZ3       -9.5420   -1.1610   20.6540 C.ar  205  TRP205      0.0001
    131  CH2       -8.3080   -0.8490   20.1180 C.ar  205  TRP205      0.0015
@<TRIPOS>BOND
     1     1     2    1
     2     2     3    1
     3     2     5    1
     4     3     4    2
     5    27    26    2
     6    22    21    2
     7     5     6    1
     8    26    25    1
     9    24    25    1
    10    21    20    1
    11     9    10    1
    12     7     6    2
    13     6     8   am
    14    25    28    1
    15    28    29    1
    16    19    20    1
    17    19    11   am
    18    20    23    1
    19    10    11    1
    20    10    13    1
    21    29    31   am
    22    29    30    2
    23    11    12    2
    24    13    14    1
    25    16    14   ar
    26    16    18   ar
    27    14    15   ar
    28    18    17   ar
    29    36    33    1
    30    36    37    1
    31    15    17   ar
    32    45    42    1
    33    45    46    1
    34    42    41    1
    35    42    43    1
    36    33    34    1
    37    33    32    1
    38    37    38    1
    39    38    40   am
    40    38    39    2
    41    34    35    2
    42    43    44    2
    43    46    47   ar
    44    46    48   ar
    45    47    49   ar
    46    51    52    1
    47    53    52    1
    48    53    54    2
    49    48    50   ar
    50    52    55    1
    51    49    50   ar
    52    85    87   ar
    53    85    83   ar
    54    64    63    2
    55    82    83    1
    56    82    79    1
    57    87    88   ar
    58    55    56    1
    59    57    56   ar
    60    57    59   ar
    61    83    84   ar
    62    56    58   ar
    63   117   115    1
    64    59    60   ar
    65   116   115    1
    66   115   112    1
    67    78    79    1
    68    88    86   ar
    69    58    60   ar
    70    74    73    2
    71    77    75    1
    72    61    62    1
    73    84    86   ar
    74    63    62    1
    75    75    76    1
    76    75    72    1
    77    79    80    1
    78    71    72    1
    79    80    81    2
    80    62    65    1
    81    65    66    1
    82    72    73    1
    83   112   113    1
    84   112   111    1
    85   113   114    2
    86    66    67   ar
    87    66    68   ar
    88    67    69   ar
    89   111   106   am
    90    69    70   ar
    91    68    70   ar
    92   109   108    1
    93   107   106    2
    94   102   101    1
    95   106   105    1
    96   103   101    1
    97    94    93    1
    98   101   100    1
    99   100    97    1
   100   108   105    1
   101   108   110    1
   102   105   104    1
   103   104    98   am
   104    95    93    1
   105    97    98    1
   106    97    96    1
   107    93    90    1
   108    98    99    2
   109    90    91    1
   110    90    89    1
   111   131   130   ar
   112   131   129   ar
   113    91    92    2
   114   130   128   ar
   115   129   127   ar
   116   128   125   ar
   117   127   125   ar
   118   127   126   ar
   119   125   123   ar
   120   126   124   ar
   121   123   124   ar
   122   123   122    1
   123   119   122    1
   124   119   120    1
   125   119   118    1
   126   120   121    2
