@<TRIPOS>MOLECULE
tmp/3p5aA00.pdb
 124 123 0 0 0
SMALL
GASTEIGER

@<TRIPOS>ATOM
      1  N         -0.6660   -1.9570    6.2750 N.3    61  HIS61      -0.1241
      2  CA        -0.7590   -2.8100    7.4700 C.3    61  HIS61       0.1621
      3  C         -2.1790   -3.2890    7.7510 C.2    61  HIS61       0.2264
      4  O         -2.3430   -4.3060    8.4000 O.2    61  HIS61      -0.2867
      5  CB        -0.0810   -2.2540    8.7220 C.3    61  HIS61       0.0745
      6  CG        -0.5040   -0.8810    9.0970 C.ar   61  HIS61       0.0817
      7  ND1       -1.5040   -0.6330   10.0120 N.ar   61  HIS61      -0.2268
      8  CD2       -0.0170    0.3290    8.7320 C.ar   61  HIS61       0.1154
      9  CE1       -1.6370    0.6730   10.1660 C.ar   61  HIS61       0.1986
     10  NE2       -0.7580    1.2760    9.3920 N.ar   61  HIS61      -0.2212
     11  N        -12.6620    6.3590   11.3050 N.3    89  GLN89      -0.1245
     12  CA       -12.4000    5.2100   10.4340 C.3    89  GLN89       0.1566
     13  C        -12.6210    3.9420   11.2160 C.2    89  GLN89       0.2260
     14  O        -12.6440    3.9720   12.4480 O.2    89  GLN89      -0.2867
     15  CB       -10.9600    5.1990    9.8810 C.3    89  GLN89       0.0367
     16  CG        -9.8330    5.2600   10.9420 C.3    89  GLN89       0.0905
     17  CD        -9.1100    3.9600   11.1210 C.2    89  GLN89       0.2608
     18  OE1       -9.7140    2.8990   11.2220 O.2    89  GLN89      -0.2717
     19  NE2       -7.7890    4.0340   11.1900 N.am   89  GLN89      -0.0878
     20  N        -11.1670   -0.3230   10.9750 N.3    91  HIS91      -0.1241
     21  CA       -10.2700   -1.2920   10.3670 C.3    91  HIS91       0.1621
     22  C        -10.3430   -2.5450   11.2080 C.2    91  HIS91       0.2264
     23  O        -10.9810   -2.5770   12.2560 O.2    91  HIS91      -0.2867
     24  CB        -8.8100   -0.7910   10.3130 C.3    91  HIS91       0.0745
     25  CG        -8.2690   -0.5230   11.6680 C.ar   91  HIS91       0.0817
     26  ND1       -8.4920    0.6750   12.3060 N.ar   91  HIS91      -0.2268
     27  CD2       -7.6610   -1.3280   12.5750 C.ar   91  HIS91       0.1154
     28  CE1       -8.0080    0.6120   13.5320 C.ar   91  HIS91       0.1986
     29  NE2       -7.4990   -0.6000   13.7160 N.ar   91  HIS91      -0.2212
     30  N         -7.9760   -6.2610   12.5260 N.3    93  HIS93      -0.1241
     31  CA        -6.7580   -7.0180   12.7140 C.3    93  HIS93       0.1621
     32  C         -7.1810   -8.4830   12.5880 C.2    93  HIS93       0.2264
     33  O         -8.2490   -8.8640   13.1180 O.2    93  HIS93      -0.2867
     34  CB        -6.1740   -6.7670   14.0790 C.3    93  HIS93       0.0745
     35  CG        -5.8770   -5.3210   14.3600 C.ar   93  HIS93       0.0817
     36  ND1       -4.6050   -4.7760   14.2540 N.ar   93  HIS93      -0.2268
     37  CD2       -6.6950   -4.3010   14.7180 C.ar   93  HIS93       0.1154
     38  CE1       -4.6570   -3.4900   14.5700 C.ar   93  HIS93       0.1986
     39  NE2       -5.9140   -3.1750   14.8530 N.ar   93  HIS93      -0.2212
     40  N        -11.9220   -2.5400   14.9100 N.3   116  HIS116     -0.1241
     41  CA       -11.7000   -1.2940   15.6500 C.3   116  HIS116      0.1621
     42  C        -12.3980   -0.1420   14.9900 C.2   116  HIS116      0.2264
     43  O        -12.0250    0.2260   13.8860 O.2   116  HIS116     -0.2867
     44  CB       -10.1920   -0.9830   15.7640 C.3   116  HIS116      0.0745
     45  CG        -9.4810   -1.9400   16.6520 C.ar  116  HIS116      0.0817
     46  ND1       -8.1140   -2.0940   16.6400 N.ar  116  HIS116     -0.2268
     47  CD2       -9.9610   -2.8070   17.5690 C.ar  116  HIS116      0.1154
     48  CE1       -7.7830   -3.0140   17.5220 C.ar  116  HIS116      0.1986
     49  NE2       -8.8810   -3.4570   18.1050 N.ar  116  HIS116     -0.2212
     50  N        -12.7780    3.6180   15.3000 N.3   118  VAL118     -0.1245
     51  CA       -11.9140    4.6430   15.9040 C.3   118  VAL118      0.1561
     52  C        -12.6440    5.9740   15.9740 C.2   118  VAL118      0.2260
     53  O        -13.1410    6.4580   14.9540 O.2   118  VAL118     -0.2867
     54  CB       -10.6530    4.8170   15.0740 C.3   118  VAL118      0.0252
     55  CG1       -9.7400    5.8240   15.7600 C.3   118  VAL118      0.0019
     56  CG2       -9.9340    3.4630   14.8310 C.3   118  VAL118      0.0019
     57  N         -8.1590   14.8680   14.7850 N.3   127  PHE127     -0.1241
     58  CA        -7.5780   13.5930   15.2050 C.3   127  PHE127      0.1605
     59  C         -6.1200   13.7540   15.6070 C.2   127  PHE127      0.2264
     60  O         -5.7040   13.1480   16.5900 O.2   127  PHE127     -0.2867
     61  CB        -7.7270   12.5650   14.0770 C.3   127  PHE127      0.0534
     62  CG        -7.1170   11.2360   14.3630 C.ar  127  PHE127     -0.0203
     63  CD1       -7.8220   10.2210   15.0260 C.ar  127  PHE127     -0.0042
     64  CD2       -5.8200   10.9850   13.9560 C.ar  127  PHE127     -0.0042
     65  CE1       -7.2350    9.0120   15.2740 C.ar  127  PHE127     -0.0003
     66  CE2       -5.2290    9.7700   14.1940 C.ar  127  PHE127     -0.0003
     67  CZ        -5.9490    8.7690   14.8680 C.ar  127  PHE127     -0.0000
     68  N        -11.9510    3.8360   21.2170 N.3   139  VAL139     -0.1245
     69  CA       -12.0040    2.7880   20.1930 C.3   139  VAL139      0.1561
     70  C        -12.9560    1.7050   20.6560 C.2   139  VAL139      0.2260
     71  O        -12.8230    1.1710   21.7600 O.2   139  VAL139     -0.2867
     72  CB       -10.6130    2.2070   19.8750 C.3   139  VAL139      0.0252
     73  CG1      -10.7030    1.1950   18.7580 C.3   139  VAL139      0.0019
     74  CG2       -9.6650    3.2890   19.4430 C.3   139  VAL139      0.0019
     75  N         -3.0050    3.0460   21.2730 N.3   194  LEU194     -0.1231
     76  CA        -3.0090    2.4930   19.9300 C.3   194  LEU194      0.1693
     77  C         -2.2640    1.1850   19.9480 C.2   194  LEU194      0.2593
     78  O         -1.2570    1.0320   20.6920 O.2   194  LEU194     -0.2718
     79  CB        -2.3120    3.4070   18.9350 C.3   194  LEU194      0.0284
     80  CG        -2.7630    4.8620   18.9090 C.3   194  LEU194      0.0019
     81  CD1       -1.9520    5.6930   17.9350 C.3   194  LEU194      0.0001
     82  CD2       -4.2260    4.9000   18.5750 C.3   194  LEU194      0.0001
     83  N         -2.6800    0.2340   19.1310 N.am  195  THR195     -0.1939
     84  CA        -1.9890   -1.0420   19.0880 C.3   195  THR195      0.2028
     85  C         -0.9970   -1.1200   17.9430 C.2   195  THR195      0.2643
     86  O         -0.3850   -2.1540   17.7540 O.2   195  THR195     -0.2714
     87  CB        -2.9580   -2.2000   18.9550 C.3   195  THR195      0.1808
     88  OG1       -3.6490   -2.0720   17.7040 O.3   195  THR195     -0.2208
     89  CG2       -3.9480   -2.2340   20.1550 C.3   195  THR195      0.0379
     90  N         -0.8560   -0.0530   17.1700 N.am  196  THR196     -0.1937
     91  CA         0.2160    0.0760   16.1800 C.3   196  THR196      0.2013
     92  C          1.0430    1.2880   16.5200 C.2   196  THR196      0.2484
     93  O          0.5620    2.2350   17.1280 O.2   196  THR196     -0.2729
     94  CB        -0.3060    0.3100   14.7640 C.3   196  THR196      0.1807
     95  OG1       -1.0390    1.5400   14.7270 O.3   196  THR196     -0.2208
     96  CG2       -1.2000   -0.7990   14.3290 C.3   196  THR196      0.0379
     97  N          2.3160    1.2850   16.0950 N.am  197  PRO197     -0.2715
     98  CA         3.0650    2.5260   16.1810 C.3   197  PRO197      0.1521
     99  C          2.2500    3.6940   15.6300 C.2   197  PRO197      0.2440
    100  O          1.5390    3.5380   14.6240 O.2   197  PRO197     -0.2731
    101  CB         4.3020    2.2040   15.3090 C.3   197  PRO197      0.0310
    102  CG         4.5200    0.7380   15.5100 C.3   197  PRO197      0.0237
    103  CD         3.0880    0.2030   15.4580 C.3   197  PRO197      0.0939
    104  N          2.3100    4.8530   16.2760 N.am  198  PRO198     -0.2727
    105  CA         3.2060    5.2680   17.3700 C.3   198  PRO198      0.1402
    106  C          2.8400    4.8250   18.8000 C.2   198  PRO198      0.2269
    107  O          3.4580    5.2860   19.7400 O.2   198  PRO198     -0.2865
    108  CB         3.1660    6.7930   17.2730 C.3   198  PRO198      0.0296
    109  CG         1.7880    7.0950   16.7380 C.3   198  PRO198      0.0237
    110  CD         1.4850    5.9770   15.7700 C.3   198  PRO198      0.0939
    111  N        -10.4660    2.2800   25.7250 N.3   205  TRP205     -0.1241
    112  CA       -10.9400    1.0820   25.0540 C.3   205  TRP205      0.1605
    113  C        -12.3120    0.6800   25.5660 C.2   205  TRP205      0.2264
    114  O        -12.5450    0.6280   26.7580 O.2   205  TRP205     -0.2867
    115  CB        -9.9420   -0.0710   25.2810 C.3   205  TRP205      0.0550
    116  CG        -8.8290    0.0230   24.3070 C.ar  205  TRP205      0.0003
    117  CD1       -7.5770    0.5650   24.5120 C.ar  205  TRP205      0.0946
    118  CD2       -8.8690   -0.3770   22.9310 C.ar  205  TRP205      0.0152
    119  NE1       -6.8660    0.5380   23.3490 N.ar  205  TRP205     -0.2442
    120  CE2       -7.6180   -0.0480   22.3600 C.ar  205  TRP205      0.0810
    121  CE3       -9.8520   -0.9650   22.1180 C.ar  205  TRP205      0.0012
    122  CZ2       -7.3320   -0.2720   21.0350 C.ar  205  TRP205      0.0191
    123  CZ3       -9.5610   -1.2130   20.8110 C.ar  205  TRP205      0.0001
    124  CH2       -8.3010   -0.8770   20.2680 C.ar  205  TRP205      0.0015
@<TRIPOS>BOND
     1     1     2    1
     2     2     3    1
     3     2     5    1
     4     3     4    2
     5     5     6    1
     6     8     6   ar
     7     8    10   ar
     8     6     7   ar
     9    10     9   ar
    10    15    12    1
    11    15    16    1
    12     7     9   ar
    13    24    21    1
    14    24    25    1
    15    21    20    1
    16    21    22    1
    17    12    13    1
    18    12    11    1
    19    16    17    1
    20    17    19   am
    21    17    18    2
    22    22    23    2
    23    13    14    2
    24    25    26   ar
    25    25    27   ar
    26    26    28   ar
    27    30    31    1
    28    27    29   ar
    29    32    31    1
    30    32    33    2
    31    31    34    1
    32    28    29   ar
    33    43    42    2
    34    64    66   ar
    35    64    62   ar
    36    61    62    1
    37    61    58    1
    38    34    35    1
    39    66    67   ar
    40    36    35   ar
    41    36    38   ar
    42    96    94    1
    43    35    37   ar
    44    62    63   ar
    45    38    39   ar
    46   100    99    2
    47    37    39   ar
    48    95    94    1
    49    94    91    1
    50    57    58    1
    51    56    54    1
    52    67    65   ar
    53    40    41    1
    54    53    52    2
    55    42    41    1
    56    63    65   ar
    57    54    55    1
    58    54    51    1
    59    58    59    1
    60    50    51    1
    61   101   102    1
    62   101    98    1
    63   103   102    1
    64   103    97    1
    65    59    60    2
    66    99    98    1
    67    99   104   am
    68    41    44    1
    69    44    45    1
    70   110   104    1
    71   110   109    1
    72    51    52    1
    73    97    98    1
    74    97    92   am
    75    91    92    1
    76    91    90    1
    77   104   105    1
    78    92    93    2
    79    46    45   ar
    80    46    48   ar
    81    45    47   ar
    82   109   108    1
    83    90    85   am
    84   108   105    1
    85   105   106    1
    86    48    49   ar
    87    47    49   ar
    88    88    87    1
    89    86    85    2
    90    81    80    1
    91    85    84    1
    92    82    80    1
    93    73    72    1
    94   106   107    2
    95    80    79    1
    96    79    76    1
    97    87    84    1
    98    87    89    1
    99    84    83    1
   100    83    77   am
   101    74    72    1
   102    72    69    1
   103    76    77    1
   104    76    75    1
   105    77    78    2
   106    69    70    1
   107    69    68    1
   108   124   123   ar
   109   124   122   ar
   110    70    71    2
   111   123   121   ar
   112   122   120   ar
   113   121   118   ar
   114   120   118   ar
   115   120   119   ar
   116   118   116   ar
   117   119   117   ar
   118   116   117   ar
   119   116   115    1
   120   112   115    1
   121   112   113    1
   122   112   111    1
   123   113   114    2
