@<TRIPOS>MOLECULE
tmp/3p5eA00.pdb
 77 71 0 0 0
SMALL
GASTEIGER

@<TRIPOS>ATOM
      1  N         34.3250   35.4280    3.4280 N.3    88  GLU88      -0.1245
      2  CA        33.6610   35.1150    4.6830 C.3    88  GLU88       0.1567
      3  C         33.7510   33.6180    4.9430 C.2    88  GLU88       0.2260
      4  O         33.9030   32.8360    4.0080 O.2    88  GLU88      -0.2867
      5  CB        32.1850   35.5340    4.6380 C.3    88  GLU88       0.0388
      6  CG        31.9170   36.9360    4.0870 C.3    88  GLU88       0.1160
      7  CD        32.4510   38.0520    4.9650 C.2    88  GLU88       0.3649
      8  OE1       32.7850   37.8030    6.1380 O.co2  88  GLU88      -0.2457
      9  OE2       32.5380   39.2000    4.4740 O.co2  88  GLU88      -0.2457
     10  N         34.9200   36.0110    8.0480 N.3    90  ASN90      -0.1240
     11  CA        36.1810   36.7060    8.2860 C.3    90  ASN90       0.1653
     12  C         36.3860   37.1580    9.7270 C.2    90  ASN90       0.2266
     13  O         37.4650   37.6210   10.0910 O.2    90  ASN90      -0.2867
     14  CB        36.3590   37.8790    7.3130 C.3    90  ASN90       0.1155
     15  CG        35.3310   38.9800    7.5120 C.2    90  ASN90       0.2627
     16  OD1       34.4640   38.9050    8.3900 O.2    90  ASN90      -0.2716
     17  ND2       35.4350   40.0230    6.6950 N.am   90  ASN90      -0.0877
     18  N         35.1490   39.7960   11.7580 N.3    92  ALA92      -0.1245
     19  CA        35.5470   41.2020   11.8650 C.3    92  ALA92       0.1562
     20  C         35.5000   41.7310   13.2940 C.2    92  ALA92       0.2260
     21  O         34.5560   41.4660   14.0410 O.2    92  ALA92      -0.2867
     22  CB        34.6860   42.0650   10.9550 C.3    92  ALA92       0.0290
     23  N         32.2410   38.5290   15.2960 N.3    96  GLU96      -0.1245
     24  CA        31.1750   38.0890   14.3980 C.3    96  GLU96       0.1567
     25  C         30.9260   36.6010   14.5610 C.2    96  GLU96       0.2260
     26  O         31.5510   35.7610   13.8890 O.2    96  GLU96      -0.2867
     27  CB        31.5090   38.4290   12.9580 C.3    96  GLU96       0.0388
     28  CG        31.8360   39.8940   12.7740 C.3    96  GLU96       0.1160
     29  CD        31.8540   40.3070   11.3280 C.2    96  GLU96       0.3649
     30  OE1       32.4160   39.5750   10.4790 O.co2  96  GLU96      -0.2457
     31  OE2       31.2840   41.3820   11.0340 O.co2  96  GLU96      -0.2457
     32  N         23.1500   37.4590    3.1840 N.3   102  LYS102     -0.1245
     33  CA        23.4210   38.8550    2.8170 C.3   102  LYS102      0.1561
     34  C         23.3570   39.0850    1.3010 C.2   102  LYS102      0.2260
     35  O         22.6440   39.9730    0.8350 O.2   102  LYS102     -0.2867
     36  CB        24.7780   39.2760    3.3780 C.3   102  LYS102      0.0271
     37  CG        25.2970   40.6330    2.9000 C.3   102  LYS102      0.0035
     38  CD        26.5580   40.9820    3.6780 C.3   102  LYS102      0.0206
     39  CE        27.1940   42.2890    3.2090 C.3   102  LYS102      0.1093
     40  NZ        28.3720   42.6250    4.0720 N.3   102  LYS102     -0.1314
     41  N         27.2150   35.8770    5.3040 N.3   110  ASN110     -0.1225
     42  CA        28.2160   36.6790    5.9920 C.3   110  ASN110      0.1785
     43  C         28.1590   36.4190    7.4870 C.2   110  ASN110      0.2597
     44  O         27.0740   36.2010    8.0450 O.2   110  ASN110     -0.2718
     45  CB        27.9870   38.1720    5.7330 C.3   110  ASN110      0.1169
     46  CG        28.9680   39.0500    6.4980 C.2   110  ASN110      0.2627
     47  OD1       30.1610   38.7400    6.5680 O.2   110  ASN110     -0.2716
     48  ND2       28.4700   40.1240    7.1100 N.am  110  ASN110     -0.0877
     49  N         29.3120   36.4370    8.1510 N.am  111  ASP111     -0.1960
     50  CA        29.3220   36.4710    9.6020 C.3   111  ASP111      0.1840
     51  C         29.2810   37.9340   10.0650 C.2   111  ASP111      0.2622
     52  O         29.9810   38.7930    9.5210 O.2   111  ASP111     -0.2715
     53  CB        30.4870   35.6610   10.2280 C.3   111  ASP111      0.1450
     54  CG        31.8770   36.1810    9.8430 C.2   111  ASP111      0.3671
     55  OD1       32.0350   36.7820    8.7730 O.co2 111  ASP111     -0.2456
     56  OD2       32.8330   35.9250   10.6160 O.co2 111  ASP111     -0.2456
     57  N         28.4070   38.2080   11.0220 N.am  112  ALA112     -0.1964
     58  CA        28.1770   39.5660   11.5190 C.3   112  ALA112      0.1713
     59  C         28.0270   39.5420   13.0370 C.2   112  ALA112      0.2458
     60  O         27.8040   38.4910   13.6220 O.2   112  ALA112     -0.2730
     61  CB        26.9330   40.1600   10.8670 C.3   112  ALA112      0.0333
     62  N         28.1730   40.7020   13.6900 N.am  113  PRO113     -0.2727
     63  CA        28.0400   40.7440   15.1470 C.3   113  PRO113      0.1402
     64  C         26.6290   40.3450   15.5790 C.2   113  PRO113      0.2269
     65  O         25.6330   40.8390   15.0380 O.2   113  PRO113     -0.2865
     66  CB        28.3260   42.2160   15.4900 C.3   113  PRO113      0.0296
     67  CG        29.1280   42.7210   14.3220 C.3   113  PRO113      0.0237
     68  CD        28.5820   42.0010   13.1260 C.3   113  PRO113      0.0939
     69  N         23.8080   42.9950   16.1910 N.3   116  LYS116     -0.1245
     70  CA        23.2390   43.7860   15.1100 C.3   116  LYS116      0.1561
     71  C         21.7970   43.3480   14.8580 C.2   116  LYS116      0.2260
     72  O         21.4610   42.1760   15.0310 O.2   116  LYS116     -0.2867
     73  CB        24.0810   43.6250   13.8500 C.3   116  LYS116      0.0271
     74  CG        23.9200   44.7730   12.8650 C.3   116  LYS116      0.0035
     75  CD        25.2000   45.0270   12.0870 C.3   116  LYS116      0.0206
     76  CE        24.9680   46.0320   10.9620 C.3   116  LYS116      0.1093
     77  NZ        26.1630   46.1700   10.0810 N.3   116  LYS116     -0.1314
@<TRIPOS>BOND
     1    35    34    2
     2    34    33    1
     3    33    32    1
     4    33    36    1
     5    37    36    1
     6    37    38    1
     7    39    38    1
     8    39    40    1
     9     1     2    1
    10     4     3    2
    11     6     5    1
    12     6     7    1
    13     9     7   ar
    14     5     2    1
    15     2     3    1
    16     7     8   ar
    17    41    42    1
    18    45    42    1
    19    45    46    1
    20    42    43    1
    21    46    47    2
    22    46    48   am
    23    17    15   am
    24    14    15    1
    25    14    11    1
    26    43    44    2
    27    43    49   am
    28    15    16    2
    29    10    11    1
    30    49    50    1
    31    11    12    1
    32    55    54   ar
    33    52    51    2
    34    50    51    1
    35    50    53    1
    36    12    13    2
    37    54    53    1
    38    54    56   ar
    39    51    57   am
    40    77    76    1
    41    30    29   ar
    42    61    58    1
    43    22    19    1
    44    76    75    1
    45    57    58    1
    46    31    29   ar
    47    29    28    1
    48    58    59    1
    49    18    19    1
    50    19    20    1
    51    75    74    1
    52    28    27    1
    53    74    73    1
    54    27    24    1
    55    59    60    2
    56    59    62   am
    57    68    62    1
    58    68    67    1
    59    20    21    2
    60    62    63    1
    61    73    70    1
    62    26    25    2
    63    67    66    1
    64    24    25    1
    65    24    23    1
    66    71    72    2
    67    71    70    1
    68    65    64    2
    69    70    69    1
    70    63    66    1
    71    63    64    1
