@<TRIPOS>MOLECULE
tmp/3p5fB00.pdb
 77 71 0 0 0
SMALL
GASTEIGER

@<TRIPOS>ATOM
      1  N         34.0280    0.5780   41.2130 N.3    88  GLU88      -0.1245
      2  CA        33.3140    0.9590   39.9990 C.3    88  GLU88       0.1567
      3  C         33.5920    2.4210   39.6750 C.2    88  GLU88       0.2260
      4  O         33.8700    3.2100   40.5740 O.2    88  GLU88      -0.2867
      5  CB        31.8050    0.7510   40.1840 C.3    88  GLU88       0.0388
      6  CG        31.4420   -0.6030   40.8070 C.3    88  GLU88       0.1160
      7  CD        31.7630   -1.7860   39.9170 C.2    88  GLU88       0.3649
      8  OE1       32.0360   -1.5830   38.7200 O.co2  88  GLU88      -0.2457
      9  OE2       31.7240   -2.9390   40.4140 O.co2  88  GLU88      -0.2457
     10  N         34.1810   -0.1690   36.5870 N.3    90  ASN90      -0.1240
     11  CA        35.3150   -1.0480   36.2990 C.3    90  ASN90       0.1653
     12  C         35.3600   -1.5660   34.8530 C.2    90  ASN90       0.2266
     13  O         36.2950   -2.2700   34.4770 O.2    90  ASN90      -0.2867
     14  CB        35.3760   -2.2070   37.3110 C.3    90  ASN90       0.1155
     15  CG        34.2430   -3.2050   37.1280 C.2    90  ASN90       0.2627
     16  OD1       33.3120   -2.9570   36.3740 O.2    90  ASN90      -0.2716
     17  ND2       34.3270   -4.3450   37.8130 N.am   90  ASN90      -0.0877
     18  N         33.9780   -3.9300   33.1820 N.3    92  ALA92      -0.1245
     19  CA        34.2120   -5.3690   33.0600 C.3    92  ALA92       0.1562
     20  C         34.0350   -5.8360   31.6210 C.2    92  ALA92       0.2260
     21  O         33.0680   -5.4750   30.9570 O.2    92  ALA92      -0.2867
     22  CB        33.2870   -6.1340   33.9870 C.3    92  ALA92       0.0290
     23  N         30.9960   -2.2430   29.5300 N.3    96  GLU96      -0.1245
     24  CA        30.0150   -1.6890   30.4610 C.3    96  GLU96       0.1567
     25  C         29.8930   -0.1780   30.2850 C.2    96  GLU96       0.2260
     26  O         30.6300    0.5910   30.8920 O.2    96  GLU96      -0.2867
     27  CB        30.3610   -2.0690   31.9030 C.3    96  GLU96       0.0388
     28  CG        30.3740   -3.5710   32.1160 C.3    96  GLU96       0.1160
     29  CD        30.4140   -3.9650   33.5780 C.2    96  GLU96       0.3649
     30  OE1       31.1450   -3.3190   34.3670 O.co2  96  GLU96      -0.2457
     31  OE2       29.6950   -4.9220   33.9350 O.co2  96  GLU96      -0.2457
     32  N         22.6130   -0.0410   42.2290 N.3   102  LYS102     -0.1245
     33  CA        22.7890   -1.4420   42.5880 C.3   102  LYS102      0.1561
     34  C         22.7820   -1.6490   44.1090 C.2   102  LYS102      0.2260
     35  O         21.9370   -2.3720   44.6490 O.2   102  LYS102     -0.2867
     36  CB        24.0890   -1.9720   41.9640 C.3   102  LYS102      0.0271
     37  CG        24.4900   -3.3720   42.4310 C.3   102  LYS102      0.0035
     38  CD        25.6760   -3.8970   41.6400 C.3   102  LYS102      0.0206
     39  CE        26.2140   -5.1900   42.2400 C.3   102  LYS102      0.1093
     40  NZ        27.3820   -5.6980   41.4730 N.3   102  LYS102     -0.1314
     41  N         26.7720    1.1160   39.7410 N.3   110  ASN110     -0.1225
     42  CA        27.6270    0.1850   39.0390 C.3   110  ASN110      0.1785
     43  C         27.4940    0.3880   37.5340 C.2   110  ASN110      0.2597
     44  O         26.3980    0.6600   37.0270 O.2   110  ASN110     -0.2718
     45  CB        27.2420   -1.2470   39.4010 C.3   110  ASN110      0.1169
     46  CG        27.9960   -2.2630   38.5850 C.2   110  ASN110      0.2627
     47  OD1       29.2040   -2.1470   38.4040 O.2   110  ASN110     -0.2716
     48  ND2       27.2830   -3.2550   38.0750 N.am  110  ASN110     -0.0877
     49  N         28.6070    0.2630   36.8130 N.am  111  ASP111     -0.1960
     50  CA        28.5280    0.2260   35.3630 C.3   111  ASP111      0.1840
     51  C         28.2680   -1.2060   34.9150 C.2   111  ASP111      0.2622
     52  O         28.8470   -2.1700   35.4540 O.2   111  ASP111     -0.2715
     53  CB        29.7730    0.8400   34.6830 C.3   111  ASP111      0.1450
     54  CG        31.0720    0.1330   35.0530 C.2   111  ASP111      0.3671
     55  OD1       31.1800   -0.4260   36.1640 O.co2 111  ASP111     -0.2456
     56  OD2       32.0030    0.1810   34.2260 O.co2 111  ASP111     -0.2456
     57  N         27.3670   -1.3380   33.9510 N.am  112  ALA112     -0.1964
     58  CA        26.9200   -2.6350   33.4750 C.3   112  ALA112      0.1713
     59  C         26.6530   -2.6050   31.9750 C.2   112  ALA112      0.2458
     60  O         26.5100   -1.5360   31.3830 O.2   112  ALA112     -0.2730
     61  CB        25.6750   -3.0960   34.2640 C.3   112  ALA112      0.0333
     62  N         26.6160   -3.7760   31.3400 N.am  113  PRO113     -0.2727
     63  CA        26.4250   -3.7970   29.8840 C.3   113  PRO113      0.1402
     64  C         25.0630   -3.2170   29.5030 C.2   113  PRO113      0.2269
     65  O         24.0540   -3.5860   30.1060 O.2   113  PRO113     -0.2865
     66  CB        26.5010   -5.2880   29.5460 C.3   113  PRO113      0.0296
     67  CG        27.3350   -5.8740   30.6640 C.3   113  PRO113      0.0237
     68  CD        26.8700   -5.1240   31.8820 C.3   113  PRO113      0.0939
     69  N         21.9160   -5.4230   29.0490 N.3   116  LYS116     -0.1245
     70  CA        21.3380   -6.2140   30.1420 C.3   116  LYS116      0.1561
     71  C         19.9870   -5.6100   30.5120 C.2   116  LYS116      0.2260
     72  O         19.7910   -4.4040   30.3790 O.2   116  LYS116     -0.2867
     73  CB        22.2820   -6.2520   31.3420 C.3   116  LYS116      0.0271
     74  CG        22.0680   -7.4350   32.2800 C.3   116  LYS116      0.0035
     75  CD        23.2830   -7.6500   33.1780 C.3   116  LYS116      0.0206
     76  CE        22.9710   -8.5710   34.3570 C.3   116  LYS116      0.1093
     77  NZ        22.6120   -9.9520   33.9400 N.3   116  LYS116     -0.1314
@<TRIPOS>BOND
     1    69    70    1
     2    64    63    1
     3    64    65    2
     4    23    24    1
     5    66    63    1
     6    66    67    1
     7    63    62    1
     8    70    71    1
     9    70    73    1
    10    25    24    1
    11    25    26    2
    12    72    71    2
    13    24    27    1
    14    67    68    1
    15    21    20    2
    16    62    68    1
    17    62    59   am
    18    73    74    1
    19    60    59    2
    20    20    19    1
    21    27    28    1
    22    59    58    1
    23    28    29    1
    24    74    75    1
    25    19    18    1
    26    19    22    1
    27    75    76    1
    28    58    57    1
    29    58    61    1
    30    29    31   ar
    31    29    30   ar
    32    77    76    1
    33    57    51   am
    34    56    54   ar
    35    13    12    2
    36    53    54    1
    37    53    50    1
    38    12    11    1
    39    51    50    1
    40    51    52    2
    41    54    55   ar
    42    50    49    1
    43    11    10    1
    44    11    14    1
    45    16    15    2
    46    49    43   am
    47    44    43    2
    48    15    14    1
    49    15    17   am
    50    43    42    1
    51    48    46   am
    52    47    46    2
    53    46    45    1
    54     8     7   ar
    55    42    45    1
    56    42    41    1
    57     3     2    1
    58     3     4    2
    59     7     9   ar
    60     7     6    1
    61     2     5    1
    62     2     1    1
    63     5     6    1
    64    40    39    1
    65    38    39    1
    66    38    37    1
    67    36    37    1
    68    36    33    1
    69    32    33    1
    70    33    34    1
    71    34    35    2
