@<TRIPOS>MOLECULE
tmp/3p5gB00.pdb
 87 83 0 0 0
SMALL
GASTEIGER

@<TRIPOS>ATOM
      1  N         29.8760    2.3460   43.2850 N.3    85  ILE85      -0.1231
      2  CA        30.3570    1.2480   44.1270 C.3    85  ILE85       0.1678
      3  C         31.8730    1.2390   43.9850 C.2    85  ILE85       0.2434
      4  O         32.3860    1.3910   42.8780 O.2    85  ILE85      -0.2733
      5  CB        29.8150   -0.1020   43.6450 C.3    85  ILE85       0.0265
      6  CG1       28.3180   -0.2360   43.9600 C.3    85  ILE85       0.0019
      7  CG2       30.5880   -1.2520   44.2990 C.3    85  ILE85       0.0020
      8  CD1       27.6060   -1.2520   43.0920 C.3    85  ILE85       0.0001
      9  N         32.5970    1.0670   45.1020 N.am   86  PRO86      -0.2718
     10  CA        34.0630    1.0110   45.0340 C.3    86  PRO86       0.1535
     11  C         34.5390    0.0080   43.9920 C.2    86  PRO86       0.2599
     12  O         34.0940   -1.1420   43.9770 O.2    86  PRO86      -0.2715
     13  CB        34.4580    0.5520   46.4390 C.3    86  PRO86       0.0310
     14  CG        33.3630    1.0620   47.3160 C.3    86  PRO86       0.0237
     15  CD        32.1000    0.9610   46.4860 C.3    86  PRO86       0.0939
     16  N         35.4430    0.4450   43.1210 N.am   87  GLY87      -0.1941
     17  CA        35.9390   -0.4070   42.0560 C.3    87  GLY87       0.2014
     18  C         35.2200   -0.2010   40.7360 C.2    87  GLY87       0.2638
     19  O         35.6720   -0.6660   39.6870 O.2    87  GLY87      -0.2714
     20  N         34.0840    0.4860   40.7910 N.am   88  GLU88      -0.1977
     21  CA        33.3390    0.8270   39.5930 C.3    88  GLU88       0.1602
     22  C         33.5780    2.2920   39.2430 C.2    88  GLU88       0.2287
     23  O         33.8440    3.1120   40.1240 O.2    88  GLU88      -0.2864
     24  CB        31.8440    0.5800   39.8120 C.3    88  GLU88       0.0415
     25  CG        31.5420   -0.8210   40.3650 C.3    88  GLU88       0.1163
     26  CD        31.7730   -1.9500   39.3710 C.2    88  GLU88       0.3649
     27  OE1       32.0580   -1.7050   38.1760 O.co2  88  GLU88      -0.2457
     28  OE2       31.6540   -3.1250   39.7890 O.co2  88  GLU88      -0.2457
     29  N         34.1460   -0.4120   36.1940 N.3    90  ASN90      -0.1240
     30  CA        35.2610   -1.3070   35.8660 C.3    90  ASN90       0.1653
     31  C         35.3070   -1.7820   34.4050 C.2    90  ASN90       0.2266
     32  O         36.2320   -2.4930   34.0110 O.2    90  ASN90      -0.2867
     33  CB        35.3170   -2.4950   36.8450 C.3    90  ASN90       0.1155
     34  CG        34.1800   -3.4800   36.6430 C.2    90  ASN90       0.2627
     35  OD1       33.2060   -3.1790   35.9630 O.2    90  ASN90      -0.2716
     36  ND2       34.3020   -4.6700   37.2330 N.am   90  ASN90      -0.0877
     37  N         33.8260   -4.1000   32.7010 N.3    92  ALA92      -0.1245
     38  CA        34.0350   -5.5420   32.5810 C.3    92  ALA92       0.1562
     39  C         33.8770   -6.0010   31.1410 C.2    92  ALA92       0.2260
     40  O         32.9270   -5.6260   30.4640 O.2    92  ALA92      -0.2867
     41  CB        33.0780   -6.2960   33.4840 C.3    92  ALA92       0.0290
     42  N         30.9110   -2.3590   29.0660 N.3    96  GLU96      -0.1245
     43  CA        29.9590   -1.7850   30.0270 C.3    96  GLU96       0.1567
     44  C         29.8250   -0.2750   29.8800 C.2    96  GLU96       0.2260
     45  O         30.5370    0.4850   30.5220 O.2    96  GLU96      -0.2867
     46  CB        30.3430   -2.1600   31.4560 C.3    96  GLU96       0.0388
     47  CG        30.3310   -3.6640   31.6900 C.3    96  GLU96       0.1160
     48  CD        30.3730   -4.0430   33.1530 C.2    96  GLU96       0.3649
     49  OE1       31.1070   -3.4000   33.9290 O.co2  96  GLU96      -0.2457
     50  OE2       29.6490   -4.9920   33.5230 O.co2  96  GLU96      -0.2457
     51  N         22.7450   -0.1840   41.7670 N.3   102  LYS102     -0.1245
     52  CA        22.8990   -1.5930   42.1220 C.3   102  LYS102      0.1561
     53  C         22.8470   -1.8340   43.6280 C.2   102  LYS102      0.2260
     54  O         22.0160   -2.6120   44.1050 O.2   102  LYS102     -0.2867
     55  CB        24.2060   -2.1400   41.5430 C.3   102  LYS102      0.0271
     56  CG        24.5400   -3.5500   41.9850 C.3   102  LYS102      0.0035
     57  CD        25.6950   -4.1030   41.1680 C.3   102  LYS102      0.0206
     58  CE        26.2950   -5.3330   41.8170 C.3   102  LYS102      0.1093
     59  NZ        27.4640   -5.8220   41.0340 N.3   102  LYS102     -0.1314
     60  N         26.7720    0.9660   39.3260 N.3   110  ASN110     -0.1225
     61  CA        27.6180    0.0340   38.6110 C.3   110  ASN110      0.1785
     62  C         27.4950    0.2550   37.1110 C.2   110  ASN110      0.2597
     63  O         26.4130    0.5700   36.6130 O.2   110  ASN110     -0.2718
     64  CB        27.2110   -1.4020   38.9390 C.3   110  ASN110      0.1169
     65  CG        28.0070   -2.4070   38.1570 C.2   110  ASN110      0.2627
     66  OD1       29.2190   -2.2650   38.0340 O.2   110  ASN110     -0.2716
     67  ND2       27.3370   -3.4090   37.6000 N.am  110  ASN110     -0.0877
     68  N         28.5950    0.0800   36.3830 N.am  111  ASP111     -0.1960
     69  CA        28.4960    0.0480   34.9480 C.3   111  ASP111      0.1840
     70  C         28.2180   -1.3870   34.5090 C.2   111  ASP111      0.2622
     71  O         28.7700   -2.3550   35.0580 O.2   111  ASP111     -0.2715
     72  CB        29.7240    0.6710   34.2520 C.3   111  ASP111      0.1450
     73  CG        31.0360   -0.0150   34.6110 C.2   111  ASP111      0.3671
     74  OD1       31.1710   -0.5460   35.7340 O.co2 111  ASP111     -0.2456
     75  OD2       31.9510    0.0050   33.7550 O.co2 111  ASP111     -0.2456
     76  N         27.3230   -1.5200   33.5410 N.am  112  ALA112     -0.1964
     77  CA        26.8740   -2.8140   33.0880 C.3   112  ALA112      0.1713
     78  C         26.6100   -2.7460   31.5860 C.2   112  ALA112      0.2458
     79  O         26.4320   -1.6500   31.0220 O.2   112  ALA112     -0.2730
     80  CB        25.6020   -3.2220   33.8510 C.3   112  ALA112      0.0333
     81  N         26.5850   -3.9000   30.9160 N.am  113  PRO113     -0.2727
     82  CA        26.3340   -3.9350   29.4700 C.3   113  PRO113      0.1402
     83  C         24.9630   -3.3410   29.1310 C.2   113  PRO113      0.2269
     84  O         23.9630   -3.7280   29.7370 O.2   113  PRO113     -0.2865
     85  CB        26.3680   -5.4300   29.1450 C.3   113  PRO113      0.0296
     86  CG        27.1860   -6.0330   30.2410 C.3   113  PRO113      0.0237
     87  CD        26.8370   -5.2440   31.4660 C.3   113  PRO113      0.0939
@<TRIPOS>BOND
     1    42    43    1
     2    83    82    1
     3    83    84    2
     4    85    82    1
     5    85    86    1
     6    82    81    1
     7    44    43    1
     8    44    45    2
     9    43    46    1
    10    86    87    1
    11    40    39    2
    12    81    87    1
    13    81    78   am
    14    79    78    2
    15    39    38    1
    16    46    47    1
    17    78    77    1
    18    47    48    1
    19    38    37    1
    20    38    41    1
    21    77    76    1
    22    77    80    1
    23    48    50   ar
    24    48    49   ar
    25    76    70   am
    26    75    73   ar
    27    32    31    2
    28    72    73    1
    29    72    69    1
    30    31    30    1
    31    70    69    1
    32    70    71    2
    33    73    74   ar
    34    69    68    1
    35    30    29    1
    36    30    33    1
    37    35    34    2
    38    68    62   am
    39    63    62    2
    40    34    33    1
    41    34    36   am
    42    62    61    1
    43    67    65   am
    44    66    65    2
    45    65    64    1
    46    27    26   ar
    47    61    64    1
    48    61    60    1
    49    22    21    1
    50    22    23    2
    51    26    28   ar
    52    26    25    1
    53    21    24    1
    54    21    20    1
    55    19    18    2
    56    24    25    1
    57    18    20   am
    58    18    17    1
    59    59    58    1
    60    57    58    1
    61    57    56    1
    62    55    56    1
    63    55    52    1
    64    51    52    1
    65    17    16    1
    66    52    53    1
    67     4     3    2
    68     8     6    1
    69    16    11   am
    70     1     2    1
    71    53    54    2
    72     5     6    1
    73     5     2    1
    74     5     7    1
    75    12    11    2
    76     3     2    1
    77     3     9   am
    78    11    10    1
    79    10     9    1
    80    10    13    1
    81     9    15    1
    82    13    14    1
    83    15    14    1
