@<TRIPOS>MOLECULE
tmp/3p5iB00.pdb
 104 96 0 0 0
SMALL
GASTEIGER

@<TRIPOS>ATOM
      1  N         17.9490   -3.6250   41.5660 N.3    53  ILE53      -0.1245
      2  CA        18.8160   -2.8710   40.6680 C.3    53  ILE53       0.1561
      3  C         17.9910   -2.1390   39.5940 C.2    53  ILE53       0.2260
      4  O         17.1740   -2.7550   38.9020 O.2    53  ILE53      -0.2867
      5  CB        19.7980   -3.8200   40.0030 C.3    53  ILE53       0.0252
      6  CG1       20.6270   -4.5260   41.0850 C.3    53  ILE53       0.0019
      7  CG2       20.6740   -3.0770   38.9760 C.3    53  ILE53       0.0019
      8  CD1       21.5650   -5.5880   40.5520 C.3    53  ILE53       0.0001
      9  N         33.9860    0.6200   41.4400 N.3    88  GLU88      -0.1245
     10  CA        33.2940    0.9290   40.1920 C.3    88  GLU88       0.1567
     11  C         33.5190    2.4040   39.8740 C.2    88  GLU88       0.2260
     12  O         33.7340    3.2040   40.7860 O.2    88  GLU88      -0.2867
     13  CB        31.7920    0.6630   40.3530 C.3    88  GLU88       0.0388
     14  CG        31.4560   -0.6820   41.0010 C.3    88  GLU88       0.1160
     15  CD        31.7180   -1.8660   40.0980 C.2    88  GLU88       0.3649
     16  OE1       31.9870   -1.6640   38.8970 O.co2  88  GLU88      -0.2457
     17  OE2       31.6520   -3.0150   40.5900 O.co2  88  GLU88      -0.2457
     18  N         34.2400   -0.2280   36.8090 N.3    90  ASN90      -0.1240
     19  CA        35.3690   -1.1190   36.5790 C.3    90  ASN90       0.1653
     20  C         35.3990   -1.6320   35.1430 C.2    90  ASN90       0.2266
     21  O         36.2820   -2.4070   34.7740 O.2    90  ASN90      -0.2867
     22  CB        35.3430   -2.2870   37.5740 C.3    90  ASN90       0.1155
     23  CG        34.2060   -3.2570   37.3060 C.2    90  ASN90       0.2627
     24  OD1       33.3120   -2.9750   36.5100 O.2    90  ASN90      -0.2716
     25  ND2       34.2380   -4.4120   37.9680 N.am   90  ASN90      -0.0877
     26  N         34.0940   -3.8920   33.4700 N.3    92  ALA92      -0.1245
     27  CA        34.2510   -5.3290   33.2720 C.3    92  ALA92       0.1562
     28  C         34.0870   -5.7280   31.8070 C.2    92  ALA92       0.2260
     29  O         33.0730   -5.4340   31.1840 O.2    92  ALA92      -0.2867
     30  CB        33.2620   -6.0820   34.1330 C.3    92  ALA92       0.0290
     31  N         30.9460   -2.2390   29.7370 N.3    96  GLU96      -0.1245
     32  CA        29.9940   -1.6900   30.6950 C.3    96  GLU96       0.1567
     33  C         29.9260   -0.1770   30.5040 C.2    96  GLU96       0.2260
     34  O         30.6680    0.5800   31.1300 O.2    96  GLU96      -0.2867
     35  CB        30.3810   -2.0690   32.1250 C.3    96  GLU96       0.0388
     36  CG        30.3960   -3.5720   32.3550 C.3    96  GLU96       0.1160
     37  CD        30.4740   -3.9560   33.8200 C.2    96  GLU96       0.3649
     38  OE1       31.2220   -3.3050   34.5910 O.co2  96  GLU96      -0.2457
     39  OE2       29.7580   -4.9070   34.2120 O.co2  96  GLU96      -0.2457
     40  N         23.8050    1.7600   36.5880 N.3   100  ASN100     -0.1240
     41  CA        22.5990    1.4580   37.3530 C.3   100  ASN100      0.1653
     42  C         22.7930    1.7510   38.8370 C.2   100  ASN100      0.2266
     43  O         23.9180    1.9510   39.3110 O.2   100  ASN100     -0.2867
     44  CB        22.1410    0.0130   37.1150 C.3   100  ASN100      0.1155
     45  CG        23.2150   -1.0160   37.4690 C.2   100  ASN100      0.2627
     46  OD1       23.9890   -0.8210   38.4140 O.2   100  ASN100     -0.2716
     47  ND2       23.2660   -2.1090   36.7070 N.am  100  ASN100     -0.0877
     48  N         22.5500    0.0720   42.3090 N.3   102  LYS102     -0.1245
     49  CA        22.7170   -1.3310   42.6510 C.3   102  LYS102      0.1561
     50  C         22.7280   -1.5810   44.1660 C.2   102  LYS102      0.2260
     51  O         21.9150   -2.3530   44.6730 O.2   102  LYS102     -0.2867
     52  CB        23.9920   -1.8620   41.9900 C.3   102  LYS102      0.0271
     53  CG        24.2660   -3.3130   42.2680 C.3   102  LYS102      0.0035
     54  CD        25.5510   -3.7530   41.6080 C.3   102  LYS102      0.0206
     55  CE        25.9560   -5.1380   42.0970 C.3   102  LYS102      0.1093
     56  NZ        27.1560   -5.6420   41.3990 N.3   102  LYS102     -0.1314
     57  N         26.8200    1.2890   39.7770 N.3   110  ASN110     -0.1225
     58  CA        27.6770    0.3430   39.1110 C.3   110  ASN110      0.1785
     59  C         27.5610    0.5300   37.6120 C.2   110  ASN110      0.2597
     60  O         26.4830    0.8570   37.1030 O.2   110  ASN110     -0.2718
     61  CB        27.2590   -1.0800   39.4710 C.3   110  ASN110      0.1169
     62  CG        27.9230   -2.0950   38.5930 C.2   110  ASN110      0.2627
     63  OD1       29.1400   -2.0820   38.4510 O.2   110  ASN110     -0.2716
     64  ND2       27.1280   -2.9600   37.9610 N.am  110  ASN110     -0.0877
     65  N         28.6640    0.3340   36.8960 N.am  111  ASP111     -0.1960
     66  CA        28.5880    0.2800   35.4460 C.3   111  ASP111      0.1840
     67  C         28.3120   -1.1470   34.9980 C.2   111  ASP111      0.2622
     68  O         28.8850   -2.1060   35.5350 O.2   111  ASP111     -0.2715
     69  CB        29.8330    0.8830   34.7640 C.3   111  ASP111      0.1450
     70  CG        31.1310    0.1790   35.1590 C.2   111  ASP111      0.3671
     71  OD1       31.2160   -0.3970   36.2650 O.co2 111  ASP111     -0.2456
     72  OD2       32.0810    0.2390   34.3600 O.co2 111  ASP111     -0.2456
     73  N         27.4170   -1.2710   34.0220 N.am  112  ALA112     -0.1964
     74  CA        26.9590   -2.5610   33.5240 C.3   112  ALA112      0.1713
     75  C         26.6990   -2.4930   32.0280 C.2   112  ALA112      0.2458
     76  O         26.5890   -1.4080   31.4660 O.2   112  ALA112     -0.2730
     77  CB        25.6980   -3.0160   34.2760 C.3   112  ALA112      0.0333
     78  N         26.6080   -3.6520   31.3710 N.am  113  PRO113     -0.2727
     79  CA        26.3980   -3.6970   29.9190 C.3   113  PRO113      0.1402
     80  C         25.0420   -3.1050   29.5280 C.2   113  PRO113      0.2269
     81  O         24.0130   -3.4860   30.0920 O.2   113  PRO113     -0.2865
     82  CB        26.4400   -5.1930   29.6050 C.3   113  PRO113      0.0296
     83  CG        27.1980   -5.7940   30.7350 C.3   113  PRO113      0.0237
     84  CD        26.8030   -4.9990   31.9330 C.3   113  PRO113      0.0939
     85  N         21.9650   -5.3300   29.0430 N.3   116  LYS116     -0.1245
     86  CA        21.3780   -6.1350   30.1190 C.3   116  LYS116      0.1561
     87  C         20.0390   -5.5090   30.4860 C.2   116  LYS116      0.2260
     88  O         19.8530   -4.3120   30.3200 O.2   116  LYS116     -0.2867
     89  CB        22.3110   -6.1880   31.3210 C.3   116  LYS116      0.0271
     90  CG        22.1680   -7.4400   32.1680 C.3   116  LYS116      0.0035
     91  CD        23.2650   -7.5100   33.2210 C.3   116  LYS116      0.0206
     92  CE        23.1440   -8.7680   34.0720 C.3   116  LYS116      0.1093
     93  NZ        24.2350   -8.8360   35.0910 N.3   116  LYS116     -0.1314
     94  N         17.1410   -4.4420   33.2090 N.3   118  PHE118     -0.1241
     95  CA        16.8440   -4.1450   34.6030 C.3   118  PHE118      0.1605
     96  C         15.5720   -3.3290   34.6560 C.2   118  PHE118      0.2264
     97  O         15.1750   -2.7140   33.6620 O.2   118  PHE118     -0.2867
     98  CB        17.9570   -3.3100   35.2480 C.3   118  PHE118      0.0534
     99  CG        19.2640   -4.0500   35.4140 C.ar  118  PHE118     -0.0203
    100  CD1       19.4070   -5.0130   36.4020 C.ar  118  PHE118     -0.0042
    101  CD2       20.3450   -3.7740   34.5870 C.ar  118  PHE118     -0.0042
    102  CE1       20.6080   -5.6950   36.5640 C.ar  118  PHE118     -0.0003
    103  CE2       21.5480   -4.4520   34.7390 C.ar  118  PHE118     -0.0003
    104  CZ        21.6760   -5.4200   35.7340 C.ar  118  PHE118     -0.0000
@<TRIPOS>BOND
     1    85    86    1
     2    80    79    1
     3    80    81    2
     4    82    79    1
     5    82    83    1
     6    31    32    1
     7    79    78    1
     8    86    87    1
     9    86    89    1
    10    88    87    2
    11    33    32    1
    12    33    34    2
    13    32    35    1
    14    83    84    1
    15    29    28    2
    16    89    90    1
    17    78    84    1
    18    78    75   am
    19    76    75    2
    20    28    27    1
    21    75    74    1
    22    35    36    1
    23    90    91    1
    24    36    37    1
    25    94    95    1
    26    91    92    1
    27    27    26    1
    28    27    30    1
    29    74    73    1
    30    74    77    1
    31    97    96    2
    32    37    39   ar
    33    37    38   ar
    34    73    67   am
    35    92    93    1
    36    72    70   ar
    37   101   103   ar
    38   101    99   ar
    39    95    96    1
    40    95    98    1
    41   103   104   ar
    42    69    70    1
    43    69    66    1
    44    21    20    2
    45    67    66    1
    46    67    68    2
    47    20    19    1
    48    70    71   ar
    49    98    99    1
    50    99   100   ar
    51    66    65    1
    52   104   102   ar
    53   100   102   ar
    54    24    23    2
    55    19    18    1
    56    19    22    1
    57    40    41    1
    58    47    45   am
    59    65    59   am
    60    60    59    2
    61    44    41    1
    62    44    45    1
    63    23    22    1
    64    23    25   am
    65    41    42    1
    66    45    46    2
    67    59    58    1
    68    64    62   am
    69    63    62    2
    70    62    61    1
    71    42    43    2
    72    16    15   ar
    73     4     3    2
    74     7     5    1
    75    58    61    1
    76    58    57    1
    77     3     2    1
    78    11    10    1
    79    11    12    2
    80     5     2    1
    81     5     6    1
    82    15    17   ar
    83    15    14    1
    84    10    13    1
    85    10     9    1
    86    13    14    1
    87     8     6    1
    88     2     1    1
    89    56    55    1
    90    54    55    1
    91    54    53    1
    92    52    53    1
    93    52    49    1
    94    48    49    1
    95    49    50    1
    96    50    51    2
