@<TRIPOS>MOLECULE
tmp/3p5kA01.pdb
 194 183 0 0 0
SMALL
GASTEIGER

@<TRIPOS>ATOM
      1  N         59.0220   38.6890  -19.2330 N.3    31  VAL31      -0.1245
      2  CA        58.8340   38.1380  -20.5620 C.3    31  VAL31       0.1561
      3  C         59.4320   39.1240  -21.5580 C.2    31  VAL31       0.2260
      4  O         59.1250   40.3140  -21.4910 O.2    31  VAL31      -0.2867
      5  CB        57.3330   37.9720  -20.9280 C.3    31  VAL31       0.0252
      6  CG1       57.1810   37.4300  -22.3700 C.3    31  VAL31       0.0019
      7  CG2       56.5700   37.0480  -19.9270 C.3    31  VAL31       0.0019
      8  N         58.4040   34.6330  -27.6020 N.3    44  ALA44      -0.1245
      9  CA        58.3220   35.2470  -26.2830 C.3    44  ALA44       0.1562
     10  C         59.1950   34.3430  -25.3900 C.2    44  ALA44       0.2260
     11  O         59.0840   33.1040  -25.4320 O.2    44  ALA44      -0.2867
     12  CB        56.8660   35.2250  -25.8080 C.3    44  ALA44       0.0290
     13  N         60.1180   33.7390  -21.4240 N.3    46  LYS46      -0.1245
     14  CA        59.8720   33.9500  -20.0180 C.3    46  LYS46       0.1561
     15  C         61.0520   33.4800  -19.1930 C.2    46  LYS46       0.2260
     16  O         61.5120   32.3010  -19.2680 O.2    46  LYS46      -0.2867
     17  CB        58.5490   33.3040  -19.5380 C.3    46  LYS46       0.0271
     18  CG        58.1670   33.5240  -18.0360 C.3    46  LYS46       0.0035
     19  CD        56.8850   32.7700  -17.6090 C.3    46  LYS46       0.0206
     20  CE        56.6540   33.0800  -16.1730 C.3    46  LYS46       0.1093
     21  NZ        55.6260   32.3280  -15.5570 N.3    46  LYS46      -0.1314
     22  N         56.2130   25.6390   -7.6150 N.3    60  ARG60      -0.1245
     23  CA        55.5440   26.4080   -8.7040 C.3    60  ARG60       0.1563
     24  C         56.3640   26.3630   -9.9940 C.2    60  ARG60       0.2260
     25  O         55.8120   26.3040  -11.0990 O.2    60  ARG60      -0.2867
     26  CB        55.2840   27.8940   -8.3130 C.3    60  ARG60       0.0307
     27  CG        54.7260   28.7440   -9.4810 C.3    60  ARG60       0.0489
     28  CD        54.2120   30.1550   -9.1090 C.3    60  ARG60       0.2205
     29  NE        53.3200   30.1460   -7.9330 N.pl3  60  ARG60      -0.0865
     30  CZ        53.5750   30.8020   -6.7950 C.cat  60  ARG60       0.5346
     31  NH1       54.6770   31.5510   -6.6660 N.pl3  60  ARG60       0.1354
     32  NH2       52.7230   30.7130   -5.7790 N.pl3  60  ARG60       0.1354
     33  N         55.9830   22.9810  -11.3520 N.3    63  ARG63      -0.1231
     34  CA        54.6520   22.9440  -11.8420 C.3    63  ARG63       0.1694
     35  C         54.5690   23.5570  -13.2500 C.2    63  ARG63       0.2591
     36  O         53.9760   22.9510  -14.1490 O.2    63  ARG63      -0.2718
     37  CB        53.6570   23.6540  -10.8950 C.3    63  ARG63       0.0321
     38  CG        52.1730   23.7080  -11.4860 C.3    63  ARG63       0.0489
     39  CD        51.2410   24.5220  -10.4900 C.3    63  ARG63       0.2205
     40  NE        51.2570   23.8640   -9.1680 N.pl3  63  ARG63      -0.0865
     41  CZ        51.6450   24.3770   -7.9960 C.cat  63  ARG63       0.5346
     42  NH1       52.0080   25.6530   -7.8550 N.pl3  63  ARG63       0.1354
     43  NH2       51.6490   23.5660   -6.9150 N.pl3  63  ARG63       0.1354
     44  N         55.1400   24.7330  -13.4460 N.am   64  GLU64      -0.1979
     45  CA        54.9360   25.4000  -14.7670 C.3    64  GLU64       0.1602
     46  C         55.7090   24.6180  -15.8690 C.2    64  GLU64       0.2287
     47  O         55.2540   24.4300  -16.9990 O.2    64  GLU64      -0.2864
     48  CB        55.3820   26.9040  -14.7350 C.3    64  GLU64       0.0415
     49  CG        55.2320   27.5720  -16.1630 C.3    64  GLU64       0.1163
     50  CD        55.3990   29.1050  -16.1230 C.2    64  GLU64       0.3649
     51  OE1       54.8100   29.8100  -16.9550 O.co2  64  GLU64      -0.2457
     52  OE2       56.0920   29.5970  -15.2260 O.co2  64  GLU64      -0.2457
     53  N         53.7040   21.4140  -16.7270 N.3    67  LEU67      -0.1231
     54  CA        52.4930   21.7760  -17.4830 C.3    67  LEU67       0.1693
     55  C         52.8360   22.1600  -18.9400 C.2    67  LEU67       0.2591
     56  O         52.3570   21.5280  -19.8900 O.2    67  LEU67      -0.2718
     57  CB        51.7890   22.9390  -16.8210 C.3    67  LEU67       0.0284
     58  CG        50.5310   22.6590  -16.0600 C.3    67  LEU67       0.0019
     59  CD1       50.2020   23.8700  -15.2490 C.3    67  LEU67       0.0001
     60  CD2       49.4200   22.3150  -17.0640 C.3    67  LEU67       0.0001
     61  N         53.6970   23.1500  -19.1170 N.am   68  LEU68      -0.1980
     62  CA        54.0490   23.5570  -20.4230 C.3    68  LEU68       0.1596
     63  C         54.6490   22.4250  -21.2930 C.2    68  LEU68       0.2287
     64  O         54.3250   22.3390  -22.5020 O.2    68  LEU68      -0.2864
     65  CB        54.9130   24.8100  -20.4540 C.3    68  LEU68       0.0297
     66  CG        54.2300   26.0050  -19.8270 C.3    68  LEU68       0.0022
     67  CD1       55.0250   27.2240  -20.0910 C.3    68  LEU68       0.0001
     68  CD2       52.8670   26.1690  -20.3310 C.3    68  LEU68       0.0001
     69  N         51.5290   20.4670  -22.5900 N.3    71  MET71      -0.1245
     70  CA        50.5020   21.1190  -23.4300 C.3    71  MET71       0.1570
     71  C         50.8750   21.0860  -24.9050 C.2    71  MET71       0.2261
     72  O         51.8550   21.7260  -25.3090 O.2    71  MET71      -0.2867
     73  CB        50.2680   22.5610  -22.9920 C.3    71  MET71       0.0387
     74  CG        49.6660   22.7160  -21.5840 C.3    71  MET71       0.0595
     75  SD        47.9910   22.1170  -21.3590 S.3    71  MET71      -0.1393
     76  CE        48.2830   20.4230  -20.8100 C.3    71  MET71       0.0692
     77  N         46.4100   26.1960  -27.2530 N.3    76  VAL76      -0.1231
     78  CA        46.9880   26.3140  -25.9110 C.3    76  VAL76       0.1692
     79  C         48.4570   26.6010  -26.0540 C.2    76  VAL76       0.2591
     80  O         49.1290   25.9890  -26.9010 O.2    76  VAL76      -0.2718
     81  CB        46.8490   25.0480  -25.0440 C.3    76  VAL76       0.0266
     82  CG1       47.4900   25.2550  -23.6020 C.3    76  VAL76       0.0020
     83  CG2       45.4020   24.5590  -24.9260 C.3    76  VAL76       0.0020
     84  N         48.9750   27.4970  -25.2380 N.am   77  ILE77      -0.1980
     85  CA        50.4120   27.7600  -25.2840 C.3    77  ILE77       0.1595
     86  C         51.2300   26.4690  -25.2250 C.2    77  ILE77       0.2287
     87  O         50.9000   25.5750  -24.4550 O.2    77  ILE77      -0.2864
     88  CB        50.8540   28.7470  -24.1420 C.3    77  ILE77       0.0276
     89  CG1       52.3340   29.1310  -24.2940 C.3    77  ILE77       0.0022
     90  CG2       50.6590   28.1540  -22.7250 C.3    77  ILE77       0.0022
     91  CD1       52.7850   30.0620  -23.1230 C.3    77  ILE77       0.0001
     92  N         55.5180   24.7480  -25.7250 N.3    79  LEU79      -0.1245
     93  CA        56.9250   25.0800  -25.5030 C.3    79  LEU79       0.1561
     94  C         57.7460   24.8130  -26.7440 C.2    79  LEU79       0.2260
     95  O         57.8110   23.6530  -27.1910 O.2    79  LEU79      -0.2867
     96  CB        57.5280   24.2440  -24.3600 C.3    79  LEU79       0.0270
     97  CG        57.5560   24.7620  -22.9290 C.3    79  LEU79       0.0019
     98  CD1       58.2570   23.7840  -21.9690 C.3    79  LEU79       0.0001
     99  CD2       58.1610   26.0880  -22.7590 C.3    79  LEU79       0.0001
    100  N         61.8130   29.8170  -20.5590 N.3    97  LEU97      -0.1231
    101  CA        60.8580   28.9880  -21.3180 C.3    97  LEU97       0.1693
    102  C         60.5980   29.7770  -22.5290 C.2    97  LEU97       0.2592
    103  O         60.5190   31.0250  -22.4600 O.2    97  LEU97      -0.2718
    104  CB        59.5330   28.8650  -20.5390 C.3    97  LEU97       0.0284
    105  CG        59.7490   28.3380  -19.1040 C.3    97  LEU97       0.0019
    106  CD1       58.4910   28.5660  -18.3480 C.3    97  LEU97       0.0001
    107  CD2       60.0670   26.9130  -19.1630 C.3    97  LEU97       0.0001
    108  N         60.4780   29.0900  -23.6480 N.am   98  VAL98      -0.1966
    109  CA        60.2780   29.7340  -24.9670 C.3    98  VAL98       0.1727
    110  C         58.9960   29.2850  -25.7220 C.2    98  VAL98       0.2616
    111  O         58.7010   28.0790  -25.7990 O.2    98  VAL98      -0.2715
    112  CB        61.5570   29.4930  -25.8900 C.3    98  VAL98       0.0290
    113  CG1       61.4030   30.2230  -27.2310 C.3    98  VAL98       0.0023
    114  CG2       62.7960   29.9660  -25.1550 C.3    98  VAL98       0.0023
    115  N         58.2230   30.2560  -26.2290 N.am   99  THR99      -0.1951
    116  CA        57.0340   29.9440  -27.0250 C.3    99  THR99       0.1897
    117  C         56.8940   30.8760  -28.2650 C.2    99  THR99       0.2313
    118  O         57.4630   31.9660  -28.2700 O.2    99  THR99      -0.2863
    119  CB        55.7070   30.0500  -26.1640 C.3    99  THR99       0.1794
    120  OG1       54.5900   29.4010  -26.8660 O.3    99  THR99      -0.2208
    121  CG2       55.3780   31.5130  -25.9140 C.3    99  THR99       0.0378
    122  N         42.7660   21.2240  -22.1390 N.3   134  ILE134     -0.1245
    123  CA        43.1780   21.4990  -20.7700 C.3   134  ILE134      0.1561
    124  C         42.3790   20.7130  -19.7250 C.2   134  ILE134      0.2260
    125  O         42.9810   20.0830  -18.8990 O.2   134  ILE134     -0.2867
    126  CB        43.1100   22.9900  -20.4610 C.3   134  ILE134      0.0252
    127  CG1       44.1660   23.7430  -21.3200 C.3   134  ILE134      0.0019
    128  CG2       43.4130   23.1860  -18.9340 C.3   134  ILE134      0.0019
    129  CD1       43.9980   25.2660  -21.3440 C.3   134  ILE134      0.0001
    130  N         43.2540   19.5770  -15.4900 N.3   139  ILE139     -0.1231
    131  CA        43.7780   20.9390  -15.1370 C.3   139  ILE139      0.1692
    132  C         42.6270   21.9660  -15.1740 C.2   139  ILE139      0.2592
    133  O         41.7740   21.9100  -16.0640 O.2   139  ILE139     -0.2718
    134  CB        44.7810   21.3460  -16.1530 C.3   139  ILE139      0.0266
    135  CG1       45.8800   20.3630  -16.1080 C.3   139  ILE139      0.0019
    136  CG2       45.3440   22.7770  -15.9300 C.3   139  ILE139      0.0020
    137  CD1       46.7770   20.4410  -17.3210 C.3   139  ILE139      0.0001
    138  N         42.6510   22.9080  -14.2330 N.am  140  ILE140     -0.1966
    139  CA        41.7310   24.0320  -14.2060 C.3   140  ILE140      0.1727
    140  C         42.5430   25.2650  -14.4390 C.2   140  ILE140      0.2616
    141  O         43.5880   25.4670  -13.7900 O.2   140  ILE140     -0.2715
    142  CB        40.9600   24.1000  -12.8550 C.3   140  ILE140      0.0290
    143  CG1       40.1840   22.7890  -12.6780 C.3   140  ILE140      0.0022
    144  CG2       39.9690   25.2740  -12.8120 C.3   140  ILE140      0.0023
    145  CD1       39.3240   22.7580  -11.4540 C.3   140  ILE140      0.0001
    146  N         42.1120   26.0880  -15.3880 N.am  141  HIS141     -0.1973
    147  CA        42.8340   27.3400  -15.6150 C.3   141  HIS141      0.1656
    148  C         42.7380   28.2420  -14.3670 C.2   141  HIS141      0.2291
    149  O         43.7950   28.5850  -13.7890 O.2   141  HIS141     -0.2864
    150  CB        42.3390   28.0990  -16.8670 C.3   141  HIS141      0.0771
    151  CG        43.2220   29.2590  -17.2510 C.ar  141  HIS141      0.0820
    152  ND1       44.0210   29.2520  -18.3790 N.ar  141  HIS141     -0.2267
    153  CD2       43.4850   30.4090  -16.6130 C.ar  141  HIS141      0.1154
    154  CE1       44.6890   30.3820  -18.4560 C.ar  141  HIS141      0.1986
    155  NE2       44.3660   31.1160  -17.4040 N.ar  141  HIS141     -0.2212
    156  N         45.3220   29.8600  -25.4840 N.3   159  ILE159     -0.1231
    157  CA        45.0790   30.1160  -24.0940 C.3   159  ILE159      0.1692
    158  C         46.4640   30.0560  -23.4150 C.2   159  ILE159      0.2592
    159  O         47.2650   29.1400  -23.6740 O.2   159  ILE159     -0.2718
    160  CB        44.1620   29.0630  -23.4500 C.3   159  ILE159      0.0266
    161  CG1       42.7360   29.0940  -24.0800 C.3   159  ILE159      0.0019
    162  CG2       44.1190   29.3000  -21.8890 C.3   159  ILE159      0.0020
    163  CD1       42.0000   27.8340  -23.7230 C.3   159  ILE159      0.0001
    164  N         46.7410   31.0120  -22.5440 N.am  160  LEU160     -0.1966
    165  CA        47.9500   30.9370  -21.7240 C.3   160  LEU160      0.1728
    166  C         47.6590   31.4340  -20.3080 C.2   160  LEU160      0.2616
    167  O         46.5010   31.6410  -20.0040 O.2   160  LEU160     -0.2715
    168  CB        49.1450   31.6840  -22.3880 C.3   160  LEU160      0.0311
    169  CG        48.8630   33.1090  -22.9140 C.3   160  LEU160      0.0022
    170  CD1       48.7630   34.0610  -21.7920 C.3   160  LEU160      0.0001
    171  CD2       50.0760   33.4850  -23.8030 C.3   160  LEU160      0.0001
    172  N         48.6910   31.6600  -19.4700 N.am  161  ASP161     -0.1957
    173  CA        48.4990   32.2310  -18.1110 C.3   161  ASP161      0.1840
    174  C         49.7250   33.0880  -17.7100 C.2   161  ASP161      0.2622
    175  O         50.7760   32.5370  -17.3790 O.2   161  ASP161     -0.2715
    176  CB        48.2700   31.1150  -17.0510 C.3   161  ASP161      0.1450
    177  CG        47.7300   31.6730  -15.6950 C.2   161  ASP161      0.3671
    178  OD1       47.7260   32.9280  -15.5450 O.co2 161  ASP161     -0.2456
    179  OD2       47.2900   30.8390  -14.8100 O.co2 161  ASP161     -0.2456
    180  N         49.6330   34.4150  -17.8470 N.am  162  PHE162     -0.1960
    181  CA        50.7100   35.3310  -17.3740 C.3   162  PHE162      0.1771
    182  C         50.9550   35.1380  -15.8690 C.2   162  PHE162      0.2620
    183  O         52.0790   35.1390  -15.4170 O.2   162  PHE162     -0.2715
    184  CB        50.4020   36.7990  -17.7200 C.3   162  PHE162      0.0574
    185  CG        50.8020   37.1750  -19.1240 C.ar  162  PHE162     -0.0200
    186  CD1       52.0920   37.6620  -19.3850 C.ar  162  PHE162     -0.0042
    187  CD2       49.9030   36.9840  -20.2070 C.ar  162  PHE162     -0.0042
    188  CE1       52.4800   37.9880  -20.6760 C.ar  162  PHE162     -0.0003
    189  CE2       50.2710   37.3070  -21.5350 C.ar  162  PHE162     -0.0003
    190  CZ        51.5830   37.8080  -21.7650 C.ar  162  PHE162     -0.0000
    191  N         49.9060   34.8100  -15.1310 N.am  163  GLY163     -0.1954
    192  CA        49.9440   34.8590  -13.6760 C.3   163  GLY163      0.1869
    193  C         49.5340   36.2640  -13.3000 C.2   163  GLY163      0.2309
    194  O         49.6150   36.6240  -12.1330 O.2   163  GLY163     -0.2863
@<TRIPOS>BOND
     1   118   117    2
     2   117   116    1
     3     8     9    1
     4    77    78    1
     5   113   112    1
     6    95    94    2
     7   116   115    1
     8   116   119    1
     9    80    79    2
    10   120   119    1
    11    94    93    1
    12     9    12    1
    13     9    10    1
    14   115   110   am
    15   119   121    1
    16    79    78    1
    17    79    84   am
    18    78    81    1
    19   112   114    1
    20   112   109    1
    21   111   110    2
    22    92    93    1
    23   110   109    1
    24    93    96    1
    25   156   157    1
    26    11    10    2
    27    72    71    2
    28    85    84    1
    29    85    86    1
    30    85    88    1
    31    86    87    2
    32    81    83    1
    33    81    82    1
    34   109   108    1
    35    71    70    1
    36    96    97    1
    37    89    88    1
    38    89    91    1
    39    88    90    1
    40   157   160    1
    41   157   158    1
    42   161   163    1
    43   161   160    1
    44   171   169    1
    45   159   158    2
    46   108   102   am
    47   160   162    1
    48    70    73    1
    49    70    69    1
    50   158   164   am
    51    73    74    1
    52    97    99    1
    53    97    98    1
    54   169   168    1
    55   169   170    1
    56   164   165    1
    57   102   103    2
    58   102   101    1
    59    64    63    2
    60   168   165    1
    61     6     5    1
    62   122   123    1
    63   190   189   ar
    64   190   188   ar
    65   165   166    1
    66    74    75    1
    67     3     4    2
    68     3     2    1
    69   189   187   ar
    70    13    14    1
    71    75    76    1
    72   129   127    1
    73   127   126    1
    74   101   100    1
    75   101   104    1
    76    63    62    1
    77     5     2    1
    78     5     7    1
    79   123   126    1
    80   123   124    1
    81   188   186   ar
    82     2     1    1
    83   104   105    1
    84   126   128    1
    85    65    62    1
    86    65    66    1
    87    62    61    1
    88    68    66    1
    89   166   167    2
    90   166   172   am
    91   187   185   ar
    92    67    66    1
    93    14    17    1
    94    14    15    1
    95    56    55    2
    96   124   125    2
    97    17    18    1
    98   172   173    1
    99   186   185   ar
   100    16    15    2
   101   107   105    1
   102   185   184    1
   103    61    55   am
   104   105   106    1
   105    55    54    1
   106   154   152   ar
   107   154   155   ar
   108   152   151   ar
   109   173   174    1
   110   173   176    1
   111    18    19    1
   112   180   174   am
   113   180   181    1
   114   184   181    1
   115   174   175    2
   116    19    20    1
   117    54    57    1
   118    54    53    1
   119   155   153   ar
   120   181   182    1
   121   137   135    1
   122   151   150    1
   123   151   153   ar
   124    60    58    1
   125   176   177    1
   126    47    46    2
   127    51    50   ar
   128   150   147    1
   129    57    58    1
   130    20    21    1
   131    49    50    1
   132    49    48    1
   133   134   135    1
   134   134   136    1
   135   134   131    1
   136    50    52   ar
   137   133   132    2
   138    58    59    1
   139   182   183    2
   140   182   191   am
   141    46    45    1
   142   177   178   ar
   143   177   179   ar
   144   147   146    1
   145   147   148    1
   146   130   131    1
   147   146   140   am
   148   132   131    1
   149   132   138   am
   150   191   192    1
   151    45    48    1
   152    45    44    1
   153   140   139    1
   154   140   141    2
   155   148   149    2
   156   138   139    1
   157   139   142    1
   158    36    35    2
   159   192   193    1
   160    44    35   am
   161   193   194    2
   162    35    34    1
   163   142   144    1
   164   142   143    1
   165   143   145    1
   166    34    33    1
   167    34    37    1
   168    38    37    1
   169    38    39    1
   170    25    24    2
   171    39    40    1
   172    24    23    1
   173    27    28    1
   174    27    26    1
   175    40    41    2
   176    28    29    1
   177    23    26    1
   178    23    22    1
   179    41    42    1
   180    41    43    1
   181    29    30    2
   182    30    31    1
   183    30    32    1
