@<TRIPOS>MOLECULE
tmp/3p5lA00.pdb
 155 150 0 0 0
SMALL
GASTEIGER

@<TRIPOS>ATOM
      1  N         -3.3920    0.5240    3.6590 N.3    59  ASN59      -0.1240
      2  CA        -2.2870    1.3810    4.1110 C.3    59  ASN59       0.1653
      3  C         -1.0080    0.5890    4.3510 C.2    59  ASN59       0.2266
      4  O         -0.0370    1.1140    4.9240 O.2    59  ASN59      -0.2867
      5  CB        -2.6380    2.1650    5.3830 C.3    59  ASN59       0.1155
      6  CG        -2.8530    1.2970    6.5740 C.2    59  ASN59       0.2627
      7  OD1       -2.6900    0.0900    6.5160 O.2    59  ASN59      -0.2716
      8  ND2       -3.2210    1.9200    7.6910 N.am   59  ASN59      -0.0877
      9  N         -0.7080   -2.0210    6.2580 N.3    61  HIS61      -0.1241
     10  CA        -0.8140   -2.8260    7.4770 C.3    61  HIS61       0.1621
     11  C         -2.2190   -3.3580    7.7550 C.2    61  HIS61       0.2264
     12  O         -2.3840   -4.3630    8.4470 O.2    61  HIS61      -0.2867
     13  CB        -0.1700   -2.2050    8.7090 C.3    61  HIS61       0.0745
     14  CG        -0.7680   -0.9150    9.1460 C.ar   61  HIS61       0.0817
     15  ND1       -1.9280   -0.8410    9.8870 N.ar   61  HIS61      -0.2268
     16  CD2       -0.3360    0.3580    8.9900 C.ar   61  HIS61       0.1154
     17  CE1       -2.2000    0.4220   10.1550 C.ar   61  HIS61       0.1986
     18  NE2       -1.2450    1.1720    9.6270 N.ar   61  HIS61      -0.2212
     19  N         -8.3830    0.6220    5.8950 N.3    64  ASN64      -0.1240
     20  CA        -9.2040    1.5840    6.6200 C.3    64  ASN64       0.1653
     21  C        -10.4150    1.9990    5.7860 C.2    64  ASN64       0.2266
     22  O        -10.2640    2.4150    4.6250 O.2    64  ASN64      -0.2867
     23  CB        -8.4160    2.8660    6.9270 C.3    64  ASN64       0.1155
     24  CG        -7.2610    2.6520    7.8610 C.2    64  ASN64       0.2627
     25  OD1       -7.2190    1.6790    8.5870 O.2    64  ASN64      -0.2716
     26  ND2       -6.3060    3.5890    7.8520 N.am   64  ASN64      -0.0877
     27  N        -12.7830    6.3240   11.2050 N.3    89  GLN89      -0.1245
     28  CA       -12.4950    5.1840   10.3500 C.3    89  GLN89       0.1566
     29  C        -12.7050    3.9210   11.1330 C.2    89  GLN89       0.2260
     30  O        -12.7460    3.9550   12.3560 O.2    89  GLN89      -0.2867
     31  CB       -11.0340    5.2160    9.8330 C.3    89  GLN89       0.0367
     32  CG        -9.9770    5.2240   10.9690 C.3    89  GLN89       0.0905
     33  CD        -9.2050    3.9450   11.0270 C.2    89  GLN89       0.2608
     34  OE1       -9.7870    2.8540   11.1150 O.2    89  GLN89      -0.2717
     35  NE2       -7.8950    4.0420   10.8870 N.am   89  GLN89      -0.0878
     36  N        -11.1620   -0.3270   10.9180 N.3    91  HIS91      -0.1241
     37  CA       -10.3030   -1.3160   10.2980 C.3    91  HIS91       0.1621
     38  C        -10.3740   -2.5680   11.1330 C.2    91  HIS91       0.2264
     39  O        -11.0100   -2.6010   12.1760 O.2    91  HIS91      -0.2867
     40  CB        -8.8620   -0.8440   10.2350 C.3    91  HIS91       0.0745
     41  CG        -8.3210   -0.5490   11.5950 C.ar   91  HIS91       0.0817
     42  ND1       -8.5280    0.6600   12.2370 N.ar   91  HIS91      -0.2268
     43  CD2       -7.6880   -1.3370   12.4870 C.ar   91  HIS91       0.1154
     44  CE1       -8.0220    0.6010   13.4540 C.ar   91  HIS91       0.1986
     45  NE2       -7.4810   -0.5970   13.6220 N.ar   91  HIS91      -0.2212
     46  N         -8.0420   -6.2730   12.4970 N.3    93  HIS93      -0.1241
     47  CA        -6.8300   -7.0390   12.6850 C.3    93  HIS93       0.1621
     48  C         -7.2370   -8.4970   12.5720 C.2    93  HIS93       0.2264
     49  O         -8.2630   -8.8780   13.1270 O.2    93  HIS93      -0.2867
     50  CB        -6.1930   -6.7700   14.0590 C.3    93  HIS93       0.0745
     51  CG        -5.9130   -5.3260   14.3420 C.ar   93  HIS93       0.0817
     52  ND1       -4.6580   -4.7830   14.1860 N.ar   93  HIS93      -0.2268
     53  CD2       -6.7280   -4.3000   14.6860 C.ar   93  HIS93       0.1154
     54  CE1       -4.6860   -3.4980   14.5120 C.ar   93  HIS93       0.1986
     55  NE2       -5.9410   -3.1610   14.7760 N.ar   93  HIS93      -0.2212
     56  N        -11.9440   -2.5260   14.8780 N.3   116  HIS116     -0.1241
     57  CA       -11.7250   -1.2740   15.6140 C.3   116  HIS116      0.1621
     58  C        -12.4390   -0.1570   14.9080 C.2   116  HIS116      0.2264
     59  O        -12.0320    0.2400   13.8110 O.2   116  HIS116     -0.2867
     60  CB       -10.2110   -0.9480   15.7060 C.3   116  HIS116      0.0745
     61  CG        -9.4780   -1.9000   16.5820 C.ar  116  HIS116      0.0817
     62  ND1       -8.1020   -2.0140   16.5870 N.ar  116  HIS116     -0.2268
     63  CD2       -9.9460   -2.8070   17.4650 C.ar  116  HIS116      0.1154
     64  CE1       -7.7550   -2.9480   17.4510 C.ar  116  HIS116      0.1986
     65  NE2       -8.8550   -3.4240   18.0190 N.ar  116  HIS116     -0.2212
     66  N        -12.8590    3.6040   15.1850 N.3   118  VAL118     -0.1245
     67  CA       -12.0280    4.6400   15.8050 C.3   118  VAL118      0.1561
     68  C        -12.7510    5.9660   15.8590 C.2   118  VAL118      0.2260
     69  O        -13.2480    6.4500   14.8360 O.2   118  VAL118     -0.2867
     70  CB       -10.7350    4.8300   14.9810 C.3   118  VAL118      0.0252
     71  CG1       -9.8220    5.8140   15.6790 C.3   118  VAL118      0.0019
     72  CG2      -10.0240    3.4660   14.7310 C.3   118  VAL118      0.0019
     73  N         -8.1810   15.0460   14.7370 N.3   127  PHE127     -0.1241
     74  CA        -7.6610   13.7480   15.1410 C.3   127  PHE127      0.1605
     75  C         -6.2050   13.8450   15.5450 C.2   127  PHE127      0.2264
     76  O         -5.7800   13.2190   16.5180 O.2   127  PHE127     -0.2867
     77  CB        -7.8220   12.7740   13.9770 C.3   127  PHE127      0.0534
     78  CG        -7.2860   11.4060   14.2430 C.ar  127  PHE127     -0.0203
     79  CD1       -8.0680   10.4570   14.8870 C.ar  127  PHE127     -0.0042
     80  CD2       -6.0030   11.0660   13.8590 C.ar  127  PHE127     -0.0042
     81  CE1       -7.5810    9.1940   15.1560 C.ar  127  PHE127     -0.0003
     82  CE2       -5.5060    9.8060   14.1010 C.ar  127  PHE127     -0.0003
     83  CZ        -6.3100    8.8520   14.7660 C.ar  127  PHE127     -0.0000
     84  N         -4.9350   12.5860   19.3720 N.3   131  VAL131     -0.1245
     85  CA        -4.0580   11.4560   19.7270 C.3   131  VAL131      0.1561
     86  C         -2.9370   11.8590   20.6820 C.2   131  VAL131      0.2260
     87  O         -2.2320   10.9840   21.2190 O.2   131  VAL131     -0.2867
     88  CB        -3.4270   10.7460   18.4960 C.3   131  VAL131      0.0252
     89  CG1       -4.4930   10.1660   17.6370 C.3   131  VAL131      0.0019
     90  CG2       -2.5330   11.6970   17.7010 C.3   131  VAL131      0.0019
     91  N        -12.0330    3.8270   21.1200 N.3   139  VAL139     -0.1245
     92  CA       -12.0480    2.7770   20.1050 C.3   139  VAL139      0.1561
     93  C        -13.0030    1.6890   20.5710 C.2   139  VAL139      0.2260
     94  O        -12.8510    1.1840   21.6820 O.2   139  VAL139     -0.2867
     95  CB       -10.6500    2.1980   19.7890 C.3   139  VAL139      0.0252
     96  CG1      -10.7360    1.1780   18.6580 C.3   139  VAL139      0.0019
     97  CG2       -9.7140    3.3130   19.3690 C.3   139  VAL139      0.0019
     98  N         -3.0980    3.0280   21.1900 N.3   194  LEU194     -0.1231
     99  CA        -3.1300    2.4590   19.8580 C.3   194  LEU194      0.1693
    100  C         -2.3380    1.1550   19.8770 C.2   194  LEU194      0.2593
    101  O         -1.3340    1.0300   20.6080 O.2   194  LEU194     -0.2718
    102  CB        -2.4690    3.3610   18.8240 C.3   194  LEU194      0.0284
    103  CG        -3.0200    4.7700   18.7420 C.3   194  LEU194      0.0019
    104  CD1       -2.1530    5.6260   17.8000 C.3   194  LEU194      0.0001
    105  CD2       -4.4940    4.6970   18.2950 C.3   194  LEU194      0.0001
    106  N         -2.7240    0.1990   19.0440 N.am  195  THR195     -0.1939
    107  CA        -2.0420   -1.0980   19.0170 C.3   195  THR195      0.2028
    108  C         -1.0780   -1.2180   17.8670 C.2   195  THR195      0.2643
    109  O         -0.4340   -2.2660   17.7310 O.2   195  THR195     -0.2714
    110  CB        -3.0320   -2.2320   18.8980 C.3   195  THR195      0.1808
    111  OG1       -3.7440   -2.0780   17.6740 O.3   195  THR195     -0.2208
    112  CG2       -4.0360   -2.2300   20.0750 C.3   195  THR195      0.0379
    113  N         -0.9550   -0.1700   17.0430 N.am  196  THR196     -0.1937
    114  CA         0.1730   -0.0370   16.1130 C.3   196  THR196      0.2013
    115  C          0.9740    1.2070   16.4380 C.2   196  THR196      0.2484
    116  O          0.4590    2.1440   17.0520 O.2   196  THR196     -0.2729
    117  CB        -0.2990    0.1180   14.6500 C.3   196  THR196      0.1807
    118  OG1       -0.8570    1.4290   14.4520 O.3   196  THR196     -0.2208
    119  CG2       -1.3550   -0.8790   14.3130 C.3   196  THR196      0.0379
    120  N          2.2380    1.2320   16.0050 N.am  197  PRO197     -0.2715
    121  CA         2.9290    2.5100   16.0450 C.3   197  PRO197      0.1521
    122  C          2.0400    3.6140   15.4720 C.2   197  PRO197      0.2440
    123  O          1.3340    3.4160   14.4620 O.2   197  PRO197     -0.2731
    124  CB         4.1880    2.2340   15.1990 C.3   197  PRO197      0.0310
    125  CG         4.4710    0.8010   15.4630 C.3   197  PRO197      0.0237
    126  CD         3.0850    0.1780   15.4240 C.3   197  PRO197      0.0939
    127  N          2.0670    4.7870   16.0930 N.am  198  PRO198     -0.2727
    128  CA         2.9480    5.2660   17.1610 C.3   198  PRO198      0.1402
    129  C          2.6520    4.8480   18.6170 C.2   198  PRO198      0.2269
    130  O          3.2960    5.3610   19.5310 O.2   198  PRO198     -0.2865
    131  CB         2.8170    6.7840   17.0280 C.3   198  PRO198      0.0296
    132  CG         1.4270    6.9960   16.5110 C.3   198  PRO198      0.0237
    133  CD         1.1420    5.8320   15.6180 C.3   198  PRO198      0.0939
    134  N          0.4350    5.4430   20.7240 N.3   200  LEU200     -0.1245
    135  CA         0.1330    6.5350   21.6380 C.3   200  LEU200      0.1561
    136  C         -0.9100    6.1460   22.6870 C.2   200  LEU200      0.2260
    137  O         -1.8960    5.4860   22.3970 O.2   200  LEU200     -0.2867
    138  CB        -0.3250    7.7610   20.8290 C.3   200  LEU200      0.0270
    139  CG         0.6990    8.3270   19.8370 C.3   200  LEU200      0.0019
    140  CD1        0.0530    9.3170   18.9050 C.3   200  LEU200      0.0001
    141  CD2        1.8280    8.9690   20.6020 C.3   200  LEU200      0.0001
    142  N        -10.5610    2.3270   25.6600 N.3   205  TRP205     -0.1241
    143  CA       -11.0290    1.1140   24.9900 C.3   205  TRP205      0.1605
    144  C        -12.4100    0.7160   25.4910 C.2   205  TRP205      0.2264
    145  O        -12.6500    0.6640   26.6760 O.2   205  TRP205     -0.2867
    146  CB       -10.0150   -0.0360   25.2270 C.3   205  TRP205      0.0550
    147  CG        -8.8930    0.0320   24.2670 C.ar  205  TRP205      0.0003
    148  CD1       -7.6750    0.5810   24.4870 C.ar  205  TRP205      0.0946
    149  CD2       -8.9370   -0.3310   22.8890 C.ar  205  TRP205      0.0152
    150  NE1       -6.9520    0.5750   23.3180 N.ar  205  TRP205     -0.2442
    151  CE2       -7.6900   -0.0170   22.3320 C.ar  205  TRP205      0.0810
    152  CE3       -9.9090   -0.9210   22.0740 C.ar  205  TRP205      0.0012
    153  CZ2       -7.4040   -0.2390   21.0100 C.ar  205  TRP205      0.0191
    154  CZ3       -9.6250   -1.1580   20.7810 C.ar  205  TRP205      0.0001
    155  CH2       -8.3800   -0.8380   20.2400 C.ar  205  TRP205      0.0015
@<TRIPOS>BOND
     1     1     2    1
     2     2     3    1
     3     2     5    1
     4     3     4    2
     5    22    21    2
     6     5     6    1
     7    21    20    1
     8    19    20    1
     9     9    10    1
    10     7     6    2
    11     6     8   am
    12    20    23    1
    13    23    24    1
    14    10    11    1
    15    10    13    1
    16    11    12    2
    17    26    24   am
    18    24    25    2
    19    13    14    1
    20    16    14   ar
    21    16    18   ar
    22    14    15   ar
    23    18    17   ar
    24    31    28    1
    25    31    32    1
    26    15    17   ar
    27    40    37    1
    28    40    41    1
    29    37    36    1
    30    37    38    1
    31    28    29    1
    32    28    27    1
    33    35    33   am
    34    32    33    1
    35    33    34    2
    36    38    39    2
    37    29    30    2
    38    41    42   ar
    39    41    43   ar
    40    42    44   ar
    41    43    45   ar
    42    46    47    1
    43    48    47    1
    44    48    49    2
    45    47    50    1
    46    44    45   ar
    47    59    58    2
    48    80    82   ar
    49    80    78   ar
    50    77    78    1
    51    77    74    1
    52    50    51    1
    53    82    83   ar
    54    52    51   ar
    55    52    54   ar
    56    78    79   ar
    57   119   117    1
    58    51    53   ar
    59   118   117    1
    60   123   122    2
    61    54    55   ar
    62   117   114    1
    63    53    55   ar
    64    72    70    1
    65    73    74    1
    66    83    81   ar
    67    69    68    2
    68    56    57    1
    69    79    81   ar
    70    58    57    1
    71    70    71    1
    72    70    67    1
    73    74    75    1
    74    66    67    1
    75   124   125    1
    76   124   121    1
    77   126   125    1
    78   126   120    1
    79   122   121    1
    80   122   127   am
    81    75    76    2
    82    57    60    1
    83   133   127    1
    84   133   132    1
    85    60    61    1
    86    67    68    1
    87   120   121    1
    88   120   115   am
    89   127   128    1
    90   114   115    1
    91   114   113    1
    92   115   116    2
    93   132   131    1
    94    61    62   ar
    95    61    63   ar
    96    62    64   ar
    97   131   128    1
    98   113   108   am
    99   128   129    1
   100    64    65   ar
   101    63    65   ar
   102    89    88    1
   103   111   110    1
   104    90    88    1
   105   109   108    2
   106   104   103    1
   107   108   107    1
   108   105   103    1
   109    88    85    1
   110   129   130    2
   111    96    95    1
   112   103   102    1
   113   102    99    1
   114   110   107    1
   115   110   112    1
   116   140   139    1
   117   107   106    1
   118   106   100   am
   119    97    95    1
   120    84    85    1
   121    85    86    1
   122    95    92    1
   123   139   141    1
   124   139   138    1
   125    99   100    1
   126    99    98    1
   127   100   101    2
   128    92    93    1
   129    92    91    1
   130   155   154   ar
   131   155   153   ar
   132    93    94    2
   133    86    87    2
   134   134   135    1
   135   154   152   ar
   136   138   135    1
   137   153   151   ar
   138   135   136    1
   139   152   149   ar
   140   151   149   ar
   141   151   150   ar
   142   137   136    2
   143   149   147   ar
   144   150   148   ar
   145   147   148   ar
   146   147   146    1
   147   143   146    1
   148   143   144    1
   149   143   142    1
   150   144   145    2
