@<TRIPOS>MOLECULE
tmp/3p5nA00.pdb
 186 176 0 0 0
SMALL
GASTEIGER

@<TRIPOS>ATOM
      1  N         22.1740    0.2930   73.3550 N.3    23  LYS23      -0.1245
      2  CA        22.5820   -0.6210   74.4240 C.3    23  LYS23       0.1561
      3  C         23.8790   -0.1130   75.0120 C.2    23  LYS23       0.2260
      4  O         24.6370    0.5550   74.3120 O.2    23  LYS23      -0.2867
      5  CB        22.7690   -2.0510   73.8910 C.3    23  LYS23       0.0271
      6  CG        23.6550   -2.2060   72.6490 C.3    23  LYS23       0.0035
      7  CD        23.6440   -3.6700   72.1690 C.3    23  LYS23       0.0206
      8  CE        24.1180   -3.8370   70.7210 C.3    23  LYS23       0.1093
      9  NZ        23.9980   -5.2490   70.2290 N.3    23  LYS23      -0.1314
     10  N         30.4830   -7.5000   79.2900 N.3    31  PRO31      -0.2102
     11  CA        30.0160   -6.6270   78.2030 C.3    31  PRO31       0.1504
     12  C         29.1420   -7.3020   77.1410 C.2    31  PRO31       0.2576
     13  O         28.6610   -6.6150   76.2340 O.2    31  PRO31      -0.2718
     14  CB        31.3230   -6.1240   77.5700 C.3    31  PRO31       0.0282
     15  CG        32.4490   -6.9060   78.2640 C.3    31  PRO31       0.0208
     16  CD        31.8030   -8.0550   78.9790 C.3    31  PRO31       0.0893
     17  N         28.9530   -8.6150   77.2300 N.am   32  TYR32      -0.1963
     18  CA        27.9720   -9.2770   76.3770 C.3    32  TYR32       0.1771
     19  C         26.5850   -9.0260   76.9420 C.2    32  TYR32       0.2619
     20  O         25.5730   -9.2500   76.2760 O.2    32  TYR32      -0.2715
     21  CB        28.2440  -10.7760   76.2330 C.3    32  TYR32       0.0574
     22  CG        28.9480  -11.4370   77.4030 C.ar   32  TYR32      -0.0198
     23  CD1       30.0030  -10.8060   78.0570 C.ar   32  TYR32      -0.0009
     24  CD2       28.5910  -12.7180   77.8190 C.ar   32  TYR32      -0.0009
     25  CE1       30.6660  -11.4140   79.1070 C.ar   32  TYR32       0.0417
     26  CE2       29.2510  -13.3400   78.8690 C.ar   32  TYR32       0.0417
     27  CZ        30.2890  -12.6790   79.5140 C.ar   32  TYR32       0.1957
     28  OH        30.9570  -13.2760   80.5650 O.3    32  TYR32      -0.2866
     29  N         26.5620   -8.5600   78.1870 N.am   33  LEU33      -0.1963
     30  CA        25.3440   -8.1180   78.8460 C.3    33  LEU33       0.1728
     31  C         25.2500   -6.6020   78.6820 C.2    33  LEU33       0.2617
     32  O         25.9610   -5.8550   79.3550 O.2    33  LEU33      -0.2715
     33  CB        25.4060   -8.4940   80.3280 C.3    33  LEU33       0.0311
     34  CG        25.8880   -9.9080   80.7040 C.3    33  LEU33       0.0022
     35  CD1       26.6130   -9.9030   82.0450 C.3    33  LEU33       0.0001
     36  CD2       24.7510  -10.9210   80.7270 C.3    33  LEU33       0.0001
     37  N         24.3780   -6.1500   77.7860 N.am   34  THR34      -0.1937
     38  CA        24.4020   -4.7550   77.3520 C.3    34  THR34       0.2028
     39  C         23.3360   -3.8360   77.9620 C.2    34  THR34       0.2642
     40  O         23.6470   -2.6980   78.3060 O.2    34  THR34      -0.2714
     41  CB        24.3510   -4.6350   75.8170 C.3    34  THR34       0.1808
     42  OG1       23.1430   -5.2330   75.3260 O.3    34  THR34      -0.2208
     43  CG2       25.5600   -5.3150   75.1840 C.3    34  THR34       0.0379
     44  N         22.0900   -4.3050   78.0680 N.am   35  LEU35      -0.1963
     45  CA        21.0160   -3.5240   78.7110 C.3    35  LEU35       0.1728
     46  C         20.3820   -2.4010   77.8700 C.2    35  LEU35       0.2616
     47  O         21.0180   -1.3930   77.5720 O.2    35  LEU35      -0.2715
     48  CB        21.5180   -2.9280   80.0300 C.3    35  LEU35       0.0311
     49  CG        20.6500   -1.8570   80.6870 C.3    35  LEU35       0.0022
     50  CD1       19.4190   -2.4720   81.3130 C.3    35  LEU35       0.0001
     51  CD2       21.4520   -1.1400   81.7310 C.3    35  LEU35       0.0001
     52  N         19.1050   -2.5660   77.5360 N.am   36  ASP36      -0.1971
     53  CA        18.3510   -1.5850   76.7480 C.3    36  ASP36       0.1709
     54  C         16.8570   -1.5950   77.1130 C.2    36  ASP36       0.2293
     55  O         16.3500   -2.5340   77.7430 O.2    36  ASP36      -0.2864
     56  CB        18.5100   -1.8690   75.2580 C.3    36  ASP36       0.1436
     57  CG        18.1550   -3.3110   74.8950 C.2    36  ASP36       0.3671
     58  OD1       18.0210   -4.1640   75.8050 O.co2  36  ASP36      -0.2456
     59  OD2       18.0170   -3.5940   73.6860 O.co2  36  ASP36      -0.2456
     60  N         17.0900   -7.6650   65.5900 N.3    65  ASN65      -0.1240
     61  CA        18.4010   -7.4130   66.1820 C.3    65  ASN65       0.1653
     62  C         19.3580   -8.5310   65.8380 C.2    65  ASN65       0.2266
     63  O         20.5470   -8.2840   65.6930 O.2    65  ASN65      -0.2867
     64  CB        18.3280   -7.2500   67.7050 C.3    65  ASN65       0.1155
     65  CG        19.7080   -7.0610   68.3510 C.2    65  ASN65       0.2627
     66  OD1       20.4950   -6.1980   67.9300 O.2    65  ASN65      -0.2716
     67  ND2       19.9980   -7.8610   69.3890 N.am   65  ASN65      -0.0877
     68  N         26.7020  -11.8830   67.2770 N.3    72  ASP72      -0.1239
     69  CA        26.2550  -12.3680   68.5760 C.3    72  ASP72       0.1674
     70  C         24.9170  -13.0700   68.3710 C.2    72  ASP72       0.2266
     71  O         23.8610  -12.4550   68.5070 O.2    72  ASP72      -0.2867
     72  CB        26.1090  -11.2150   69.5680 C.3    72  ASP72       0.1410
     73  CG        26.2730  -11.6690   70.9930 C.2    72  ASP72       0.3668
     74  OD1       26.4740  -10.8070   71.8770 O.co2  72  ASP72      -0.2456
     75  OD2       26.2180  -12.9000   71.2190 O.co2  72  ASP72      -0.2456
     76  N         23.5670  -15.4320   69.9810 N.3    74  VAL74      -0.1231
     77  CA        23.0740  -15.9790   71.2480 C.3    74  VAL74       0.1692
     78  C         22.4790  -14.8470   72.0840 C.2    74  VAL74       0.2593
     79  O         21.3710  -14.9570   72.6060 O.2    74  VAL74      -0.2718
     80  CB        24.2170  -16.6490   72.0390 C.3    74  VAL74       0.0266
     81  CG1       25.5460  -16.0170   71.6630 C.3    74  VAL74       0.0020
     82  CG2       23.9790  -16.5600   73.5370 C.3    74  VAL74       0.0020
     83  N         23.2190  -13.7470   72.1730 N.am   75  GLY75      -0.1943
     84  CA        22.7620  -12.5590   72.8670 C.3    75  GLY75       0.1998
     85  C         21.3060  -12.2400   72.6180 C.2    75  GLY75       0.2480
     86  O         20.5640  -12.0010   73.5650 O.2    75  GLY75      -0.2729
     87  N         20.9010  -12.1870   71.3410 N.am   76  PRO76      -0.2726
     88  CA        19.4870  -12.0890   70.9830 C.3    76  PRO76       0.1402
     89  C         18.6330  -13.0680   71.7830 C.2    76  PRO76       0.2269
     90  O         17.5750  -12.7080   72.3070 O.2    76  PRO76      -0.2865
     91  CB        19.4820  -12.4750   69.4950 C.3    76  PRO76       0.0296
     92  CG        20.9410  -12.3450   69.0240 C.3    76  PRO76       0.0237
     93  CD        21.7590  -11.8600   70.1930 C.3    76  PRO76       0.0939
     94  N         19.2240  -14.7930   74.7140 N.3    78  ALA78      -0.1231
     95  CA        19.2040  -14.5040   76.1450 C.3    78  ALA78       0.1694
     96  C         18.3180  -13.2980   76.4470 C.2    78  ALA78       0.2592
     97  O         17.5920  -13.2890   77.4420 O.2    78  ALA78      -0.2718
     98  CB        20.6110  -14.2620   76.6590 C.3    78  ALA78       0.0304
     99  N         18.3830  -12.2840   75.5880 N.am   79  ASN79      -0.1974
    100  CA        17.5570  -11.0930   75.7390 C.3    79  ASN79       0.1688
    101  C         16.0780  -11.4360   75.5990 C.2    79  ASN79       0.2292
    102  O         15.2350  -10.9200   76.3330 O.2    79  ASN79      -0.2864
    103  CB        17.9730  -10.0320   74.7260 C.3    79  ASN79       0.1181
    104  CG        17.2530   -8.7230   74.9230 C.2    79  ASN79       0.2629
    105  OD1       17.5830   -7.9450   75.8190 O.2    79  ASN79      -0.2716
    106  ND2       16.2670   -8.4620   74.0780 N.am   79  ASN79      -0.0877
    107  N         15.0520  -13.5920   79.0230 N.3    82  ALA82      -0.1245
    108  CA        14.8280  -12.6590   80.1230 C.3    82  ALA82       0.1562
    109  C         13.5280  -11.8870   79.8980 C.2    82  ALA82       0.2260
    110  O         12.6380  -11.8920   80.7400 O.2    82  ALA82      -0.2867
    111  CB        16.0030  -11.7030   80.2550 C.3    82  ALA82       0.0290
    112  N         13.1930  -13.8490   86.6100 N.3   114  MET114     -0.1245
    113  CA        14.1180  -13.5730   85.5240 C.3   114  MET114      0.1570
    114  C         15.5470  -13.8520   85.9430 C.2   114  MET114      0.2261
    115  O         16.2640  -14.5440   85.2400 O.2   114  MET114     -0.2867
    116  CB        13.9710  -12.1270   85.0440 C.3   114  MET114      0.0387
    117  CG        15.1160  -11.6360   84.1710 C.3   114  MET114      0.0595
    118  SD        15.1860   -9.8250   84.0660 S.3   114  MET114     -0.1393
    119  CE        14.2250   -9.4730   82.5840 C.3   114  MET114      0.0692
    120  N         17.4850  -17.1520   84.5300 N.3   118  LEU118     -0.1245
    121  CA        18.5600  -16.7960   83.6150 C.3   118  LEU118      0.1561
    122  C         19.9240  -17.1260   84.1450 C.2   118  LEU118      0.2260
    123  O         20.7950  -17.4910   83.3810 O.2   118  LEU118     -0.2867
    124  CB        18.5100  -15.3390   83.1720 C.3   118  LEU118      0.0270
    125  CG        18.2560  -15.2650   81.6640 C.3   118  LEU118      0.0019
    126  CD1       16.8530  -15.7710   81.3300 C.3   118  LEU118      0.0001
    127  CD2       18.4490  -13.8650   81.1370 C.3   118  LEU118      0.0001
    128  N         21.9350  -19.6900   82.0390 N.3   122  ASN122     -0.1240
    129  CA        23.2580  -19.1560   81.7620 C.3   122  ASN122      0.1653
    130  C         24.3770  -20.1260   82.1100 C.2   122  ASN122      0.2266
    131  O         25.4280  -20.0790   81.4720 O.2   122  ASN122     -0.2867
    132  CB        23.4670  -17.7820   82.3870 C.3   122  ASN122      0.1155
    133  CG        23.0970  -16.6580   81.4320 C.2   122  ASN122      0.2627
    134  OD1       23.2580  -16.7890   80.2190 O.2   122  ASN122     -0.2716
    135  ND2       22.5960  -15.5500   81.9750 N.am  122  ASN122     -0.0877
    136  N         24.4760  -21.7150   78.6330 N.3   125  VAL125     -0.1231
    137  CA        24.3760  -20.7310   77.5440 C.3   125  VAL125      0.1692
    138  C         25.5860  -19.7900   77.5360 C.2   125  VAL125      0.2591
    139  O         25.9120  -19.1820   76.5020 O.2   125  VAL125     -0.2718
    140  CB        23.0900  -19.8820   77.6100 C.3   125  VAL125      0.0266
    141  CG1       23.3980  -18.4190   77.3560 C.3   125  VAL125      0.0020
    142  CG2       22.0840  -20.3760   76.6000 C.3   125  VAL125      0.0020
    143  N         26.2750  -19.6820   78.6710 N.am  126  LEU126     -0.1980
    144  CA        27.5220  -18.9260   78.6850 C.3   126  LEU126      0.1596
    145  C         28.5520  -19.6780   77.8400 C.2   126  LEU126      0.2287
    146  O         29.3410  -19.0870   77.0850 O.2   126  LEU126     -0.2864
    147  CB        28.0030  -18.6860   80.1110 C.3   126  LEU126      0.0297
    148  CG        27.2420  -17.5510   80.8070 C.3   126  LEU126      0.0022
    149  CD1       27.5380  -17.4960   82.3040 C.3   126  LEU126      0.0001
    150  CD2       27.5550  -16.2230   80.1390 C.3   126  LEU126      0.0001
    151  N         28.0970  -18.8660   74.1970 N.3   129  LEU129     -0.1245
    152  CA        28.7890  -17.6150   73.8500 C.3   129  LEU129      0.1561
    153  C         30.2870  -17.7190   74.0960 C.2   129  LEU129      0.2260
    154  O         30.9730  -16.7060   74.1750 O.2   129  LEU129     -0.2867
    155  CB        28.2130  -16.3060   74.4260 C.3   129  LEU129      0.0270
    156  CG        28.8900  -15.1330   73.6550 C.3   129  LEU129      0.0019
    157  CD1       28.4540  -15.0830   72.1990 C.3   129  LEU129      0.0001
    158  CD2       28.7720  -13.7390   74.2600 C.3   129  LEU129      0.0001
    159  N         23.8900   -8.0920   87.1490 N.3   143  PHE143     -0.1227
    160  CA        23.2980   -7.4940   85.9580 C.3   143  PHE143      0.1736
    161  C         21.7910   -7.6680   85.9520 C.2   143  PHE143      0.2595
    162  O         21.0520   -6.6870   86.0380 O.2   143  PHE143     -0.2718
    163  CB        23.8750   -8.1060   84.6850 C.3   143  PHE143      0.0547
    164  CG        23.0920   -7.7640   83.4440 C.ar  143  PHE143     -0.0202
    165  CD1       23.3010   -6.5620   82.7820 C.ar  143  PHE143     -0.0042
    166  CD2       22.1480   -8.6460   82.9430 C.ar  143  PHE143     -0.0042
    167  CE1       22.5960   -6.2510   81.6440 C.ar  143  PHE143     -0.0003
    168  CE2       21.4330   -8.3410   81.8040 C.ar  143  PHE143     -0.0003
    169  CZ        21.6570   -7.1420   81.1520 C.ar  143  PHE143     -0.0000
    170  N         21.3540   -8.9220   85.8550 N.am  144  ASN144     -0.1974
    171  CA        19.9340   -9.2720   85.8050 C.3   144  ASN144      0.1688
    172  C         19.0550   -8.5010   86.7890 C.2   144  ASN144      0.2292
    173  O         17.9240   -8.0990   86.4650 O.2   144  ASN144     -0.2864
    174  CB        19.7730  -10.7550   86.0840 C.3   144  ASN144      0.1181
    175  CG        19.9410  -11.5920   84.8580 C.2   144  ASN144      0.2629
    176  OD1       19.0340  -11.6770   84.0390 O.2   144  ASN144     -0.2716
    177  ND2       21.0940  -12.2420   84.7300 N.am  144  ASN144     -0.0877
    178  N         18.6780   -4.8700   85.5460 N.3   147  LYS147     -0.1245
    179  CA        17.7500   -4.8740   84.4190 C.3   147  LYS147      0.1561
    180  C         16.3180   -5.0040   84.9520 C.2   147  LYS147      0.2260
    181  O         15.4330   -4.2100   84.5990 O.2   147  LYS147     -0.2867
    182  CB        18.0780   -5.9820   83.4100 C.3   147  LYS147      0.0271
    183  CG        17.9610   -5.5430   81.9480 C.3   147  LYS147      0.0035
    184  CD        17.8930   -6.7350   80.9920 C.3   147  LYS147      0.0206
    185  CE        17.6260   -6.3170   79.5380 C.3   147  LYS147      0.1093
    186  NZ        16.8000   -7.3340   78.7970 N.3   147  LYS147     -0.1314
@<TRIPOS>BOND
     1    60    61    1
     2    63    62    2
     3    62    61    1
     4    61    64    1
     5    68    69    1
     6    64    65    1
     7    66    65    2
     8    65    67   am
     9    70    71    2
    10    70    69    1
    11    69    72    1
    12    92    91    1
    13    92    93    1
    14    91    88    1
    15    72    73    1
    16    76    77    1
    17    93    87    1
    18     9     8    1
    19     8     7    1
    20    88    87    1
    21    88    89    1
    22    73    75   ar
    23    73    74   ar
    24    77    80    1
    25    77    78    1
    26    87    85   am
    27    81    80    1
    28    89    90    2
    29    80    82    1
    30    78    83   am
    31    78    79    2
    32     7     6    1
    33    83    84    1
    34   157   156    1
    35    85    84    1
    36    85    86    2
    37     6     5    1
    38     1     2    1
    39   156   158    1
    40   156   155    1
    41    59    57   ar
    42   152   153    1
    43   152   151    1
    44   152   155    1
    45     5     2    1
    46   106   104   am
    47   153   154    2
    48     4     3    2
    49     2     3    1
    50    94    95    1
    51   103   104    1
    52   103   100    1
    53    57    56    1
    54    57    58   ar
    55   104   105    2
    56    43    41    1
    57    56    53    1
    58    42    41    1
    59    99   100    1
    60    99    96   am
    61   101   100    1
    62   101   102    2
    63    41    38    1
    64    95    96    1
    65    95    98    1
    66    21    18    1
    67    21    22    1
    68    13    12    2
    69    20    19    2
    70    18    19    1
    71    18    17    1
    72    96    97    2
    73   139   138    2
    74   142   140    1
    75    53    54    1
    76    53    52    1
    77    19    29   am
    78   146   145    2
    79    54    55    2
    80    12    17   am
    81    12    11    1
    82    38    37    1
    83    38    39    1
    84   141   140    1
    85    22    24   ar
    86    22    23   ar
    87   138   137    1
    88   138   143   am
    89    52    46   am
    90   137   140    1
    91   137   136    1
    92    14    11    1
    93    14    15    1
    94    47    46    2
    95    37    31   am
    96    24    26   ar
    97   145   144    1
    98    46    45    1
    99    39    44   am
   100    39    40    2
   101    23    25   ar
   102    44    45    1
   103    29    30    1
   104    11    10    1
   105    15    16    1
   106   143   144    1
   107    31    30    1
   108    31    32    2
   109   144   147    1
   110    45    48    1
   111   186   185    1
   112    30    33    1
   113    26    27   ar
   114    16    10    1
   115   107   108    1
   116    25    27   ar
   117    27    28    1
   118   185   184    1
   119   109   108    1
   120   109   110    2
   121    48    49    1
   122   147   148    1
   123   108   111    1
   124   150   148    1
   125   134   133    2
   126    33    34    1
   127    49    50    1
   128    49    51    1
   129    34    36    1
   130    34    35    1
   131   148   149    1
   132   184   183    1
   133   127   125    1
   134   169   167   ar
   135   169   168   ar
   136   126   125    1
   137   133   135   am
   138   133   132    1
   139   131   130    2
   140   167   165   ar
   141   125   124    1
   142   129   128    1
   143   129   130    1
   144   129   132    1
   145   168   166   ar
   146   183   182    1
   147   119   118    1
   148   165   164   ar
   149   166   164   ar
   150   124   121    1
   151   123   122    2
   152   182   179    1
   153   164   163    1
   154   121   122    1
   155   121   120    1
   156   176   175    2
   157   118   117    1
   158   117   116    1
   159   179   180    1
   160   179   178    1
   161   181   180    2
   162   163   160    1
   163   177   175   am
   164   175   174    1
   165   116   113    1
   166   115   114    2
   167   113   114    1
   168   113   112    1
   169   171   170    1
   170   171   174    1
   171   171   172    1
   172   170   161   am
   173   161   160    1
   174   161   162    2
   175   160   159    1
   176   173   172    2
