@<TRIPOS>MOLECULE
tmp/3p5oA00.pdb
 141 139 0 0 0
SMALL
GASTEIGER

@<TRIPOS>ATOM
      1  N         33.5360   44.7240    1.2360 N.3    40  TRP40      -0.1228
      2  CA        33.6940   46.0950    1.7660 C.3    40  TRP40       0.1722
      3  C         32.4070   46.9170    1.9680 C.2    40  TRP40       0.2437
      4  O         32.3090   47.6300    2.9650 O.2    40  TRP40      -0.2733
      5  CB        34.7340   46.9020    0.9640 C.3    40  TRP40       0.0563
      6  CG        34.4110   47.0910   -0.4830 C.ar   40  TRP40       0.0003
      7  CD1       34.7740   46.2720   -1.5170 C.ar   40  TRP40       0.0946
      8  CD2       33.6690   48.1660   -1.0660 C.ar   40  TRP40       0.0152
      9  NE1       34.2960   46.7640   -2.7020 N.ar   40  TRP40      -0.2442
     10  CE2       33.6100   47.9240   -2.4560 C.ar   40  TRP40       0.0810
     11  CE3       33.0340   49.3030   -0.5500 C.ar   40  TRP40       0.0012
     12  CZ2       32.9530   48.7830   -3.3390 C.ar   40  TRP40       0.0191
     13  CZ3       32.3750   50.1500   -1.4260 C.ar   40  TRP40       0.0001
     14  CH2       32.3450   49.8880   -2.8060 C.ar   40  TRP40       0.0015
     15  N         31.4120   46.8190    1.0560 N.am   41  PRO41      -0.2718
     16  CA        30.2160   47.6340    1.3260 C.3    41  PRO41       0.1535
     17  C         29.4230   47.1700    2.5520 C.2    41  PRO41       0.2598
     18  O         28.6170   47.9360    3.0940 O.2    41  PRO41      -0.2715
     19  CB        29.3650   47.4630    0.0550 C.3    41  PRO41       0.0310
     20  CG        30.2790   46.8870   -0.9660 C.3    41  PRO41       0.0237
     21  CD        31.2560   46.0540   -0.1940 C.3    41  PRO41       0.0939
     22  N         29.6650   45.9310    2.9720 N.am   42  PHE42      -0.1974
     23  CA        28.9310   45.2920    4.0570 C.3    42  PHE42       0.1639
     24  C         29.7210   45.2490    5.3710 C.2    42  PHE42       0.2290
     25  O         29.2430   44.6880    6.3560 O.2    42  PHE42      -0.2864
     26  CB        28.5420   43.8650    3.6380 C.3    42  PHE42       0.0560
     27  CG        27.7520   43.8090    2.3560 C.ar   42  PHE42      -0.0200
     28  CD1       26.3820   44.0180    2.3620 C.ar   42  PHE42      -0.0042
     29  CD2       28.3850   43.5820    1.1380 C.ar   42  PHE42      -0.0042
     30  CE1       25.6450   43.9870    1.1780 C.ar   42  PHE42      -0.0003
     31  CE2       27.6530   43.5450   -0.0520 C.ar   42  PHE42      -0.0003
     32  CZ        26.2850   43.7550   -0.0300 C.ar   42  PHE42      -0.0000
     33  N         30.4790   47.6500    7.4380 N.3    44  GLN44      -0.1231
     34  CA        30.0770   48.6770    8.3970 C.3    44  GLN44       0.1683
     35  C         28.6460   49.0760    8.0760 C.2    44  GLN44       0.2434
     36  O         28.1700   48.7990    6.9770 O.2    44  GLN44      -0.2733
     37  CB        31.0110   49.9050    8.3190 C.3    44  GLN44       0.0380
     38  CG        31.0650   50.6250    6.9590 C.3    44  GLN44       0.0905
     39  CD        31.7580   49.8040    5.8850 C.2    44  GLN44       0.2608
     40  OE1       32.8970   49.3670    6.0650 O.2    44  GLN44      -0.2717
     41  NE2       31.0640   49.5680    4.7720 N.am   44  GLN44      -0.0878
     42  N         27.9530   49.7370    9.0210 N.am   45  PRO45      -0.2718
     43  CA        26.6120   50.2420    8.7140 C.3    45  PRO45       0.1535
     44  C         26.5800   51.1230    7.4670 C.2    45  PRO45       0.2598
     45  O         27.5290   51.8600    7.2040 O.2    45  PRO45      -0.2715
     46  CB        26.2530   51.0640    9.9580 C.3    45  PRO45       0.0310
     47  CG        26.9940   50.4170   11.0500 C.3    45  PRO45       0.0237
     48  CD        28.3110   49.9770   10.4310 C.3    45  PRO45       0.0939
     49  N         25.4980   51.0300    6.6980 N.am   46  VAL46      -0.1964
     50  CA        25.3130   51.9070    5.5430 C.3    46  VAL46       0.1727
     51  C         25.3840   53.3680    5.9950 C.2    46  VAL46       0.2616
     52  O         24.6150   53.8000    6.8530 O.2    46  VAL46      -0.2715
     53  CB        23.9800   51.6340    4.8170 C.3    46  VAL46       0.0290
     54  CG1       23.7120   52.7130    3.7530 C.3    46  VAL46       0.0023
     55  CG2       23.9980   50.2530    4.1710 C.3    46  VAL46       0.0023
     56  N         26.3320   54.1130    5.4350 N.am   47  ASP47      -0.1971
     57  CA        26.4960   55.5290    5.7430 C.3    47  ASP47       0.1709
     58  C         25.6860   56.3340    4.7320 C.2    47  ASP47       0.2293
     59  O         26.1720   56.6570    3.6370 O.2    47  ASP47      -0.2864
     60  CB        27.9780   55.9110    5.6890 C.3    47  ASP47       0.1436
     61  CG        28.2430   57.3310    6.1590 C.2    47  ASP47       0.3671
     62  OD1       27.3050   58.1570    6.1950 O.co2  47  ASP47      -0.2456
     63  OD2       29.4140   57.6280    6.4860 O.co2  47  ASP47      -0.2456
     64  N         27.2050   58.3820    1.4000 N.3    51  LEU51      -0.1245
     65  CA        26.7400   57.7670    0.1530 C.3    51  LEU51       0.1561
     66  C         25.5980   58.5400   -0.5260 C.2    51  LEU51       0.2260
     67  O         25.1520   58.1550   -1.6060 O.2    51  LEU51      -0.2867
     68  CB        26.3050   56.3180    0.4010 C.3    51  LEU51       0.0270
     69  CG        27.4030   55.3750    0.9050 C.3    51  LEU51       0.0019
     70  CD1       26.8130   54.0810    1.4470 C.3    51  LEU51       0.0001
     71  CD2       28.4190   55.0690   -0.1930 C.3    51  LEU51       0.0001
     72  N         22.3320   58.8540    0.3050 N.3    53  LEU53      -0.1245
     73  CA        21.1470   58.0060    0.2360 C.3    53  LEU53       0.1561
     74  C         20.1400   58.4720    1.2980 C.2    53  LEU53       0.2260
     75  O         19.8610   57.7570    2.2630 O.2    53  LEU53      -0.2867
     76  CB        21.5290   56.5380    0.4630 C.3    53  LEU53       0.0270
     77  CG        22.5930   55.9280   -0.4550 C.3    53  LEU53       0.0019
     78  CD1       22.9080   54.4850    0.0070 C.3    53  LEU53       0.0001
     79  CD2       22.1730   55.9470   -1.9100 C.3    53  LEU53       0.0001
     80  N         17.4690   55.9880    2.5140 N.3    56  TYR56      -0.1241
     81  CA        17.8400   54.6190    2.8940 C.3    56  TYR56       0.1605
     82  C         17.1420   54.1570    4.1780 C.2    56  TYR56       0.2264
     83  O         16.5490   53.0740    4.2160 O.2    56  TYR56      -0.2867
     84  CB        19.3640   54.4410    3.0300 C.3    56  TYR56       0.0534
     85  CG        19.7350   52.9930    3.2830 C.ar   56  TYR56      -0.0201
     86  CD1       19.9080   52.0970    2.2260 C.ar   56  TYR56      -0.0009
     87  CD2       19.8430   52.5000    4.5840 C.ar   56  TYR56      -0.0009
     88  CE1       20.2140   50.7520    2.4650 C.ar   56  TYR56       0.0417
     89  CE2       20.1420   51.1760    4.8300 C.ar   56  TYR56       0.0417
     90  CZ        20.3340   50.3000    3.7710 C.ar   56  TYR56       0.1957
     91  OH        20.6150   48.9770    4.0420 O.3    56  TYR56      -0.2866
     92  N         19.5500   44.7130    1.3950 N.3    95  CYS95      -0.1235
     93  CA        20.2160   45.0640    0.1460 C.3    95  CYS95       0.1677
     94  C         19.2810   44.8460   -1.0450 C.2    95  CYS95       0.2270
     95  O         19.1600   45.7120   -1.9230 O.2    95  CYS95      -0.2867
     96  CB        21.4970   44.2480   -0.0120 C.3    95  CYS95       0.0956
     97  SG        22.5440   44.7610   -1.3820 S.3    95  CYS95      -0.0801
     98  N         16.2470   47.5320   -0.8590 N.3    98  TYR98      -0.1227
     99  CA        16.5880   48.9120   -1.2060 C.3    98  TYR98       0.1736
    100  C         16.9510   49.0790   -2.6870 C.2    98  TYR98       0.2595
    101  O         16.5490   50.0510   -3.3290 O.2    98  TYR98      -0.2718
    102  CB        17.7290   49.4480   -0.3290 C.3    98  TYR98       0.0548
    103  CG        18.0110   50.8960   -0.6370 C.ar   98  TYR98      -0.0200
    104  CD1       17.1130   51.8920   -0.2550 C.ar   98  TYR98      -0.0009
    105  CD2       19.1320   51.2660   -1.3670 C.ar   98  TYR98      -0.0009
    106  CE1       17.3410   53.2170   -0.5700 C.ar   98  TYR98       0.0417
    107  CE2       19.3700   52.5900   -1.6880 C.ar   98  TYR98       0.0417
    108  CZ        18.4770   53.5640   -1.2820 C.ar   98  TYR98       0.1957
    109  OH        18.7110   54.8840   -1.6030 O.3    98  TYR98      -0.2866
    110  N         17.7050   48.1270   -3.2230 N.am   99  ASN99      -0.1974
    111  CA        18.3170   48.2800   -4.5440 C.3    99  ASN99       0.1688
    112  C         17.5200   47.6520   -5.6800 C.2    99  ASN99       0.2292
    113  O         16.5190   46.9820   -5.4500 O.2    99  ASN99      -0.2864
    114  CB        19.7390   47.7290   -4.4970 C.3    99  ASN99       0.1181
    115  CG        20.6330   48.5500   -3.5900 C.2    99  ASN99       0.2629
    116  OD1       20.9710   49.6830   -3.9210 O.2    99  ASN99      -0.2716
    117  ND2       20.9980   47.9960   -2.4320 N.am   99  ASN99      -0.0877
    118  N         25.0680   46.2840   -9.3020 N.3   104  ASP104     -0.1225
    119  CA        26.3510   45.7520   -8.8240 C.3   104  ASP104      0.1805
    120  C         26.2780   45.3150   -7.3630 C.2   104  ASP104      0.2597
    121  O         26.7400   44.2260   -7.0220 O.2   104  ASP104     -0.2718
    122  CB        27.4800   46.7930   -8.9670 C.3   104  ASP104      0.1424
    123  CG        28.0270   46.8950  -10.3810 C.2   104  ASP104      0.3668
    124  OD1       27.8120   45.9660  -11.1890 O.co2 104  ASP104     -0.2456
    125  OD2       28.6830   47.9220  -10.6760 O.co2 104  ASP104     -0.2456
    126  N         25.7110   46.1650   -6.5050 N.am  105  ILE105     -0.1980
    127  CA        25.6250   45.8580   -5.0670 C.3   105  ILE105      0.1595
    128  C         24.8010   44.5890   -4.7990 C.2   105  ILE105      0.2287
    129  O         25.1190   43.8270   -3.8840 O.2   105  ILE105     -0.2864
    130  CB        25.0700   47.0610   -4.2390 C.3   105  ILE105      0.0276
    131  CG1       25.2280   46.8150   -2.7300 C.3   105  ILE105      0.0022
    132  CG2       23.6050   47.3470   -4.5820 C.3   105  ILE105      0.0022
    133  CD1       26.6650   46.6780   -2.2620 C.3   105  ILE105      0.0001
    134  N         26.9410   41.6620   -5.6450 N.3   108  MET108     -0.1245
    135  CA        27.9040   41.4870   -4.5610 C.3   108  MET108      0.1570
    136  C         27.2600   40.7410   -3.3910 C.2   108  MET108      0.2261
    137  O         27.8260   39.7850   -2.8770 O.2   108  MET108     -0.2867
    138  CB        28.4410   42.8440   -4.1060 C.3   108  MET108      0.0387
    139  CG        29.2550   43.5490   -5.1820 C.3   108  MET108      0.0595
    140  SD        29.6780   45.2470   -4.7790 S.3   108  MET108     -0.1393
    141  CE        31.1240   44.9650   -3.7760 C.3   108  MET108      0.0692
@<TRIPOS>BOND
     1   124   123   ar
     2   125   123   ar
     3   123   122    1
     4   118   119    1
     5   122   119    1
     6   119   120    1
     7   120   121    2
     8   120   126   am
     9   126   127    1
    10   112   113    2
    11   112   111    1
    12   134   135    1
    13   139   140    1
    14   139   138    1
    15   127   128    1
    16   127   130    1
    17   128   129    2
    18   140   141    1
    19   132   130    1
    20   135   138    1
    21   135   136    1
    22   111   114    1
    23   111   110    1
    24   114   115    1
    25   130   131    1
    26   116   115    2
    27   115   117   am
    28   136   137    2
    29    12    14   ar
    30    12    10   ar
    31   101   100    2
    32   110   100   am
    33    14    13   ar
    34   131   133    1
    35     9    10   ar
    36     9     7   ar
    37   100    99    1
    38    10     8   ar
    39    95    94    2
    40    79    77    1
    41   107   105   ar
    42   107   108   ar
    43    67    66    2
    44   109   108    1
    45     7     6   ar
    46    13    11   ar
    47    97    96    1
    48   105   103   ar
    49   108   106   ar
    50    99    98    1
    51    99   102    1
    52     8    11   ar
    53     8     6   ar
    54    94    93    1
    55    20    21    1
    56    20    19    1
    57   103   102    1
    58   103   104   ar
    59   106   104   ar
    60    66    65    1
    61     6     5    1
    62    77    78    1
    63    77    76    1
    64    21    15    1
    65    71    69    1
    66    31    32   ar
    67    31    29   ar
    68    32    30   ar
    69    96    93    1
    70    19    16    1
    71    93    92    1
    72    65    68    1
    73    65    64    1
    74    73    72    1
    75    73    76    1
    76    73    74    1
    77    68    69    1
    78    69    70    1
    79     5     2    1
    80    15    16    1
    81    15     3   am
    82    29    27   ar
    83    30    28   ar
    84     1     2    1
    85    74    75    2
    86    16    17    1
    87     2     3    1
    88     3     4    2
    89    86    88   ar
    90    86    85   ar
    91    27    28   ar
    92    27    26    1
    93    88    90   ar
    94    80    81    1
    95    17    22   am
    96    17    18    2
    97    81    84    1
    98    81    82    1
    99    22    23    1
   100    84    85    1
   101    85    87   ar
   102    59    58    2
   103    26    23    1
   104    54    53    1
   105    90    91    1
   106    90    89   ar
   107    23    24    1
   108    55    53    1
   109    82    83    2
   110    87    89   ar
   111    58    57    1
   112    41    39   am
   113    53    50    1
   114    24    25    2
   115    56    57    1
   116    56    51   am
   117    50    51    1
   118    50    49    1
   119    60    57    1
   120    60    61    1
   121    39    40    2
   122    39    38    1
   123    51    52    2
   124    61    62   ar
   125    61    63   ar
   126    49    44   am
   127    38    37    1
   128    36    35    2
   129    45    44    2
   130    33    34    1
   131    44    43    1
   132    35    34    1
   133    35    42   am
   134    37    34    1
   135    43    42    1
   136    43    46    1
   137    42    48    1
   138    46    47    1
   139    48    47    1
