@<TRIPOS>MOLECULE
tmp/3p5pA00.pdb
 224 212 0 0 0
SMALL
GASTEIGER

@<TRIPOS>ATOM
      1  N         20.6030  -11.8700  -10.6860 N.3   474  VAL474     -0.1245
      2  CA        20.7230  -10.5680  -11.3350 C.3   474  VAL474      0.1561
      3  C         19.7460   -9.5860  -10.6830 C.2   474  VAL474      0.2260
      4  O         20.1110   -8.4620  -10.3550 O.2   474  VAL474     -0.2867
      5  CB        20.4340  -10.6510  -12.8470 C.3   474  VAL474      0.0252
      6  CG1       20.4590   -9.2470  -13.4700 C.3   474  VAL474      0.0019
      7  CG2       21.4550  -11.5650  -13.5350 C.3   474  VAL474      0.0019
      8  N         20.8600   -8.1610   -7.4330 N.3   477  SER477     -0.1217
      9  CA        21.9840   -7.2420   -7.5880 C.3   477  SER477      0.1889
     10  C         21.5480   -5.8260   -7.9510 C.2   477  SER477      0.2288
     11  O         22.3370   -4.8960   -7.8300 O.2   477  SER477     -0.2866
     12  CB        22.9680   -7.7650   -8.6540 C.3   477  SER477      0.2089
     13  OG        23.4420   -9.0580   -8.3180 O.3   477  SER477     -0.2183
     14  N         16.1950   -3.7130  -15.9170 N.3   492  PHE492     -0.1241
     15  CA        17.5720   -3.9890  -15.5340 C.3   492  PHE492      0.1605
     16  C         17.8230   -5.4960  -15.5170 C.2   492  PHE492      0.2264
     17  O         18.8550   -5.9580  -15.9870 O.2   492  PHE492     -0.2867
     18  CB        17.8780   -3.3900  -14.1520 C.3   492  PHE492      0.0534
     19  CG        19.1230   -3.9530  -13.5050 C.ar  492  PHE492     -0.0203
     20  CD1       19.0460   -5.0840  -12.7040 C.ar  492  PHE492     -0.0042
     21  CD2       20.3580   -3.3590  -13.7070 C.ar  492  PHE492     -0.0042
     22  CE1       20.1880   -5.6250  -12.1120 C.ar  492  PHE492     -0.0003
     23  CE2       21.5070   -3.8840  -13.1180 C.ar  492  PHE492     -0.0003
     24  CZ        21.4130   -5.0260  -12.3140 C.ar  492  PHE492     -0.0000
     25  N         20.4430   -7.3920  -17.8220 N.3   496  GLY496     -0.1225
     26  CA        21.5000   -8.1180  -17.1360 C.3   496  GLY496      0.1811
     27  C         21.5460   -9.5840  -17.5500 C.2   496  GLY496      0.2280
     28  O         22.6230  -10.1420  -17.7490 O.2   496  GLY496     -0.2866
     29  N         23.2020   -9.7370  -20.7810 N.3   499  GLN499     -0.1231
     30  CA        24.6420   -9.5240  -20.5920 C.3   499  GLN499      0.1698
     31  C         25.3510  -10.7770  -20.0670 C.2   499  GLN499      0.2592
     32  O         26.4760  -11.0610  -20.4590 O.2   499  GLN499     -0.2718
     33  CB        24.9250   -8.3440  -19.6550 C.3   499  GLN499      0.0381
     34  CG        24.6590   -6.9870  -20.2580 C.3   499  GLN499      0.0905
     35  CD        25.0240   -5.8590  -19.3080 C.2   499  GLN499      0.2608
     36  OE1       26.1790   -5.4500  -19.2210 O.2   499  GLN499     -0.2717
     37  NE2       24.0390   -5.3660  -18.5810 N.am  499  GLN499     -0.0878
     38  N         24.7030  -11.5060  -19.1630 N.am  500  VAL500     -0.1980
     39  CA        25.2580  -12.7700  -18.6900 C.3   500  VAL500      0.1595
     40  C         25.3590  -13.7400  -19.8630 C.2   500  VAL500      0.2287
     41  O         26.3800  -14.4030  -20.0560 O.2   500  VAL500     -0.2864
     42  CB        24.3990  -13.3940  -17.5810 C.3   500  VAL500      0.0276
     43  CG1       24.8710  -14.8200  -17.2830 C.3   500  VAL500      0.0022
     44  CG2       24.4540  -12.5280  -16.3280 C.3   500  VAL500      0.0022
     45  N         28.1680  -12.6400  -22.4210 N.3   503  ASP503     -0.1239
     46  CA        29.5340  -12.8970  -21.9830 C.3   503  ASP503      0.1674
     47  C         29.9300  -14.3620  -22.1980 C.2   503  ASP503      0.2266
     48  O         31.0240  -14.6490  -22.6780 O.2   503  ASP503     -0.2867
     49  CB        29.7280  -12.4890  -20.5260 C.3   503  ASP503      0.1410
     50  CG        31.1860  -12.5210  -20.1080 C.2   503  ASP503      0.3668
     51  OD1       31.9680  -11.6420  -20.5390 O.co2 503  ASP503     -0.2456
     52  OD2       31.5500  -13.4360  -19.3520 O.co2 503  ASP503     -0.2456
     53  N         32.9070  -15.8790  -24.9230 N.3   507  ASP507     -0.1239
     54  CA        33.9700  -16.7940  -24.5130 C.3   507  ASP507      0.1674
     55  C         33.8190  -18.1680  -25.1560 C.2   507  ASP507      0.2266
     56  O         34.4580  -18.4750  -26.1640 O.2   507  ASP507     -0.2867
     57  CB        33.9970  -16.9500  -22.9910 C.3   507  ASP507      0.1410
     58  CG        34.5890  -15.7460  -22.2910 C.2   507  ASP507      0.3668
     59  OD1       34.8780  -15.8530  -21.0810 O.co2 507  ASP507     -0.2456
     60  OD2       34.7720  -14.6980  -22.9490 O.co2 507  ASP507     -0.2456
     61  N         30.0590   -1.2550  -25.5300 N.3   574  TYR574     -0.1241
     62  CA        30.1890   -2.5500  -24.8690 C.3   574  TYR574      0.1605
     63  C         30.6800   -3.6150  -25.8400 C.2   574  TYR574      0.2264
     64  O         31.6950   -4.2690  -25.6050 O.2   574  TYR574     -0.2867
     65  CB        28.8240   -2.9390  -24.3190 C.3   574  TYR574      0.0534
     66  CG        28.7070   -4.2320  -23.5420 C.ar  574  TYR574     -0.0201
     67  CD1       27.9030   -5.2670  -24.0050 C.ar  574  TYR574     -0.0009
     68  CD2       29.3410   -4.3950  -22.3160 C.ar  574  TYR574     -0.0009
     69  CE1       27.7530   -6.4350  -23.2850 C.ar  574  TYR574      0.0417
     70  CE2       29.1970   -5.5580  -21.5920 C.ar  574  TYR574      0.0417
     71  CZ        28.4080   -6.5770  -22.0820 C.ar  574  TYR574      0.1957
     72  OH        28.2600   -7.7340  -21.3610 O.3   574  TYR574     -0.2866
     73  N         34.3270   -5.8230  -26.3960 N.3   578  TYR578     -0.1241
     74  CA        34.4320   -7.2680  -26.5480 C.3   578  TYR578      0.1605
     75  C         35.3780   -7.6410  -27.6870 C.2   578  TYR578      0.2264
     76  O         36.2250   -8.5280  -27.5380 O.2   578  TYR578     -0.2867
     77  CB        33.0640   -7.9010  -26.7930 C.3   578  TYR578      0.0534
     78  CG        32.4060   -8.4590  -25.5560 C.ar  578  TYR578     -0.0201
     79  CD1       32.7680   -9.7030  -25.0520 C.ar  578  TYR578     -0.0009
     80  CD2       31.4110   -7.7510  -24.9000 C.ar  578  TYR578     -0.0009
     81  CE1       32.1640  -10.2170  -23.9200 C.ar  578  TYR578      0.0417
     82  CE2       30.7980   -8.2590  -23.7750 C.ar  578  TYR578      0.0417
     83  CZ        31.1770   -9.4890  -23.2880 C.ar  578  TYR578      0.1957
     84  OH        30.5620   -9.9900  -22.1630 O.3   578  TYR578     -0.2866
     85  N         39.0290   -6.8210  -26.6680 N.3   581  GLU581     -0.1245
     86  CA        39.5530   -7.8640  -25.7840 C.3   581  GLU581      0.1567
     87  C         40.0480   -9.0640  -26.5820 C.2   581  GLU581      0.2260
     88  O         41.1320   -9.5850  -26.3260 O.2   581  GLU581     -0.2867
     89  CB        38.4910   -8.3440  -24.7920 C.3   581  GLU581      0.0388
     90  CG        38.0710   -7.3230  -23.7390 C.3   581  GLU581      0.1160
     91  CD        37.3040   -7.9700  -22.5940 C.2   581  GLU581      0.3649
     92  OE1       37.2330   -9.2180  -22.5470 O.co2 581  GLU581     -0.2457
     93  OE2       36.7770   -7.2370  -21.7340 O.co2 581  GLU581     -0.2457
     94  N         38.6970   -2.4310  -20.6300 N.3   600  TYR600     -0.1241
     95  CA        38.0760   -3.3510  -19.6780 C.3   600  TYR600      0.1605
     96  C         37.1580   -2.6930  -18.6460 C.2   600  TYR600      0.2264
     97  O         36.2950   -3.3600  -18.0800 O.2   600  TYR600     -0.2867
     98  CB        39.1410   -4.1730  -18.9610 C.3   600  TYR600      0.0534
     99  CG        39.6550   -5.3440  -19.7660 C.ar  600  TYR600     -0.0201
    100  CD1       39.2540   -6.6440  -19.4640 C.ar  600  TYR600     -0.0009
    101  CD2       40.5440   -5.1560  -20.8160 C.ar  600  TYR600     -0.0009
    102  CE1       39.7230   -7.7210  -20.1910 C.ar  600  TYR600      0.0417
    103  CE2       41.0200   -6.2290  -21.5480 C.ar  600  TYR600      0.0417
    104  CZ        40.6100   -7.5060  -21.2280 C.ar  600  TYR600      0.1957
    105  OH        41.0820   -8.5780  -21.9530 O.3   600  TYR600     -0.2866
    106  N         34.0470   -2.8080  -20.7680 N.3   603  SER603     -0.1202
    107  CA        33.5770   -4.1650  -21.0220 C.3   603  SER603      0.2020
    108  C         32.9580   -4.8430  -19.8050 C.2   603  SER603      0.2619
    109  O         32.1650   -5.7700  -19.9550 O.2   603  SER603     -0.2717
    110  CB        34.7120   -5.0350  -21.5700 C.3   603  SER603      0.2103
    111  OG        35.5840   -5.4170  -20.5260 O.3   603  SER603     -0.2182
    112  N         33.3130   -4.4030  -18.5960 N.am  604  VAL604     -0.1965
    113  CA        32.7720   -5.0530  -17.4070 C.3   604  VAL604      0.1727
    114  C         31.2460   -4.9180  -17.3950 C.2   604  VAL604      0.2616
    115  O         30.5490   -5.7840  -16.8710 O.2   604  VAL604     -0.2715
    116  CB        33.4320   -4.5680  -16.0810 C.3   604  VAL604      0.0290
    117  CG1       33.1930   -3.0840  -15.8560 C.3   604  VAL604      0.0023
    118  CG2       32.9180   -5.3790  -14.8990 C.3   604  VAL604      0.0023
    119  N         30.7370   -3.8320  -17.9760 N.am  605  GLY605     -0.1955
    120  CA        29.3400   -3.7850  -18.3940 C.3   605  GLY605      0.1869
    121  C         28.3440   -2.8970  -17.6590 C.2   605  GLY605      0.2309
    122  O         27.1450   -3.1990  -17.6490 O.2   605  GLY605     -0.2863
    123  N         23.4650   -1.9400  -18.6170 N.3   609  CYS609     -0.1235
    124  CA        22.5010   -2.2980  -17.5930 C.3   609  CYS609      0.1677
    125  C         21.9920   -1.0680  -16.8600 C.2   609  CYS609      0.2270
    126  O         21.1010   -1.1880  -16.0200 O.2   609  CYS609     -0.2867
    127  CB        23.0610   -3.3290  -16.6060 C.3   609  CYS609      0.0956
    128  SG        24.3510   -2.7000  -15.5090 S.3   609  CYS609     -0.0801
    129  N         34.0210   -1.7900  -10.4270 N.3   643  TRP643     -0.1227
    130  CA        33.5210   -3.0470  -10.9740 C.3   643  TRP643      0.1737
    131  C         34.6330   -3.9030  -11.5920 C.2   643  TRP643      0.2595
    132  O         34.8090   -5.0720  -11.2310 O.2   643  TRP643     -0.2718
    133  CB        32.4470   -2.7660  -12.0430 C.3   643  TRP643      0.0564
    134  CG        31.0590   -2.7580  -11.4850 C.ar  643  TRP643      0.0003
    135  CD1       30.6920   -2.5160  -10.1850 C.ar  643  TRP643      0.0946
    136  CD2       29.8490   -3.0030  -12.2090 C.ar  643  TRP643      0.0152
    137  NE1       29.3210   -2.6020  -10.0590 N.ar  643  TRP643     -0.2442
    138  CE2       28.7810   -2.9040  -11.2850 C.ar  643  TRP643      0.0810
    139  CE3       29.5640   -3.3080  -13.5480 C.ar  643  TRP643      0.0012
    140  CZ2       27.4490   -3.1000  -11.6590 C.ar  643  TRP643      0.0191
    141  CZ3       28.2360   -3.4950  -13.9240 C.ar  643  TRP643      0.0001
    142  CH2       27.1970   -3.3930  -12.9790 C.ar  643  TRP643      0.0015
    143  N         35.3600   -3.3110  -12.5310 N.am  644  ARG644     -0.1980
    144  CA        36.4050   -4.0150  -13.2710 C.3   644  ARG644      0.1597
    145  C         37.5210   -4.5020  -12.3470 C.2   644  ARG644      0.2287
    146  O         37.8660   -5.6910  -12.3450 O.2   644  ARG644     -0.2864
    147  CB        36.9720   -3.1230  -14.3830 C.3   644  ARG644      0.0334
    148  CG        38.2150   -3.6890  -15.1030 C.3   644  ARG644      0.0492
    149  CD        38.0860   -5.1880  -15.3980 C.3   644  ARG644      0.2205
    150  NE        37.1040   -5.4700  -16.4450 N.pl3 644  ARG644     -0.0865
    151  CZ        36.6690   -6.6870  -16.7540 C.cat 644  ARG644      0.5346
    152  NH1       37.1160   -7.7460  -16.0860 N.pl3 644  ARG644      0.1354
    153  NH2       35.7750   -6.8450  -17.7230 N.pl3 644  ARG644      0.1354
    154  N         36.4740   -7.1810   -9.7420 N.3   647  ASN647     -0.1240
    155  CA        36.2690   -8.4330  -10.4470 C.3   647  ASN647      0.1653
    156  C         37.6200   -9.0850  -10.7780 C.2   647  ASN647      0.2266
    157  O         37.8040  -10.2920  -10.5830 O.2   647  ASN647     -0.2867
    158  CB        35.4310   -8.2070  -11.7020 C.3   647  ASN647      0.1155
    159  CG        35.3740   -9.4210  -12.5740 C.2   647  ASN647      0.2627
    160  OD1       36.3650   -9.7720  -13.1890 O.2   647  ASN647     -0.2716
    161  ND2       34.2200  -10.0700  -12.6360 N.am  647  ASN647     -0.0877
    162  N         39.0650  -12.9140   -9.8400 N.3   651  THR651     -0.1218
    163  CA        38.9310  -13.9000  -10.9160 C.3   651  THR651      0.1862
    164  C         40.1200  -14.0020  -11.8670 C.2   651  THR651      0.2287
    165  O         40.1020  -14.8310  -12.7900 O.2   651  THR651     -0.2866
    166  CB        37.7010  -13.6070  -11.7980 C.3   651  THR651      0.1770
    167  OG1       37.8530  -12.3110  -12.3960 O.3   651  THR651     -0.2211
    168  CG2       36.4210  -13.6580  -10.9810 C.3   651  THR651      0.0375
    169  N         41.1710  -17.0940  -14.7020 N.3   655  GLU655     -0.1245
    170  CA        41.2390  -16.6670  -16.0970 C.3   655  GLU655      0.1567
    171  C         42.5970  -16.9620  -16.7310 C.2   655  GLU655      0.2260
    172  O         42.6800  -17.3610  -17.8950 O.2   655  GLU655     -0.2867
    173  CB        40.9000  -15.1820  -16.2110 C.3   655  GLU655      0.0388
    174  CG        39.4390  -14.9150  -15.8870 C.3   655  GLU655      0.1160
    175  CD        39.1350  -13.4590  -15.5960 C.2   655  GLU655      0.3649
    176  OE1       40.0540  -12.6150  -15.5480 O.co2 655  GLU655     -0.2457
    177  OE2       37.9460  -13.1650  -15.4180 O.co2 655  GLU655     -0.2457
    178  N         42.9700  -20.2980  -17.9070 N.3   658  ARG658     -0.1245
    179  CA        42.2040  -20.5390  -19.1270 C.3   658  ARG658      0.1563
    180  C         42.8500  -19.8980  -20.3490 C.2   658  ARG658      0.2260
    181  O         42.2760  -19.9080  -21.4370 O.2   658  ARG658     -0.2867
    182  CB        40.7650  -20.0350  -18.9780 C.3   658  ARG658      0.0307
    183  CG        39.8590  -20.9940  -18.2270 C.3   658  ARG658      0.0489
    184  CD        38.3970  -20.5880  -18.3260 C.3   658  ARG658      0.2205
    185  NE        37.9870  -19.7210  -17.2260 N.pl3 658  ARG658     -0.0865
    186  CZ        37.6640  -18.4390  -17.3610 C.cat 658  ARG658      0.5346
    187  NH1       37.6960  -17.8630  -18.5580 N.pl3 658  ARG658      0.1354
    188  NH2       37.3010  -17.7350  -16.2970 N.pl3 658  ARG658      0.1354
    189  N         26.8170   -4.6730   -5.5050 N.3   720  CYS720     -0.1221
    190  CA        26.7880   -6.0940   -5.8480 C.3   720  CYS720      0.1808
    191  C         28.1930   -6.6630   -6.0670 C.2   720  CYS720      0.2601
    192  O         28.5020   -7.7600   -5.6110 O.2   720  CYS720     -0.2717
    193  CB        25.8920   -6.3690   -7.0600 C.3   720  CYS720      0.0970
    194  SG        26.3810   -5.5710   -8.5790 S.3   720  CYS720     -0.0800
    195  N         29.0360   -5.9140   -6.7600 N.am  721  VAL721     -0.1979
    196  CA        30.4040   -6.3570   -7.0120 C.3   721  VAL721      0.1595
    197  C         31.2290   -6.4470   -5.7230 C.2   721  VAL721      0.2287
    198  O         31.9670   -7.4120   -5.5210 O.2   721  VAL721     -0.2864
    199  CB        31.1070   -5.4600   -8.0490 C.3   721  VAL721      0.0276
    200  CG1       32.6180   -5.6550   -8.0160 C.3   721  VAL721      0.0022
    201  CG2       30.5610   -5.7510   -9.4540 C.3   721  VAL721      0.0022
    202  N         29.9010   -9.6280   -3.9160 N.3   724  PHE724     -0.1227
    203  CA        30.1770  -10.9110   -4.5760 C.3   724  PHE724      0.1736
    204  C         31.6480  -11.1710   -4.9340 C.2   724  PHE724      0.2595
    205  O         32.0700  -12.3240   -5.0090 O.2   724  PHE724     -0.2718
    206  CB        29.2990  -11.0990   -5.8190 C.3   724  PHE724      0.0547
    207  CG        27.8350  -11.1560   -5.5100 C.ar  724  PHE724     -0.0202
    208  CD1       27.3600  -12.0180   -4.5320 C.ar  724  PHE724     -0.0042
    209  CD2       26.9360  -10.3500   -6.1890 C.ar  724  PHE724     -0.0042
    210  CE1       26.0120  -12.0750   -4.2310 C.ar  724  PHE724     -0.0003
    211  CE2       25.5860  -10.4070   -5.8970 C.ar  724  PHE724     -0.0003
    212  CZ        25.1240  -11.2700   -4.9160 C.ar  724  PHE724     -0.0000
    213  N         32.4210  -10.1160   -5.1710 N.am  725  TYR725     -0.1976
    214  CA        33.8060  -10.2920   -5.6090 C.3   725  TYR725      0.1639
    215  C         34.7950   -9.7830   -4.5730 C.2   725  TYR725      0.2290
    216  O         35.9270   -9.4350   -4.9080 O.2   725  TYR725     -0.2864
    217  CB        34.0650   -9.5890   -6.9440 C.3   725  TYR725      0.0560
    218  CG        33.2290  -10.0920   -8.0940 C.ar  725  TYR725     -0.0198
    219  CD1       32.1250   -9.3740   -8.5380 C.ar  725  TYR725     -0.0009
    220  CD2       33.5420  -11.2810   -8.7440 C.ar  725  TYR725     -0.0009
    221  CE1       31.3530   -9.8240   -9.5980 C.ar  725  TYR725      0.0417
    222  CE2       32.7740  -11.7400   -9.8090 C.ar  725  TYR725      0.0417
    223  CZ        31.6810  -11.0050  -10.2290 C.ar  725  TYR725      0.1957
    224  OH        30.9090  -11.4500  -11.2760 O.3   725  TYR725     -0.2866
@<TRIPOS>BOND
     1    75    76    2
     2    75    74    1
     3    77    74    1
     4    77    78    1
     5    85    86    1
     6    87    88    2
     7    87    86    1
     8    74    73    1
     9    56    55    2
    10    63    64    2
    11    63    62    1
    12    86    89    1
    13    78    79   ar
    14    78    80   ar
    15    61    62    1
    16    55    54    1
    17    79    81   ar
    18    53    54    1
    19    80    82   ar
    20    62    65    1
    21    89    90    1
    22    54    57    1
    23    65    66    1
    24    67    66   ar
    25    67    69   ar
    26    81    83   ar
    27    82    83   ar
    28    90    91    1
    29    66    68   ar
    30    83    84    1
    31    69    71   ar
    32    57    58    1
    33    60    58   ar
    34    48    47    2
    35    91    92   ar
    36    91    93   ar
    37    45    46    1
    38    68    70   ar
    39    58    59   ar
    40    47    46    1
    41    71    70   ar
    42    71    72    1
    43    46    49    1
    44   105   104    1
    45   110   107    1
    46   110   111    1
    47   103   104   ar
    48   103   101   ar
    49   181   180    2
    50   104   102   ar
    51   107   106    1
    52   107   108    1
    53   101    99   ar
    54    29    30    1
    55    94    95    1
    56    30    31    1
    57    30    33    1
    58    51    50   ar
    59    49    50    1
    60    32    31    2
    61   180   179    1
    62    34    33    1
    63    34    35    1
    64   102   100   ar
    65    50    52   ar
    66    31    38   am
    67    41    40    2
    68   109   108    2
    69    40    39    1
    70   108   112   am
    71    99   100   ar
    72    99    98    1
    73    95    98    1
    74    95    96    1
    75    35    36    2
    76    35    37   am
    77    38    39    1
    78   179   182    1
    79   179   178    1
    80   182   183    1
    81    39    42    1
    82    96    97    2
    83   123   124    1
    84   112   113    1
    85   187   186    1
    86   120   119    1
    87   120   121    1
    88   184   183    1
    89   184   185    1
    90   119   114   am
    91   172   171    2
    92    25    26    1
    93    28    27    2
    94   153   151    1
    95   121   122    2
    96   124   125    1
    97   124   127    1
    98    42    43    1
    99    42    44    1
   100    27    26    1
   101   113   114    1
   102   113   116    1
   103   114   115    2
   104   186   185    2
   105   186   188    1
   106   125   126    2
   107   151   150    2
   108   151   152    1
   109   171   170    1
   110   127   128    1
   111   150   149    1
   112   173   170    1
   113   173   174    1
   114   170   169    1
   115   116   117    1
   116   116   118    1
   117    17    16    2
   118    14    15    1
   119   174   175    1
   120   175   176   ar
   121   175   177   ar
   122    15    16    1
   123    15    18    1
   124   149   148    1
   125   148   147    1
   126   147   144    1
   127    18    19    1
   128   141   139   ar
   129   141   142   ar
   130    21    19   ar
   131    21    23   ar
   132   139   136   ar
   133     7     5    1
   134    19    20   ar
   135     6     5    1
   136   144   143    1
   137   144   145    1
   138   160   159    2
   139    23    24   ar
   140   142   140   ar
   141     5     2    1
   142   165   164    2
   143    20    22   ar
   144   161   159   am
   145   159   158    1
   146   143   131   am
   147   167   166    1
   148   145   146    2
   149    24    22   ar
   150   136   134   ar
   151   136   138   ar
   152   133   134    1
   153   133   130    1
   154   164   163    1
   155   166   168    1
   156   166   163    1
   157   158   155    1
   158   140   138   ar
   159   131   132    2
   160   131   130    1
   161   134   135   ar
   162     2     1    1
   163     2     3    1
   164   138   137   ar
   165   224   223    1
   166   130   129    1
   167   163   162    1
   168   156   157    2
   169   156   155    1
   170     3     4    2
   171   155   154    1
   172   223   222   ar
   173   223   221   ar
   174   135   137   ar
   175   222   220   ar
   176   221   219   ar
   177   201   199    1
   178   220   218   ar
   179    12    13    1
   180    12     9    1
   181   194   193    1
   182   219   218   ar
   183   218   217    1
   184   199   200    1
   185   199   196    1
   186    10    11    2
   187    10     9    1
   188     9     8    1
   189   193   190    1
   190   196   195    1
   191   196   197    1
   192   217   214    1
   193   195   191   am
   194   209   211   ar
   195   209   207   ar
   196   191   190    1
   197   191   192    2
   198   211   212   ar
   199   190   189    1
   200   206   207    1
   201   206   203    1
   202   197   198    2
   203   214   213    1
   204   214   215    1
   205   207   208   ar
   206   213   204   am
   207   205   204    2
   208   204   203    1
   209   212   210   ar
   210   216   215    2
   211   203   202    1
   212   208   210   ar
