@<TRIPOS>MOLECULE
tmp/3p5pA01.pdb
 87 83 0 0 0
SMALL
GASTEIGER

@<TRIPOS>ATOM
      1  N         17.6200  -19.8020  -12.2120 N.3   469  HIS469     -0.1226
      2  CA        18.0220  -19.1820  -10.9460 C.3   469  HIS469      0.1752
      3  C         18.9290  -17.9670  -11.1290 C.2   469  HIS469      0.2595
      4  O         19.0260  -17.1200  -10.2430 O.2   469  HIS469     -0.2718
      5  CB        18.6710  -20.2010   -9.9950 C.3   469  HIS469      0.0759
      6  CG        20.0370  -20.6450  -10.4170 C.ar  469  HIS469      0.0818
      7  ND1       21.1270  -19.8010  -10.4250 N.ar  469  HIS469     -0.2268
      8  CD2       20.4950  -21.8540  -10.8230 C.ar  469  HIS469      0.1154
      9  CE1       22.1950  -20.4660  -10.8320 C.ar  469  HIS469      0.1986
     10  NE2       21.8380  -21.7140  -11.0800 N.ar  469  HIS469     -0.2212
     11  N         19.5950  -17.8770  -12.2750 N.am  470  ARG470     -0.1980
     12  CA        20.4230  -16.7130  -12.5480 C.3   470  ARG470      0.1597
     13  C         19.5530  -15.4500  -12.6180 C.2   470  ARG470      0.2287
     14  O         20.0060  -14.3520  -12.2860 O.2   470  ARG470     -0.2864
     15  CB        21.2250  -16.9140  -13.8390 C.3   470  ARG470      0.0334
     16  CG        22.1400  -15.7590  -14.2110 C.3   470  ARG470      0.0492
     17  CD        22.9480  -15.2440  -13.0260 C.3   470  ARG470      0.2205
     18  NE        23.6520  -16.3040  -12.3100 N.pl3 470  ARG470     -0.0865
     19  CZ        24.8170  -16.8240  -12.6840 C.cat 470  ARG470      0.5346
     20  NH1       25.4230  -16.3930  -13.7870 N.pl3 470  ARG470      0.1354
     21  NH2       25.3740  -17.7840  -11.9570 N.pl3 470  ARG470      0.1354
     22  N         19.3160  -13.9240   -9.2330 N.3   473  GLU473     -0.1231
     23  CA        20.6010  -13.3950   -8.7920 C.3   473  GLU473      0.1699
     24  C         20.8880  -12.0220   -9.3970 C.2   473  GLU473      0.2592
     25  O         21.3330  -11.1090   -8.6970 O.2   473  GLU473     -0.2718
     26  CB        21.7260  -14.3990   -9.0670 C.3   473  GLU473      0.0402
     27  CG        21.5850  -15.6500   -8.2000 C.3   473  GLU473      0.1161
     28  CD        22.3680  -16.8520   -8.7020 C.2   473  GLU473      0.3649
     29  OE1       23.0730  -16.7400   -9.7250 O.co2 473  GLU473     -0.2457
     30  OE2       22.2710  -17.9170   -8.0610 O.co2 473  GLU473     -0.2457
     31  N         20.6030  -11.8700  -10.6860 N.am  474  VAL474     -0.1980
     32  CA        20.7230  -10.5680  -11.3350 C.3   474  VAL474      0.1595
     33  C         19.7460   -9.5860  -10.6830 C.2   474  VAL474      0.2287
     34  O         20.1110   -8.4620  -10.3550 O.2   474  VAL474     -0.2864
     35  CB        20.4340  -10.6510  -12.8470 C.3   474  VAL474      0.0276
     36  CG1       20.4590   -9.2470  -13.4700 C.3   474  VAL474      0.0022
     37  CG2       21.4550  -11.5650  -13.5350 C.3   474  VAL474      0.0022
     38  N         20.8600   -8.1610   -7.4330 N.3   477  SER477     -0.1217
     39  CA        21.9840   -7.2420   -7.5880 C.3   477  SER477      0.1889
     40  C         21.5480   -5.8260   -7.9510 C.2   477  SER477      0.2288
     41  O         22.3370   -4.8960   -7.8300 O.2   477  SER477     -0.2866
     42  CB        22.9680   -7.7650   -8.6540 C.3   477  SER477      0.2089
     43  OG        23.4420   -9.0580   -8.3180 O.3   477  SER477     -0.2183
     44  N         24.7030  -11.5060  -19.1630 N.3   500  VAL500     -0.1245
     45  CA        25.2580  -12.7700  -18.6900 C.3   500  VAL500      0.1561
     46  C         25.3590  -13.7400  -19.8630 C.2   500  VAL500      0.2260
     47  O         26.3800  -14.4030  -20.0560 O.2   500  VAL500     -0.2867
     48  CB        24.3990  -13.3940  -17.5810 C.3   500  VAL500      0.0252
     49  CG1       24.8710  -14.8200  -17.2830 C.3   500  VAL500      0.0019
     50  CG2       24.4540  -12.5280  -16.3280 C.3   500  VAL500      0.0019
     51  N         26.8170   -4.6730   -5.5050 N.3   720  CYS720     -0.1235
     52  CA        26.7880   -6.0940   -5.8480 C.3   720  CYS720      0.1677
     53  C         28.1930   -6.6630   -6.0670 C.2   720  CYS720      0.2270
     54  O         28.5020   -7.7600   -5.6110 O.2   720  CYS720     -0.2867
     55  CB        25.8920   -6.3690   -7.0600 C.3   720  CYS720      0.0956
     56  SG        26.3810   -5.5710   -8.5790 S.3   720  CYS720     -0.0801
     57  N         29.9010   -9.6280   -3.9160 N.3   724  PHE724     -0.1227
     58  CA        30.1770  -10.9110   -4.5760 C.3   724  PHE724      0.1736
     59  C         31.6480  -11.1710   -4.9340 C.2   724  PHE724      0.2595
     60  O         32.0700  -12.3240   -5.0090 O.2   724  PHE724     -0.2718
     61  CB        29.2990  -11.0990   -5.8190 C.3   724  PHE724      0.0547
     62  CG        27.8350  -11.1560   -5.5100 C.ar  724  PHE724     -0.0202
     63  CD1       27.3600  -12.0180   -4.5320 C.ar  724  PHE724     -0.0042
     64  CD2       26.9360  -10.3500   -6.1890 C.ar  724  PHE724     -0.0042
     65  CE1       26.0120  -12.0750   -4.2310 C.ar  724  PHE724     -0.0003
     66  CE2       25.5860  -10.4070   -5.8970 C.ar  724  PHE724     -0.0003
     67  CZ        25.1240  -11.2700   -4.9160 C.ar  724  PHE724     -0.0000
     68  N         32.4210  -10.1160   -5.1710 N.am  725  TYR725     -0.1976
     69  CA        33.8060  -10.2920   -5.6090 C.3   725  TYR725      0.1639
     70  C         34.7950   -9.7830   -4.5730 C.2   725  TYR725      0.2290
     71  O         35.9270   -9.4350   -4.9080 O.2   725  TYR725     -0.2864
     72  CB        34.0650   -9.5890   -6.9440 C.3   725  TYR725      0.0560
     73  CG        33.2290  -10.0920   -8.0940 C.ar  725  TYR725     -0.0198
     74  CD1       32.1250   -9.3740   -8.5380 C.ar  725  TYR725     -0.0009
     75  CD2       33.5420  -11.2810   -8.7440 C.ar  725  TYR725     -0.0009
     76  CE1       31.3530   -9.8240   -9.5980 C.ar  725  TYR725      0.0417
     77  CE2       32.7740  -11.7400   -9.8090 C.ar  725  TYR725      0.0417
     78  CZ        31.6810  -11.0050  -10.2290 C.ar  725  TYR725      0.1957
     79  OH        30.9090  -11.4500  -11.2760 O.3   725  TYR725     -0.2866
     80  N         24.9900  -16.0830   -1.8660 N.3   731  ILE731     -0.1245
     81  CA        23.8560  -15.5390   -2.6100 C.3   731  ILE731      0.1561
     82  C         22.5280  -16.2540   -2.3420 C.2   731  ILE731      0.2260
     83  O         21.4780  -15.6160   -2.2710 O.2   731  ILE731     -0.2867
     84  CB        24.1430  -15.5320   -4.1250 C.3   731  ILE731      0.0252
     85  CG1       22.9050  -15.0890   -4.9040 C.3   731  ILE731      0.0019
     86  CG2       24.5970  -16.9050   -4.5880 C.3   731  ILE731      0.0019
     87  CD1       22.4550  -13.6880   -4.5850 C.3   731  ILE731      0.0001
@<TRIPOS>BOND
     1    47    46    2
     2    46    45    1
     3    44    45    1
     4    45    48    1
     5    48    49    1
     6    48    50    1
     7    16    15    1
     8    16    17    1
     9    15    12    1
    10    20    19    1
    11    37    35    1
    12    36    35    1
    13    17    18    1
    14    35    32    1
    15    19    18    2
    16    19    21    1
    17    13    12    1
    18    13    14    2
    19    12    11    1
    20    11     3   am
    21     1     2    1
    22    32    31    1
    23    32    33    1
    24    79    78    1
    25     3     2    1
    26     3     4    2
    27    10     9   ar
    28    10     8   ar
    29     2     5    1
    30     9     7   ar
    31     8     6   ar
    32    31    24   am
    33    33    34    2
    34     7     6   ar
    35     6     5    1
    36    78    77   ar
    37    78    76   ar
    38    77    75   ar
    39    29    28   ar
    40    76    74   ar
    41    24    23    1
    42    24    25    2
    43    22    23    1
    44    26    23    1
    45    26    27    1
    46    75    73   ar
    47    28    27    1
    48    28    30   ar
    49    42    43    1
    50    42    39    1
    51    56    55    1
    52    74    73   ar
    53    73    72    1
    54    40    41    2
    55    40    39    1
    56    39    38    1
    57    55    52    1
    58    72    69    1
    59    64    66   ar
    60    64    62   ar
    61    53    52    1
    62    53    54    2
    63    66    67   ar
    64    52    51    1
    65    61    62    1
    66    61    58    1
    67    69    68    1
    68    69    70    1
    69    62    63   ar
    70    68    59   am
    71    60    59    2
    72    59    58    1
    73    67    65   ar
    74    71    70    2
    75    85    87    1
    76    85    84    1
    77    86    84    1
    78    58    57    1
    79    63    65   ar
    80    84    81    1
    81    81    82    1
    82    81    80    1
    83    82    83    2
