@<TRIPOS>MOLECULE
tmp/3p5qA01.pdb
 92 85 0 0 0
SMALL
GASTEIGER

@<TRIPOS>ATOM
      1  N          4.2000   21.6380   14.5150 N.3    10  VAL10      -0.1245
      2  CA         4.9040   20.5000   15.0880 C.3    10  VAL10       0.1561
      3  C          5.6490   20.8960   16.3710 C.2    10  VAL10       0.2260
      4  O          5.5510   20.2140   17.3970 O.2    10  VAL10      -0.2867
      5  CB         5.8680   19.8760   14.0550 C.3    10  VAL10       0.0252
      6  CG1        6.8650   18.9660   14.7350 C.3    10  VAL10       0.0019
      7  CG2        5.0720   19.1250   12.9620 C.3    10  VAL10       0.0019
      8  N          3.1160   21.1270   19.1800 N.3    13  ALA13      -0.1231
      9  CA         2.6150   19.8600   19.7100 C.3    13  ALA13       0.1694
     10  C          3.6790   19.1960   20.5890 C.2    13  ALA13       0.2592
     11  O          3.3760   18.6960   21.6730 O.2    13  ALA13      -0.2718
     12  CB         2.1970   18.9340   18.5670 C.3    13  ALA13       0.0304
     13  N          4.9170   19.1950   20.1020 N.am   14  TRP14      -0.1976
     14  CA         6.0740   18.7860   20.8890 C.3    14  TRP14       0.1640
     15  C          6.0960   19.4990   22.2430 C.2    14  TRP14       0.2290
     16  O          6.3020   18.8740   23.2810 O.2    14  TRP14      -0.2864
     17  CB         7.3840   19.0830   20.1280 C.3    14  TRP14       0.0576
     18  CG         8.5800   19.1940   21.0540 C.ar   14  TRP14       0.0006
     19  CD1        9.3500   18.1640   21.5330 C.ar   14  TRP14       0.0946
     20  CD2        9.1070   20.3960   21.6520 C.ar   14  TRP14       0.0152
     21  NE1       10.3230   18.6530   22.3840 N.ar   14  TRP14      -0.2442
     22  CE2       10.1970   20.0160   22.4700 C.ar   14  TRP14       0.0810
     23  CE3        8.7650   21.7550   21.5700 C.ar   14  TRP14       0.0012
     24  CZ2       10.9490   20.9480   23.1990 C.ar   14  TRP14       0.0191
     25  CZ3        9.5120   22.6820   22.3000 C.ar   14  TRP14       0.0001
     26  CH2       10.5870   22.2720   23.1040 C.ar   14  TRP14       0.0015
     27  N          3.3920   17.9620   24.5640 N.3    17  VAL17      -0.1245
     28  CA         3.8450   16.6490   25.0020 C.3    17  VAL17       0.1561
     29  C          4.7910   16.8000   26.1900 C.2    17  VAL17       0.2260
     30  O          4.7320   16.0340   27.1580 O.2    17  VAL17      -0.2867
     31  CB         4.5750   15.9350   23.8510 C.3    17  VAL17       0.0252
     32  CG1        5.2830   14.6680   24.3410 C.3    17  VAL17       0.0019
     33  CG2        3.5980   15.6300   22.7280 C.3    17  VAL17       0.0019
     34  N          7.0840   12.7030   26.5030 N.3    21  ALA21      -0.1245
     35  CA         7.5050   12.1640   25.2040 C.3    21  ALA21       0.1562
     36  C          7.9620   10.6780   25.2160 C.2    21  ALA21       0.2260
     37  O          7.4780    9.8700   24.4160 O.2    21  ALA21      -0.2867
     38  CB         8.5690   13.0710   24.5580 C.3    21  ALA21       0.0290
     39  N         11.3540    8.5810   20.9170 N.3    63  ALA63      -0.1245
     40  CA        10.9230    9.9590   21.1840 C.3    63  ALA63       0.1562
     41  C         12.1090   10.9210   21.1190 C.2    63  ALA63       0.2260
     42  O         11.9870   12.0250   20.5890 O.2    63  ALA63      -0.2867
     43  CB        10.2150   10.0510   22.5340 C.3    63  ALA63       0.0290
     44  N         12.9420   11.5120   17.4230 N.3    66  LEU66      -0.1231
     45  CA        11.9490   12.4270   16.8570 C.3    66  LEU66       0.1693
     46  C         12.1700   13.8880   17.3060 C.2    66  LEU66       0.2592
     47  O         12.0360   14.8170   16.5160 O.2    66  LEU66      -0.2718
     48  CB        10.5370   11.9570   17.2070 C.3    66  LEU66       0.0284
     49  CG        10.1120   10.6510   16.5290 C.3    66  LEU66       0.0019
     50  CD1        8.8630   10.0630   17.1900 C.3    66  LEU66       0.0001
     51  CD2        9.8930   10.8780   15.0310 C.3    66  LEU66       0.0001
     52  N         12.5190   14.0720   18.5750 N.am   67  THR67      -0.1953
     53  CA        12.8190   15.4040   19.1140 C.3    67  THR67       0.1897
     54  C         14.0440   16.0100   18.4460 C.2    67  THR67       0.2313
     55  O         14.0480   17.1870   18.0960 O.2    67  THR67      -0.2863
     56  CB        13.0040   15.3520   20.6460 C.3    67  THR67       0.1794
     57  OG1       11.7650   14.9490   21.2400 O.3    67  THR67      -0.2208
     58  CG2       13.4130   16.7190   21.2030 C.3    67  THR67       0.0378
     59  N         12.8790   17.1850   14.9970 N.3    70  VAL70      -0.1245
     60  CA        12.1870   18.4660   15.1850 C.3    70  VAL70       0.1561
     61  C         13.2170   19.5900   15.3780 C.2    70  VAL70       0.2260
     62  O         13.1470   20.6370   14.7280 O.2    70  VAL70      -0.2867
     63  CB        11.2810   18.4090   16.4520 C.3    70  VAL70       0.0252
     64  CG1       10.7600   19.7980   16.8450 C.3    70  VAL70       0.0019
     65  CG2       10.1410   17.4360   16.2580 C.3    70  VAL70       0.0019
     66  N         -0.6190   10.7790   20.1960 N.3   109  LEU109     -0.1245
     67  CA        -0.7670   12.2210   20.4280 C.3   109  LEU109      0.1561
     68  C         -2.2360   12.6210   20.5400 C.2   109  LEU109      0.2260
     69  O         -2.6170   13.4080   21.4230 O.2   109  LEU109     -0.2867
     70  CB        -0.0620   13.0240   19.3200 C.3   109  LEU109      0.0270
     71  CG         1.4620   12.8380   19.3490 C.3   109  LEU109      0.0019
     72  CD1        2.1910   13.5900   18.2370 C.3   109  LEU109      0.0001
     73  CD2        2.0120   13.2350   20.7140 C.3   109  LEU109      0.0001
     74  N          1.6390   17.1480   11.5840 N.3   125  LEU125     -0.1245
     75  CA         2.3130   16.0260   12.2160 C.3   125  LEU125      0.1561
     76  C          2.4640   14.8760   11.2380 C.2   125  LEU125      0.2260
     77  O          3.5140   14.2400   11.1830 O.2   125  LEU125     -0.2867
     78  CB         1.5220   15.5500   13.4340 C.3   125  LEU125      0.0270
     79  CG         1.5260   16.4990   14.6380 C.3   125  LEU125      0.0019
     80  CD1        0.4090   16.1520   15.5830 C.3   125  LEU125      0.0001
     81  CD2        2.8500   16.4690   15.3600 C.3   125  LEU125      0.0001
     82  N          5.2640   15.7070    9.0530 N.3   128  PHE128     -0.1241
     83  CA         6.5190   15.5660    9.8030 C.3   128  PHE128      0.1605
     84  C          6.9580   14.1100    9.8620 C.2   128  PHE128      0.2264
     85  O          8.1050   13.7760    9.5380 O.2   128  PHE128     -0.2867
     86  CB         6.3900   16.1340   11.2280 C.3   128  PHE128      0.0534
     87  CG         7.5630   15.8120   12.1180 C.ar  128  PHE128     -0.0203
     88  CD1        8.8180   16.3320   11.8480 C.ar  128  PHE128     -0.0042
     89  CD2        7.4120   14.9810   13.2210 C.ar  128  PHE128     -0.0042
     90  CE1        9.9060   16.0310   12.6630 C.ar  128  PHE128     -0.0003
     91  CE2        8.4930   14.6790   14.0420 C.ar  128  PHE128     -0.0003
     92  CZ         9.7390   15.2070   13.7660 C.ar  128  PHE128     -0.0000
@<TRIPOS>BOND
     1    82    83    1
     2    85    84    2
     3    83    84    1
     4    83    86    1
     5    77    76    2
     6    86    87    1
     7    76    75    1
     8    74    75    1
     9    88    87   ar
    10    88    90   ar
    11    87    89   ar
    12    75    78    1
    13    90    92   ar
    14     7     5    1
    15    89    91   ar
    16    78    79    1
    17    92    91   ar
    18     5     6    1
    19     5     2    1
    20     1     2    1
    21    79    81    1
    22    79    80    1
    23    62    61    2
    24    59    60    1
    25    51    49    1
    26     2     3    1
    27    60    61    1
    28    60    63    1
    29    65    63    1
    30     3     4    2
    31    63    64    1
    32    47    46    2
    33    49    50    1
    34    49    48    1
    35    45    48    1
    36    45    46    1
    37    45    44    1
    38    46    52   am
    39    55    54    2
    40    72    71    1
    41    54    53    1
    42    12     9    1
    43    52    53    1
    44    53    56    1
    45     8     9    1
    46    70    71    1
    47    70    67    1
    48    71    73    1
    49     9    10    1
    50    13    10   am
    51    13    14    1
    52    17    14    1
    53    17    18    1
    54    66    67    1
    55    67    68    1
    56    68    69    2
    57    42    41    2
    58    10    11    2
    59    56    58    1
    60    56    57    1
    61    14    15    1
    62    39    40    1
    63    18    19   ar
    64    18    20   ar
    65    41    40    1
    66    40    43    1
    67    19    21   ar
    68    23    20   ar
    69    23    25   ar
    70    20    22   ar
    71    15    16    2
    72    25    26   ar
    73    21    22   ar
    74    22    24   ar
    75    33    31    1
    76    26    24   ar
    77    31    32    1
    78    31    28    1
    79    37    36    2
    80    38    35    1
    81    27    28    1
    82    28    29    1
    83    35    36    1
    84    35    34    1
    85    29    30    2
