@<TRIPOS>MOLECULE
tmp/3p5qA02.pdb
 85 83 0 0 0
SMALL
GASTEIGER

@<TRIPOS>ATOM
      1  N         18.4980    1.4740   10.2470 N.3    87  HIS87      -0.1226
      2  CA        17.2170    0.8500    9.8870 C.3    87  HIS87       0.1752
      3  C         17.2040    0.1450    8.5310 C.2    87  HIS87       0.2596
      4  O         16.6150   -0.9240    8.4000 O.2    87  HIS87      -0.2718
      5  CB        16.0500    1.8410    9.9970 C.3    87  HIS87       0.0759
      6  CG        15.7110    2.2030   11.4100 C.ar   87  HIS87       0.0818
      7  ND1       16.4380    3.1240   12.1350 N.ar   87  HIS87      -0.2268
      8  CD2       14.7520    1.7390   12.2480 C.ar   87  HIS87       0.1154
      9  CE1       15.9270    3.2290   13.3490 C.ar   87  HIS87       0.1986
     10  NE2       14.9010    2.3970   13.4460 N.ar   87  HIS87      -0.2212
     11  N         17.8350    0.7560    7.5360 N.am   88  ALA88      -0.1966
     12  CA        17.8570    0.1950    6.1870 C.3    88  ALA88       0.1728
     13  C         18.8320   -0.9750    6.0390 C.2    88  ALA88       0.2616
     14  O         18.4720   -2.0270    5.5040 O.2    88  ALA88      -0.2715
     15  CB        18.1730    1.2800    5.1680 C.3    88  ALA88       0.0334
     16  N         20.0600   -0.7910    6.5230 N.am   89  HIS89      -0.1973
     17  CA        21.1270   -1.7690    6.3180 C.3    89  HIS89       0.1656
     18  C         21.1170   -2.9140    7.3160 C.2    89  HIS89       0.2291
     19  O         20.9420   -4.0690    6.9360 O.2    89  HIS89      -0.2864
     20  CB        22.4980   -1.0900    6.3390 C.3    89  HIS89       0.0771
     21  CG        22.6240    0.0410    5.3670 C.ar   89  HIS89       0.0820
     22  ND1       23.3660    1.1710    5.6330 N.ar   89  HIS89      -0.2267
     23  CD2       22.0900    0.2210    4.1350 C.ar   89  HIS89       0.1154
     24  CE1       23.2900    1.9960    4.6030 C.ar   89  HIS89       0.1986
     25  NE2       22.5200    1.4450    3.6820 N.ar   89  HIS89      -0.2212
     26  N         17.1870   -3.8260    8.2430 N.3    92  ARG92      -0.1231
     27  CA        16.3660   -4.0300    7.0560 C.3    92  ARG92       0.1694
     28  C         14.8740   -3.9450    7.3850 C.2    92  ARG92       0.2591
     29  O         14.1010   -4.8800    7.1460 O.2    92  ARG92      -0.2718
     30  CB        16.7480   -5.3410    6.3510 C.3    92  ARG92       0.0321
     31  CG        18.2300   -5.3420    5.9690 C.3    92  ARG92       0.0489
     32  CD        18.6340   -6.5200    5.1060 C.3    92  ARG92       0.2205
     33  NE        18.4080   -7.7970    5.7710 N.pl3  92  ARG92      -0.0865
     34  CZ        19.3250   -8.4540    6.4720 C.cat  92  ARG92       0.5346
     35  NH1       20.5470   -7.9550    6.6130 N.pl3  92  ARG92       0.1354
     36  NH2       19.0160   -9.6200    7.0330 N.pl3  92  ARG92       0.1354
     37  N         14.4780   -2.8110    7.9570 N.am   93  VAL93      -0.1980
     38  CA        13.0780   -2.5950    8.2730 C.3    93  VAL93       0.1595
     39  C         12.3100   -2.3060    6.9930 C.2    93  VAL93       0.2287
     40  O         12.6450   -1.4010    6.2310 O.2    93  VAL93      -0.2864
     41  CB        12.8520   -1.4310    9.2730 C.3    93  VAL93       0.0276
     42  CG1       11.3680   -1.2580    9.5180 C.3    93  VAL93       0.0022
     43  CG2       13.5760   -1.6790   10.5780 C.3    93  VAL93       0.0022
     44  N          9.7680   -0.8300    4.5900 N.3    95  PRO95      -0.2116
     45  CA         9.2520    0.5410    4.4800 C.3    95  PRO95       0.1372
     46  C          7.8210    0.7060    4.9870 C.2    95  PRO95       0.2244
     47  O          7.5020    1.7330    5.5840 O.2    95  PRO95      -0.2868
     48  CB         9.2810    0.7990    2.9720 C.3    95  PRO95       0.0268
     49  CG        10.4400   -0.0330    2.4980 C.3    95  PRO95       0.0207
     50  CD        10.4460   -1.2690    3.3550 C.3    95  PRO95       0.0892
     51  N          7.1130    1.8500    8.6740 N.3    98  PHE98      -0.1241
     52  CA         7.2090    3.2370    9.1090 C.3    98  PHE98       0.1605
     53  C          5.8490    3.9240    9.0660 C.2    98  PHE98       0.2264
     54  O          5.5690    4.7950    9.8870 O.2    98  PHE98      -0.2867
     55  CB         8.2870    3.9990    8.3150 C.3    98  PHE98       0.0534
     56  CG         9.6700    3.4940    8.6000 C.ar   98  PHE98      -0.0203
     57  CD1       10.4060    4.0100    9.6520 C.ar   98  PHE98      -0.0042
     58  CD2       10.1920    2.4310    7.8800 C.ar   98  PHE98      -0.0042
     59  CE1       11.6550    3.5020    9.9540 C.ar   98  PHE98      -0.0003
     60  CE2       11.4430    1.9170    8.1770 C.ar   98  PHE98      -0.0003
     61  CZ        12.1750    2.4530    9.2090 C.ar   98  PHE98      -0.0000
     62  N         14.4290    7.8500    7.0490 N.3   136  LEU136     -0.1231
     63  CA        14.8290    6.5800    7.6490 C.3   136  LEU136      0.1693
     64  C         14.8670    5.4220    6.6340 C.2   136  LEU136      0.2592
     65  O         15.5240    4.4080    6.8580 O.2   136  LEU136     -0.2718
     66  CB        13.9660    6.2460    8.8760 C.3   136  LEU136      0.0284
     67  CG        14.2570    7.1180   10.1050 C.3   136  LEU136      0.0019
     68  CD1       13.3070    6.8340   11.2760 C.3   136  LEU136      0.0001
     69  CD2       15.7000    6.9470   10.5440 C.3   136  LEU136      0.0001
     70  N         14.1750    5.5860    5.5170 N.am  137  THR137     -0.1953
     71  CA        14.1800    4.5640    4.4730 C.3   137  THR137      0.1897
     72  C         15.0060    4.9470    3.2300 C.2   137  THR137      0.2313
     73  O         14.8320    4.3710    2.1590 O.2   137  THR137     -0.2863
     74  CB        12.7540    4.2860    4.0160 C.3   137  THR137      0.1794
     75  OG1       12.1870    5.5060    3.5180 O.3   137  THR137     -0.2208
     76  CG2       11.9150    3.7420    5.1780 C.3   137  THR137      0.0378
     77  N         18.3130    4.8060    2.8340 N.3   139  LYS139     -0.1245
     78  CA        19.5660    4.0720    2.6710 C.3   139  LYS139      0.1561
     79  C         19.3500    2.5870    2.4000 C.2   139  LYS139      0.2260
     80  O         18.6430    2.2110    1.4680 O.2   139  LYS139     -0.2867
     81  CB        20.4550    4.2510    3.9050 C.3   139  LYS139      0.0271
     82  CG        20.6030    5.6950    4.3790 C.3   139  LYS139      0.0035
     83  CD        21.3820    6.5620    3.3970 C.3   139  LYS139      0.0206
     84  CE        21.6010    7.9560    3.9680 C.3   139  LYS139      0.1093
     85  NZ        22.4440    7.9120    5.1900 N.3   139  LYS139     -0.1314
@<TRIPOS>BOND
     1    80    79    2
     2    73    72    2
     3    79    78    1
     4    49    48    1
     5    49    50    1
     6    78    77    1
     7    78    81    1
     8    48    45    1
     9    72    71    1
    10    50    44    1
    11    83    84    1
    12    83    82    1
    13    75    74    1
    14    25    23   ar
    15    25    24   ar
    16    81    82    1
    17    84    85    1
    18    74    71    1
    19    74    76    1
    20    23    21   ar
    21    71    70    1
    22    45    44    1
    23    45    46    1
    24    24    22   ar
    25    46    47    2
    26    32    33    1
    27    32    31    1
    28    15    12    1
    29    21    22   ar
    30    21    20    1
    31    14    13    2
    32    70    64   am
    33    33    34    2
    34    31    30    1
    35    13    12    1
    36    13    16   am
    37    12    11    1
    38    40    39    2
    39    17    20    1
    40    17    16    1
    41    17    18    1
    42    30    27    1
    43    34    35    1
    44    34    36    1
    45    64    65    2
    46    64    63    1
    47    19    18    2
    48    39    38    1
    49    62    63    1
    50    27    28    1
    51    27    26    1
    52    29    28    2
    53    28    37   am
    54    11     3   am
    55    63    66    1
    56    58    60   ar
    57    58    56   ar
    58    37    38    1
    59    60    61   ar
    60    38    41    1
    61    55    56    1
    62    55    52    1
    63     4     3    2
    64     3     2    1
    65    56    57   ar
    66    51    52    1
    67    66    67    1
    68    53    52    1
    69    53    54    2
    70    61    59   ar
    71    41    42    1
    72    41    43    1
    73    57    59   ar
    74     2     5    1
    75     2     1    1
    76     5     6    1
    77    67    69    1
    78    67    68    1
    79     6     7   ar
    80     6     8   ar
    81     7     9   ar
    82     8    10   ar
    83     9    10   ar
