@<TRIPOS>MOLECULE
tmp/3p5sA00.pdb
 82 77 0 0 0
SMALL
GASTEIGER

@<TRIPOS>ATOM
      1  N         14.0810   17.1650   37.4970 N.3    80  LYS80      -0.1231
      2  CA        13.6780   17.7660   38.7700 C.3    80  LYS80       0.1693
      3  C         12.5990   18.8460   38.6270 C.2    80  LYS80       0.2592
      4  O         12.4440   19.6890   39.5010 O.2    80  LYS80      -0.2718
      5  CB        14.8870   18.3420   39.5110 C.3    80  LYS80       0.0285
      6  CG        16.2100   17.7050   39.1530 C.3    80  LYS80       0.0035
      7  CD        16.4640   16.4580   39.9630 C.3    80  LYS80       0.0206
      8  CE        17.6020   15.6510   39.3620 C.3    80  LYS80       0.1093
      9  NZ        17.7720   14.3510   40.0470 N.3    80  LYS80      -0.1314
     10  N         11.8590   18.8010   37.5250 N.am   81  THR81      -0.1953
     11  CA        10.8790   19.8190   37.1790 C.3    81  THR81       0.1897
     12  C          9.6670   19.2250   36.4460 C.2    81  THR81       0.2313
     13  O          9.0680   19.8770   35.5920 O.2    81  THR81      -0.2863
     14  CB        11.4770   20.8490   36.2170 C.3    81  THR81       0.1794
     15  OG1       11.9070   20.1710   35.0330 O.3    81  THR81      -0.2208
     16  CG2       12.6860   21.5770   36.8570 C.3    81  THR81       0.0378
     17  N          6.1650   21.2650   36.4840 N.3    84  LEU84      -0.1245
     18  CA         6.3710   22.5130   35.7500 C.3    84  LEU84       0.1561
     19  C          6.5420   22.2610   34.2520 C.2    84  LEU84       0.2260
     20  O          5.9390   22.9470   33.4270 O.2    84  LEU84      -0.2867
     21  CB         7.5730   23.2710   36.2770 C.3    84  LEU84       0.0270
     22  CG         7.9380   24.4740   35.3970 C.3    84  LEU84       0.0019
     23  CD1        6.7640   25.4250   35.2870 C.3    84  LEU84       0.0001
     24  CD2        9.1880   25.1890   35.9240 C.3    84  LEU84       0.0001
     25  N         15.7870   22.8750   37.1540 N.3   161  ASN161     -0.1240
     26  CA        15.4760   23.4760   38.4400 C.3   161  ASN161      0.1653
     27  C         16.5870   24.3860   38.9560 C.2   161  ASN161      0.2266
     28  O         17.6100   23.9080   39.4370 O.2   161  ASN161     -0.2867
     29  CB        15.1880   22.3740   39.4610 C.3   161  ASN161      0.1155
     30  CG        14.5260   22.8970   40.7150 C.2   161  ASN161      0.2627
     31  OD1       14.7990   24.0070   41.1530 O.2   161  ASN161     -0.2716
     32  ND2       13.6490   22.0940   41.3000 N.am  161  ASN161     -0.0877
     33  N         16.4660   26.0620   41.5310 N.3   163  SER163     -0.1202
     34  CA        16.3810   26.0970   42.9930 C.3   163  SER163      0.2020
     35  C         17.2380   25.0280   43.6640 C.2   163  SER163      0.2618
     36  O         17.3480   25.0100   44.8830 O.2   163  SER163     -0.2717
     37  CB        14.9300   25.9930   43.4760 C.3   163  SER163      0.2103
     38  OG        14.3150   27.2710   43.4690 O.3   163  SER163     -0.2182
     39  N         17.8360   24.1400   42.8710 N.am  164  LEU164     -0.1979
     40  CA        18.7920   23.1610   43.3810 C.3   164  LEU164      0.1596
     41  C         20.2150   23.6920   43.1910 C.2   164  LEU164      0.2287
     42  O         20.4460   24.5860   42.3920 O.2   164  LEU164     -0.2864
     43  CB        18.6620   21.8340   42.6260 C.3   164  LEU164      0.0297
     44  CG        17.3020   21.1540   42.4840 C.3   164  LEU164      0.0022
     45  CD1       17.4120   19.9450   41.5420 C.3   164  LEU164      0.0001
     46  CD2       16.7370   20.7360   43.8350 C.3   164  LEU164      0.0001
     47  N         14.7240   27.4460   36.1540 N.3   193  VAL193     -0.1231
     48  CA        13.5760   28.1020   36.7450 C.3   193  VAL193      0.1692
     49  C         13.5570   27.8230   38.2290 C.2   193  VAL193      0.2592
     50  O         13.7340   26.6710   38.6510 O.2   193  VAL193     -0.2718
     51  CB        12.2750   27.5420   36.1420 C.3   193  VAL193      0.0266
     52  CG1       11.0810   28.2450   36.7700 C.3   193  VAL193      0.0020
     53  CG2       12.2620   27.7510   34.6260 C.3   193  VAL193      0.0020
     54  N         13.3470   28.8670   39.0220 N.am  194  HIS194     -0.1962
     55  CA        13.4510   28.7510   40.4800 C.3   194  HIS194      0.1787
     56  C         12.1060   28.9050   41.1800 C.2   194  HIS194      0.2620
     57  O         11.1690   29.4920   40.6210 O.2   194  HIS194     -0.2715
     58  CB        14.4880   29.7410   41.0440 C.3   194  HIS194      0.0785
     59  CG        14.1280   31.1860   40.8700 C.ar  194  HIS194      0.0821
     60  ND1       13.2290   31.8340   41.6900 N.ar  194  HIS194     -0.2267
     61  CD2       14.5670   32.1150   39.9880 C.ar  194  HIS194      0.1154
     62  CE1       13.1200   33.0960   41.3160 C.ar  194  HIS194      0.1986
     63  NE2       13.9080   33.2900   40.2760 N.ar  194  HIS194     -0.2212
     64  N         12.0130   28.3560   42.3900 N.am  195  ASP195     -0.1971
     65  CA        10.7750   28.3970   43.1860 C.3   195  ASP195      0.1709
     66  C         10.3270   29.8300   43.4940 C.2   195  ASP195      0.2293
     67  O         11.1340   30.6610   43.9000 O.2   195  ASP195     -0.2864
     68  CB        10.9630   27.6510   44.5150 C.3   195  ASP195      0.1436
     69  CG        11.4570   26.2260   44.3270 C.2   195  ASP195      0.3671
     70  OD1       11.1200   25.6360   43.2880 O.co2 195  ASP195     -0.2456
     71  OD2       12.1710   25.7000   45.2150 O.co2 195  ASP195     -0.2456
     72  N          9.0450   30.4200   38.3910 N.3   231  ARG231     -0.1245
     73  CA         8.0560   29.6170   37.6960 C.3   231  ARG231      0.1563
     74  C          7.0470   30.5360   36.9760 C.2   231  ARG231      0.2260
     75  O          6.7590   30.3400   35.7760 O.2   231  ARG231     -0.2867
     76  CB         7.3580   28.6890   38.6880 C.3   231  ARG231      0.0307
     77  CG         6.1580   27.9550   38.1030 C.3   231  ARG231      0.0489
     78  CD         5.0280   27.8170   39.1280 C.3   231  ARG231      0.2205
     79  NE         3.8610   27.1350   38.5660 N.pl3 231  ARG231     -0.0865
     80  CZ         2.6950   27.7260   38.3200 C.cat 231  ARG231      0.5346
     81  NH1        2.5260   29.0140   38.6040 N.pl3 231  ARG231      0.1354
     82  NH2        1.6900   27.0290   37.8000 N.pl3 231  ARG231      0.1354
@<TRIPOS>BOND
     1    20    19    2
     2    19    18    1
     3    53    51    1
     4    15    14    1
     5    23    22    1
     6    22    24    1
     7    22    21    1
     8    13    12    2
     9    18    21    1
    10    18    17    1
    11    75    74    2
    12    51    48    1
    13    51    52    1
    14    47    48    1
    15    14    16    1
    16    14    11    1
    17    12    11    1
    18    48    49    1
    19    74    73    1
    20    25    26    1
    21    11    10    1
    22     1     2    1
    23    10     3   am
    24    73    72    1
    25    73    76    1
    26    82    80    1
    27    77    76    1
    28    77    78    1
    29    49    50    2
    30    49    54   am
    31    80    79    2
    32    80    81    1
    33    26    27    1
    34    26    29    1
    35    79    78    1
    36     3     2    1
    37     3     4    2
    38     2     5    1
    39    27    28    2
    40    54    55    1
    41     6     5    1
    42     6     7    1
    43     8     7    1
    44     8     9    1
    45    29    30    1
    46    61    63   ar
    47    61    59   ar
    48    63    62   ar
    49    55    58    1
    50    55    56    1
    51    57    56    2
    52    30    31    2
    53    30    32   am
    54    59    58    1
    55    59    60   ar
    56    56    64   am
    57    62    60   ar
    58    33    34    1
    59    45    44    1
    60    64    65    1
    61    42    41    2
    62    44    43    1
    63    44    46    1
    64    43    40    1
    65    39    40    1
    66    39    35   am
    67    34    37    1
    68    34    35    1
    69    65    66    1
    70    65    68    1
    71    41    40    1
    72    70    69   ar
    73    38    37    1
    74    66    67    2
    75    35    36    2
    76    69    68    1
    77    69    71   ar
