@<TRIPOS>MOLECULE
tmp/3p5sA01.pdb
 169 166 0 0 0
SMALL
GASTEIGER

@<TRIPOS>ATOM
      1  N         10.2790   18.2980   24.5580 N.3    76  VAL76      -0.1231
      2  CA        10.6580   18.9080   25.8330 C.3    76  VAL76       0.1692
      3  C         11.2130   17.8930   26.8280 C.2    76  VAL76       0.2592
      4  O         10.5720   16.8900   27.1380 O.2    76  VAL76      -0.2718
      5  CB         9.4550   19.6590   26.4760 C.3    76  VAL76       0.0266
      6  CG1        9.8440   20.2270   27.8560 C.3    76  VAL76       0.0020
      7  CG2        8.9750   20.7640   25.5440 C.3    76  VAL76       0.0020
      8  N         12.4200   18.1530   27.3180 N.am   77  PHE77      -0.1962
      9  CA        13.0230   17.3590   28.3880 C.3    77  PHE77       0.1771
     10  C         12.8680   18.0850   29.7120 C.2    77  PHE77       0.2620
     11  O         12.5960   19.2850   29.7320 O.2    77  PHE77      -0.2715
     12  CB        14.5150   17.1550   28.1340 C.3    77  PHE77       0.0574
     13  CG        14.8250   16.3880   26.8760 C.ar   77  PHE77      -0.0200
     14  CD1       15.0570   15.0260   26.9270 C.ar   77  PHE77      -0.0042
     15  CD2       14.8990   17.0300   25.6540 C.ar   77  PHE77      -0.0042
     16  CE1       15.3420   14.3070   25.7920 C.ar   77  PHE77      -0.0003
     17  CE2       15.1800   16.3120   24.4890 C.ar   77  PHE77      -0.0003
     18  CZ        15.4160   14.9460   24.5670 C.ar   77  PHE77      -0.0000
     19  N         13.0360   17.3610   30.8150 N.am   78  TRP78      -0.1960
     20  CA        13.0110   17.9730   32.1340 C.3    78  TRP78       0.1771
     21  C         13.8600   17.1500   33.0980 C.2    78  TRP78       0.2620
     22  O         14.1580   15.9820   32.8420 O.2    78  TRP78      -0.2715
     23  CB        11.5740   18.0610   32.6590 C.3    78  TRP78       0.0590
     24  CG        10.8490   16.7390   32.5930 C.ar   78  TRP78       0.0006
     25  CD1       10.0950   16.2760   31.5510 C.ar   78  TRP78       0.0946
     26  CD2       10.8350   15.7030   33.5920 C.ar   78  TRP78       0.0152
     27  NE1        9.5930   15.0320   31.8450 N.ar   78  TRP78      -0.2442
     28  CE2       10.0410   14.6480   33.0840 C.ar   78  TRP78       0.0810
     29  CE3       11.4020   15.5690   34.8690 C.ar   78  TRP78       0.0012
     30  CZ2        9.8170   13.4700   33.8000 C.ar   78  TRP78       0.0191
     31  CZ3       11.1680   14.3860   35.5890 C.ar   78  TRP78       0.0001
     32  CH2       10.3690   13.3680   35.0580 C.ar   78  TRP78       0.0015
     33  N         14.2150   17.7520   34.2240 N.am   79  SER79      -0.1936
     34  CA        14.9820   17.0810   35.2460 C.3    79  SER79       0.2055
     35  C         14.6890   17.8440   36.5270 C.2    79  SER79       0.2642
     36  O         14.9810   19.0400   36.6050 O.2    79  SER79      -0.2714
     37  CB        16.4840   17.1370   34.9140 C.3    79  SER79       0.2130
     38  OG        17.1770   16.1400   35.6350 O.3    79  SER79      -0.2179
     39  N         14.0810   17.1650   37.4970 N.am   80  LYS80      -0.1977
     40  CA        13.6780   17.7660   38.7700 C.3    80  LYS80       0.1596
     41  C         12.5990   18.8460   38.6270 C.2    80  LYS80       0.2287
     42  O         12.4440   19.6890   39.5010 O.2    80  LYS80      -0.2864
     43  CB        14.8870   18.3420   39.5110 C.3    80  LYS80       0.0298
     44  CG        16.2100   17.7050   39.1530 C.3    80  LYS80       0.0038
     45  CD        16.4640   16.4580   39.9630 C.3    80  LYS80       0.0206
     46  CE        17.6020   15.6510   39.3620 C.3    80  LYS80       0.1093
     47  NZ        17.7720   14.3510   40.0470 N.3    80  LYS80      -0.1314
     48  N          9.3210   17.9870   36.7710 N.3    82  LYS82      -0.1245
     49  CA         8.3110   17.2320   36.0210 C.3    82  LYS82       0.1561
     50  C          6.9960   18.0010   35.8260 C.2    82  LYS82       0.2260
     51  O          6.5250   18.1660   34.6950 O.2    82  LYS82      -0.2867
     52  CB         8.0560   15.8760   36.7080 C.3    82  LYS82       0.0271
     53  CG         7.0880   14.9220   35.9650 C.3    82  LYS82       0.0035
     54  CD         7.1140   13.5250   36.5930 C.3    82  LYS82       0.0206
     55  CE         5.9240   12.6270   36.1810 C.3    82  LYS82       0.1093
     56  NZ         5.8070   12.4160   34.7270 N.3    82  LYS82      -0.1314
     57  N          8.2710   13.4280   27.3830 N.3    97  LEU97      -0.1231
     58  CA         8.2530   11.9660   27.2760 C.3    97  LEU97       0.1693
     59  C          6.8810   11.3830   27.6930 C.2    97  LEU97       0.2591
     60  O          6.4160   10.3720   27.1330 O.2    97  LEU97      -0.2718
     61  CB         9.3840   11.3580   28.1110 C.3    97  LEU97       0.0284
     62  CG         9.3920    9.8240   28.0380 C.3    97  LEU97       0.0019
     63  CD1        9.5010    9.4140   26.5710 C.3    97  LEU97       0.0001
     64  CD2       10.5470    9.2620   28.8550 C.3    97  LEU97       0.0001
     65  N          6.2260   12.0250   28.6620 N.am   98  GLU98      -0.1979
     66  CA         4.9340   11.5550   29.1500 C.3    98  GLU98       0.1602
     67  C          3.8360   11.7350   28.0870 C.2    98  GLU98       0.2287
     68  O          2.7280   11.2030   28.2220 O.2    98  GLU98      -0.2864
     69  CB         4.5350   12.2590   30.4660 C.3    98  GLU98       0.0415
     70  CG         5.4190   11.9300   31.6820 C.3    98  GLU98       0.1163
     71  CD         6.9070   12.3370   31.5280 C.2    98  GLU98       0.3649
     72  OE1        7.2170   13.2590   30.7400 O.co2  98  GLU98      -0.2457
     73  OE2        7.7750   11.7230   32.2030 O.co2  98  GLU98      -0.2457
     74  N          2.7140    4.4520   30.6310 N.3   106  ALA106     -0.1231
     75  CA         3.4540    4.0460   31.8270 C.3   106  ALA106      0.1694
     76  C          3.4580    5.0720   32.9530 C.2   106  ALA106      0.2592
     77  O          3.7010    4.7280   34.1210 O.2   106  ALA106     -0.2718
     78  CB         4.8860    3.6840   31.4390 C.3   106  ALA106      0.0304
     79  N          3.1960    6.3350   32.6020 N.am  107  ASP107     -0.1960
     80  CA         3.2630    7.4360   33.5420 C.3   107  ASP107      0.1840
     81  C          2.6190    7.1160   34.8790 C.2   107  ASP107      0.2623
     82  O          1.4290    6.8030   34.9290 O.2   107  ASP107     -0.2715
     83  CB         2.5930    8.6910   32.9490 C.3   107  ASP107      0.1450
     84  CG         2.9460    9.9600   33.7250 C.2   107  ASP107      0.3671
     85  OD1        4.0390   10.0000   34.3070 O.co2 107  ASP107     -0.2456
     86  OD2        2.1470   10.9180   33.7200 O.co2 107  ASP107     -0.2456
     87  N          3.4190    7.2020   35.9500 N.am  108  GLY108     -0.1940
     88  CA         2.9640    7.0350   37.3290 C.3   108  GLY108      0.2014
     89  C          2.6060    5.6220   37.7410 C.2   108  GLY108      0.2638
     90  O          2.0250    5.4020   38.8090 O.2   108  GLY108     -0.2714
     91  N          2.9160    4.6510   36.8900 N.am  109  LEU109     -0.1977
     92  CA         2.5750    3.2700   37.2090 C.3   109  LEU109      0.1596
     93  C          3.7920    2.5380   37.7730 C.2   109  LEU109      0.2287
     94  O          4.9340    2.9660   37.5960 O.2   109  LEU109     -0.2864
     95  CB         2.0760    2.5440   35.9520 C.3   109  LEU109      0.0297
     96  CG         0.8550    3.0950   35.2110 C.3   109  LEU109      0.0022
     97  CD1        0.3210    2.0190   34.2730 C.3   109  LEU109      0.0001
     98  CD2       -0.2350    3.5840   36.1870 C.3   109  LEU109      0.0001
     99  N         12.7330    0.7730   36.2230 N.3   138  SER138     -0.1217
    100  CA        13.8050    1.7290   35.9660 C.3   138  SER138      0.1889
    101  C         14.3800    1.5930   34.5700 C.2   138  SER138      0.2288
    102  O         14.7220    2.5890   33.9450 O.2   138  SER138     -0.2866
    103  CB        14.9540    1.5580   36.9820 C.3   138  SER138      0.2089
    104  OG        14.4550    1.5300   38.3040 O.3   138  SER138     -0.2183
    105  N         12.2360    3.1240   31.7690 N.3   141  TRP141     -0.1241
    106  CA        12.3890    4.5760   31.6490 C.3   141  TRP141      0.1605
    107  C         13.7360    4.9600   31.0500 C.2   141  TRP141      0.2264
    108  O         13.8000    5.8590   30.2340 O.2   141  TRP141     -0.2867
    109  CB        12.1080    5.2870   32.9770 C.3   141  TRP141      0.0550
    110  CG        10.6270    5.2560   33.2980 C.ar  141  TRP141      0.0003
    111  CD1       10.0310    4.5890   34.3180 C.ar  141  TRP141      0.0946
    112  CD2        9.5640    5.9050   32.5650 C.ar  141  TRP141      0.0152
    113  NE1        8.6660    4.7830   34.2800 N.ar  141  TRP141     -0.2442
    114  CE2        8.3580    5.5690   33.2020 C.ar  141  TRP141      0.0810
    115  CE3        9.5240    6.7240   31.4240 C.ar  141  TRP141      0.0012
    116  CZ2        7.1170    6.0430   32.7550 C.ar  141  TRP141      0.0191
    117  CZ3        8.3030    7.1880   30.9860 C.ar  141  TRP141      0.0001
    118  CH2        7.1140    6.8440   31.6500 C.ar  141  TRP141      0.0015
    119  N         13.7660    6.7610   27.3810 N.3   145  SER145     -0.1217
    120  CA        14.4180    8.0810   27.3620 C.3   145  SER145      0.1889
    121  C         15.5370    8.1400   26.3490 C.2   145  SER145      0.2288
    122  O         15.7060    9.1390   25.6610 O.2   145  SER145     -0.2866
    123  CB        15.0130    8.3880   28.7320 C.3   145  SER145      0.2089
    124  OG        13.9900    8.5470   29.6800 O.3   145  SER145     -0.2183
    125  N         13.9120    8.3240   23.0550 N.3   148  PHE148     -0.1241
    126  CA        13.3470    9.6570   23.0190 C.3   148  PHE148      0.1605
    127  C         14.4140   10.6790   22.5780 C.2   148  PHE148      0.2264
    128  O         14.1570   11.5370   21.7460 O.2   148  PHE148     -0.2867
    129  CB        12.8480    9.9800   24.4330 C.3   148  PHE148      0.0534
    130  CG        12.0800   11.2830   24.5830 C.ar  148  PHE148     -0.0203
    131  CD1       10.9040   11.5350   23.8870 C.ar  148  PHE148     -0.0042
    132  CD2       12.4800   12.1990   25.5420 C.ar  148  PHE148     -0.0042
    133  CE1       10.1760   12.7220   24.0960 C.ar  148  PHE148     -0.0003
    134  CE2       11.7580   13.3750   25.7730 C.ar  148  PHE148     -0.0003
    135  CZ        10.5970   13.6430   25.0480 C.ar  148  PHE148     -0.0000
    136  N         21.5280   11.9130   36.7070 N.3   172  SER172     -0.1202
    137  CA        20.1090   11.8440   36.3940 C.3   172  SER172      0.2020
    138  C         19.9010   11.1810   35.0470 C.2   172  SER172      0.2619
    139  O         20.8420   10.9920   34.2860 O.2   172  SER172     -0.2717
    140  CB        19.5160   13.2560   36.3530 C.3   172  SER172      0.2103
    141  OG        19.9920   13.9740   35.2190 O.3   172  SER172     -0.2182
    142  N         18.6550   10.8490   34.7230 N.am  173  ILE173     -0.1965
    143  CA        18.3800   10.3420   33.3830 C.3   173  ILE173      0.1727
    144  C         18.6500   11.4180   32.3330 C.2   173  ILE173      0.2616
    145  O         19.2460   11.1420   31.2750 O.2   173  ILE173     -0.2715
    146  CB        16.9560    9.7490   33.2420 C.3   173  ILE173      0.0290
    147  CG1       16.7810    8.5960   34.2280 C.3   173  ILE173      0.0022
    148  CG2       16.7370    9.2690   31.8150 C.3   173  ILE173      0.0023
    149  CD1       15.5620    7.6820   33.9110 C.3   173  ILE173      0.0001
    150  N         18.2980   12.6640   32.6220 N.am  174  PHE174     -0.1974
    151  CA        18.6400   13.7020   31.6480 C.3   174  PHE174      0.1639
    152  C         20.1390   13.7990   31.4390 C.2   174  PHE174      0.2290
    153  O         20.6030   13.9200   30.2900 O.2   174  PHE174     -0.2864
    154  CB        18.0750   15.0790   32.0090 C.3   174  PHE174      0.0560
    155  CG        18.4530   16.1440   31.0310 C.ar  174  PHE174     -0.0200
    156  CD1       17.9720   16.1100   29.7310 C.ar  174  PHE174     -0.0042
    157  CD2       19.3060   17.1780   31.4030 C.ar  174  PHE174     -0.0042
    158  CE1       18.3160   17.1010   28.8130 C.ar  174  PHE174     -0.0003
    159  CE2       19.6510   18.1610   30.5010 C.ar  174  PHE174     -0.0003
    160  CZ        19.1540   18.1210   29.1950 C.ar  174  PHE174     -0.0000
    161  N         19.8610   11.0640   28.4280 N.3   178  GLU178     -0.1245
    162  CA        19.2980   11.8990   27.3640 C.3   178  GLU178      0.1567
    163  C         20.2840   12.8430   26.6880 C.2   178  GLU178      0.2260
    164  O         20.4870   12.7670   25.4740 O.2   178  GLU178     -0.2867
    165  CB        18.0450   12.6240   27.8490 C.3   178  GLU178      0.0388
    166  CG        17.0250   11.5940   28.3140 C.3   178  GLU178      0.1160
    167  CD        15.8450   12.1980   29.0000 C.2   178  GLU178      0.3649
    168  OE1       15.9840   13.2310   29.7100 O.co2 178  GLU178     -0.2457
    169  OE2       14.7690   11.6260   28.8060 O.co2 178  GLU178     -0.2457
@<TRIPOS>BOND
     1   128   127    2
     2   127   126    1
     3   126   125    1
     4   126   129    1
     5   131   133   ar
     6   131   130   ar
     7   133   135   ar
     8   129   130    1
     9    17    18   ar
    10    17    15   ar
    11     1     2    1
    12    18    16   ar
    13   130   132   ar
    14   135   134   ar
    15   164   163    2
    16   132   134   ar
    17     7     5    1
    18    15    13   ar
    19   122   121    2
    20    16    14   ar
    21     2     5    1
    22     2     3    1
    23   121   120    1
    24     5     6    1
    25    63    62    1
    26   163   162    1
    27     3     4    2
    28     3     8   am
    29    13    14   ar
    30    13    12    1
    31    60    59    2
    32    58    57    1
    33    58    59    1
    34    58    61    1
    35     8     9    1
    36   120   119    1
    37   120   123    1
    38   162   165    1
    39   162   161    1
    40    59    65   am
    41   165   166    1
    42    62    61    1
    43    62    64    1
    44    67    68    2
    45    67    66    1
    46    12     9    1
    47   166   167    1
    48     9    10    1
    49    65    66    1
    50   123   124    1
    51   169   167   ar
    52   158   160   ar
    53   158   156   ar
    54   167   168   ar
    55    66    69    1
    56   160   159   ar
    57    10    11    2
    58    10    19   am
    59   156   155   ar
    60   108   107    2
    61   153   152    2
    62    69    70    1
    63   159   157   ar
    64    74    75    1
    65    72    71   ar
    66    19    20    1
    67   117   115   ar
    68   117   118   ar
    69   155   157   ar
    70   155   154    1
    71   107   106    1
    72   145   144    2
    73   115   112   ar
    74    78    75    1
    75   152   151    1
    76    71    70    1
    77    71    73   ar
    78    25    27   ar
    79    25    24   ar
    80   151   154    1
    81   151   150    1
    82   106   105    1
    83   106   109    1
    84   118   116   ar
    85   148   146    1
    86    75    76    1
    87    27    28   ar
    88    20    23    1
    89    20    21    1
    90   144   150   am
    91   144   143    1
    92   112   114   ar
    93   112   110   ar
    94    24    23    1
    95    24    26   ar
    96    79    76   am
    97    79    80    1
    98   116   114   ar
    99    22    21    2
   100    83    80    1
   101    83    84    1
   102    76    77    2
   103   109   110    1
   104    28    26   ar
   105    28    30   ar
   106    21    33   am
   107   114   113   ar
   108   146   143    1
   109   146   147    1
   110   110   111   ar
   111   143   142    1
   112    80    81    1
   113    26    29   ar
   114    86    84   ar
   115    84    85   ar
   116    30    32   ar
   117   149   147    1
   118   102   101    2
   119    33    34    1
   120    97    96    1
   121   113   111   ar
   122   139   138    2
   123   101   100    1
   124    51    50    2
   125   142   138   am
   126    56    55    1
   127    29    31   ar
   128    81    82    2
   129    81    87   am
   130    37    34    1
   131    37    38    1
   132   138   137    1
   133    32    31   ar
   134    96    95    1
   135    96    98    1
   136   141   140    1
   137    34    35    1
   138    50    49    1
   139    87    88    1
   140    95    92    1
   141    53    54    1
   142    53    52    1
   143   100    99    1
   144   100   103    1
   145    49    52    1
   146    49    48    1
   147    55    54    1
   148   140   137    1
   149   137   136    1
   150    35    36    2
   151    35    39   am
   152    91    92    1
   153    91    89   am
   154   103   104    1
   155    92    93    1
   156    88    89    1
   157    39    40    1
   158    94    93    2
   159    89    90    2
   160    41    40    1
   161    41    42    2
   162    40    43    1
   163    44    43    1
   164    44    45    1
   165    46    45    1
   166    46    47    1
