@<TRIPOS>MOLECULE
tmp/3p62A00.pdb
 226 221 0 0 0
SMALL
GASTEIGER

@<TRIPOS>ATOM
      1  N         27.9980   30.7960   15.5140 N.3    21  ALA21      -0.1231
      2  CA        26.7580   30.3430   16.0810 C.3    21  ALA21       0.1679
      3  C         26.6440   30.7460   17.5400 C.2    21  ALA21       0.2434
      4  O         27.6530   30.9050   18.2330 O.2    21  ALA21      -0.2733
      5  CB        26.6360   28.7960   15.9640 C.3    21  ALA21       0.0304
      6  N         25.3920   30.8650   18.0310 N.am   22  PRO22      -0.2718
      7  CA        25.2020   31.1500   19.4340 C.3    22  PRO22       0.1535
      8  C         25.6660   29.9690   20.2870 C.2    22  PRO22       0.2598
      9  O         25.2520   28.8390   20.0410 O.2    22  PRO22      -0.2715
     10  CB        23.6870   31.3560   19.5570 C.3    22  PRO22       0.0310
     11  CG        23.0930   30.6050   18.3780 C.3    22  PRO22       0.0237
     12  CD        24.1090   30.7810   17.3000 C.3    22  PRO22       0.0939
     13  N         26.5020   30.2350   21.2970 N.am   23  LEU23      -0.1964
     14  CA        27.1120   29.1550   22.0610 C.3    23  LEU23       0.1728
     15  C         27.0920   29.4750   23.5410 C.2    23  LEU23       0.2617
     16  O         27.8380   30.3290   24.0350 O.2    23  LEU23      -0.2715
     17  CB        28.5520   28.9170   21.6100 C.3    23  LEU23       0.0311
     18  CG        28.7310   28.4480   20.1620 C.3    23  LEU23       0.0022
     19  CD1       30.0840   28.8970   19.5890 C.3    23  LEU23       0.0001
     20  CD2       28.5910   26.9090   20.0770 C.3    23  LEU23       0.0001
     21  N         26.2130   28.7960   24.2530 N.am   24  THR24      -0.1937
     22  CA        26.1690   28.8570   25.7080 C.3    24  THR24       0.2028
     23  C         27.4590   28.3030   26.2730 C.2    24  THR24       0.2642
     24  O         27.8590   27.1810   25.9600 O.2    24  THR24      -0.2714
     25  CB        24.9600   28.0240   26.1700 C.3    24  THR24       0.1808
     26  OG1       23.7580   28.7380   25.8430 O.3    24  THR24      -0.2208
     27  CG2       24.9340   27.7040   27.6750 C.3    24  THR24       0.0379
     28  N         28.1360   29.1170   27.0910 N.am   25  ARG25      -0.1977
     29  CA        29.4140   28.7660   27.7230 C.3    25  ARG25       0.1597
     30  C         29.4050   28.8290   29.2490 C.2    25  ARG25       0.2287
     31  O         30.3500   28.3500   29.8830 O.2    25  ARG25      -0.2864
     32  CB        30.5580   29.6230   27.1510 C.3    25  ARG25       0.0334
     33  CG        30.6510   29.6670   25.6380 C.3    25  ARG25       0.0492
     34  CD        30.8730   28.3370   24.9590 C.3    25  ARG25       0.2205
     35  NE        32.0670   27.6550   25.4540 N.pl3  25  ARG25      -0.0865
     36  CZ        33.3080   27.8650   25.0220 C.cat  25  ARG25       0.5346
     37  NH1       33.5690   28.7700   24.0680 N.pl3  25  ARG25       0.1354
     38  NH2       34.3230   27.2120   25.5710 N.pl3  25  ARG25       0.1354
     39  N         23.0380   32.3660   24.2280 N.3    56  ALA56      -0.1245
     40  CA        21.6890   32.6570   24.6580 C.3    56  ALA56       0.1562
     41  C         21.7100   33.4970   25.9520 C.2    56  ALA56       0.2260
     42  O         22.4250   33.1900   26.9140 O.2    56  ALA56      -0.2867
     43  CB        20.9150   31.3780   24.8440 C.3    56  ALA56       0.0290
     44  N         21.6130   36.7550   21.0800 N.3    98  GLN98      -0.1245
     45  CA        20.5510   35.7530   21.0930 C.3    98  GLN98       0.1566
     46  C         19.7560   35.8870   22.4020 C.2    98  GLN98       0.2260
     47  O         20.3310   35.7880   23.4900 O.2    98  GLN98      -0.2867
     48  CB        21.0680   34.3320   20.9230 C.3    98  GLN98       0.0367
     49  CG        19.8900   33.3980   20.6860 C.3    98  GLN98       0.0905
     50  CD        20.2510   31.9390   20.6820 C.2    98  GLN98       0.2608
     51  OE1       20.7830   31.4230   21.6660 O.2    98  GLN98      -0.2717
     52  NE2       19.9140   31.2400   19.5830 N.am   98  GLN98      -0.0878
     53  N         16.6510   34.6170   24.8750 N.3   100  TRP100     -0.1241
     54  CA        15.7710   33.4960   25.2040 C.3   100  TRP100      0.1605
     55  C         14.9990   33.6570   26.4790 C.2   100  TRP100      0.2264
     56  O         15.3140   34.4750   27.3480 O.2   100  TRP100     -0.2867
     57  CB        16.5290   32.1600   25.2740 C.3   100  TRP100      0.0550
     58  CG        17.5080   31.9540   26.3920 C.ar  100  TRP100      0.0003
     59  CD1       17.9500   32.8700   27.3160 C.ar  100  TRP100      0.0946
     60  CD2       18.2580   30.7510   26.6520 C.ar  100  TRP100      0.0152
     61  NE1       18.9340   32.3170   28.0810 N.ar  100  TRP100     -0.2442
     62  CE2       19.1410   31.0190   27.6930 C.ar  100  TRP100      0.0810
     63  CE3       18.2780   29.4810   26.0650 C.ar  100  TRP100      0.0012
     64  CZ2       20.0530   30.0560   28.1610 C.ar  100  TRP100      0.0191
     65  CZ3       19.1890   28.5510   26.5230 C.ar  100  TRP100      0.0001
     66  CH2       20.0490   28.8320   27.5390 C.ar  100  TRP100      0.0015
     67  N         15.4040   33.3850   20.2240 N.3   179  HIS179     -0.1241
     68  CA        15.6610   31.9450   20.3540 C.3   179  HIS179      0.1621
     69  C         14.3480   31.1890   20.3270 C.2   179  HIS179      0.2264
     70  O         13.6980   30.9920   21.3670 O.2   179  HIS179     -0.2867
     71  CB        16.4270   31.6380   21.6330 C.3   179  HIS179      0.0745
     72  CG        17.0500   30.2770   21.6180 C.ar  179  HIS179      0.0817
     73  ND1       16.6370   29.2840   20.7520 N.ar  179  HIS179     -0.2268
     74  CD2       18.0840   29.7640   22.3330 C.ar  179  HIS179      0.1154
     75  CE1       17.4160   28.2250   20.9330 C.ar  179  HIS179      0.1986
     76  NE2       18.2980   28.4930   21.8860 N.ar  179  HIS179     -0.2212
     77  N         15.1760   24.6920   19.8240 N.3   182  HIS182     -0.1241
     78  CA        15.8300   23.8190   20.7870 C.3   182  HIS182      0.1621
     79  C         15.0180   23.5480   22.0440 C.2   182  HIS182      0.2264
     80  O         15.5760   23.2800   23.0870 O.2   182  HIS182     -0.2867
     81  CB        17.2190   24.3550   21.1420 C.3   182  HIS182      0.0745
     82  CG        18.1490   24.4300   19.9610 C.ar  182  HIS182      0.0817
     83  ND1       19.3410   25.1220   19.9920 N.ar  182  HIS182     -0.2268
     84  CD2       18.0440   23.9170   18.7110 C.ar  182  HIS182      0.1154
     85  CE1       19.9370   25.0160   18.8080 C.ar  182  HIS182      0.1986
     86  NE2       19.1670   24.2910   18.0100 N.ar  182  HIS182     -0.2212
     87  N         13.1960   25.5720   23.9170 N.3   184  TYR184     -0.1241
     88  CA        13.0280   26.6410   24.9110 C.3   184  TYR184      0.1605
     89  C         11.6250   27.2590   24.7860 C.2   184  TYR184      0.2264
     90  O         10.7530   26.6700   24.1090 O.2   184  TYR184     -0.2867
     91  CB        14.2300   27.6100   24.8650 C.3   184  TYR184      0.0534
     92  CG        15.5020   26.8480   25.1720 C.ar  184  TYR184     -0.0201
     93  CD1       15.7300   26.3210   26.4430 C.ar  184  TYR184     -0.0009
     94  CD2       16.4680   26.6200   24.1980 C.ar  184  TYR184     -0.0009
     95  CE1       16.8360   25.6000   26.7260 C.ar  184  TYR184      0.0417
     96  CE2       17.5900   25.8830   24.4900 C.ar  184  TYR184      0.0417
     97  CZ        17.7780   25.3730   25.7520 C.ar  184  TYR184      0.1957
     98  OH        18.9010   24.6360   26.0270 O.3   184  TYR184     -0.2866
     99  N         15.8350   32.3290   15.3520 N.3   231  ARG231     -0.1245
    100  CA        16.3530   30.9800   15.1900 C.3   231  ARG231      0.1563
    101  C         15.2460   29.9820   15.4430 C.2   231  ARG231      0.2260
    102  O         14.5440   30.0480   16.4550 O.2   231  ARG231     -0.2867
    103  CB        17.5270   30.6710   16.1130 C.3   231  ARG231      0.0307
    104  CG        18.3300   29.4680   15.6220 C.3   231  ARG231      0.0489
    105  CD        19.5670   29.2100   16.3900 C.3   231  ARG231      0.2205
    106  NE        20.5800   28.5740   15.5380 N.pl3 231  ARG231     -0.0865
    107  CZ        21.6490   27.9150   15.9600 C.cat 231  ARG231      0.5346
    108  NH1       21.7920   27.5700   17.2250 N.pl3 231  ARG231      0.1354
    109  NH2       22.5730   27.5410   15.0770 N.pl3 231  ARG231      0.1354
    110  N         18.4640   25.9040   12.6600 N.3   269  SER269     -0.1217
    111  CA        19.2720   24.8860   13.3150 C.3   269  SER269      0.1889
    112  C         18.7120   23.5390   12.8540 C.2   269  SER269      0.2288
    113  O         17.5700   23.1610   13.1940 O.2   269  SER269     -0.2866
    114  CB        19.1960   25.0450   14.8120 C.3   269  SER269      0.2089
    115  OG        19.9110   23.9930   15.4290 O.3   269  SER269     -0.2183
    116  N         19.7690   20.2010   12.8650 N.3   271  THR271     -0.1218
    117  CA        19.8510   18.9850   13.6460 C.3   271  THR271      0.1862
    118  C         20.5030   19.2970   14.9720 C.2   271  THR271      0.2287
    119  O         21.2360   20.2930   15.0700 O.2   271  THR271     -0.2866
    120  CB        20.7030   17.9470   12.9310 C.3   271  THR271      0.1770
    121  OG1       20.7370   16.7710   13.7180 O.3   271  THR271     -0.2211
    122  CG2       22.1060   18.4350   12.7390 C.3   271  THR271      0.0375
    123  N         23.1590   18.0460   18.1930 N.3   273  LEU273     -0.1245
    124  CA        24.5190   17.5440   18.1100 C.3   273  LEU273      0.1561
    125  C         24.5550   16.0210   17.8890 C.2   273  LEU273      0.2260
    126  O         25.5440   15.5160   17.3780 O.2   273  LEU273     -0.2867
    127  CB        25.3020   17.9020   19.3730 C.3   273  LEU273      0.0270
    128  CG        25.4360   19.3960   19.6990 C.3   273  LEU273      0.0019
    129  CD1       26.2030   19.5490   21.0130 C.3   273  LEU273      0.0001
    130  CD2       26.0970   20.1960   18.6060 C.3   273  LEU273      0.0001
    131  N         22.7430   25.9370    9.9790 N.3   298  ALA298     -0.1231
    132  CA        23.6180   25.4610   11.0350 C.3   298  ALA298      0.1694
    133  C         23.3510   24.0120   11.3410 C.2   298  ALA298      0.2593
    134  O         22.2370   23.5000   11.1640 O.2   298  ALA298     -0.2718
    135  CB        23.4470   26.2980   12.3170 C.3   298  ALA298      0.0304
    136  N         24.4030   23.3690   11.8190 N.am  299  GLY299     -0.1942
    137  CA        24.3580   21.9920   12.3210 C.3   299  GLY299      0.2014
    138  C         25.3530   21.0830   11.6290 C.2   299  GLY299      0.2639
    139  O         25.0770   20.5800   10.5610 O.2   299  GLY299     -0.2714
    140  N         26.5360   20.9610   12.2290 N.am  300  ALA300     -0.1963
    141  CA        27.6180   20.1290   11.7180 C.3   300  ALA300      0.1728
    142  C         28.0220   20.4380   10.2930 C.2   300  ALA300      0.2616
    143  O         28.5220   19.5550    9.5830 O.2   300  ALA300     -0.2715
    144  CB        27.2690   18.6380   11.9030 C.3   300  ALA300      0.0334
    145  N         27.8940   21.6890    9.8830 N.am  301  TYR301     -0.1974
    146  CA        28.3840   22.0980    8.5640 C.3   301  TYR301      0.1639
    147  C         29.8940   22.0240    8.4740 C.2   301  TYR301      0.2290
    148  O         30.6220   22.3270    9.4160 O.2   301  TYR301     -0.2864
    149  CB        27.9650   23.5250    8.2460 C.3   301  TYR301      0.0560
    150  CG        26.6000   23.7100    7.6140 C.ar  301  TYR301     -0.0198
    151  CD1       25.4320   23.5200    8.3460 C.ar  301  TYR301     -0.0009
    152  CD2       26.4840   24.1330    6.3060 C.ar  301  TYR301     -0.0009
    153  CE1       24.2020   23.7380    7.7730 C.ar  301  TYR301      0.0417
    154  CE2       25.2550   24.3460    5.7310 C.ar  301  TYR301      0.0417
    155  CZ        24.1100   24.1510    6.4730 C.ar  301  TYR301      0.1957
    156  OH        22.8880   24.3740    5.8590 O.3   301  TYR301     -0.2866
    157  N         26.3430   29.2680   10.1400 N.3   319  ALA319     -0.1231
    158  CA        26.8300   29.4750   11.4880 C.3   319  ALA319      0.1694
    159  C         27.5410   28.2090   11.9630 C.2   319  ALA319      0.2592
    160  O         26.9550   27.1130   12.0000 O.2   319  ALA319     -0.2718
    161  CB        25.7180   29.8550   12.4480 C.3   319  ALA319      0.0304
    162  N         28.8060   28.3740   12.3270 N.am  320  PHE320     -0.1962
    163  CA        29.6450   27.2970   12.8670 C.3   320  PHE320      0.1771
    164  C         29.6980   27.4410   14.3820 C.2   320  PHE320      0.2620
    165  O         29.9130   28.5420   14.8980 O.2   320  PHE320     -0.2715
    166  CB        31.0600   27.4050   12.2920 C.3   320  PHE320      0.0574
    167  CG        31.1350   27.1690   10.8030 C.ar  320  PHE320     -0.0200
    168  CD1       31.1160   25.8710   10.2990 C.ar  320  PHE320     -0.0042
    169  CD2       31.2440   28.2170    9.9180 C.ar  320  PHE320     -0.0042
    170  CE1       31.2060   25.6410    8.9140 C.ar  320  PHE320     -0.0003
    171  CE2       31.3050   27.9860    8.5420 C.ar  320  PHE320     -0.0003
    172  CZ        31.2770   26.6920    8.0490 C.ar  320  PHE320     -0.0000
    173  N         29.4800   26.3280   15.0790 N.am  321  GLY321     -0.1940
    174  CA        29.4950   26.2930   16.5340 C.3   321  GLY321      0.2014
    175  C         30.8420   25.8620   17.1000 C.2   321  GLY321      0.2639
    176  O         31.6850   26.6770   17.4810 O.2   321  GLY321     -0.2714
    177  N         31.0540   24.5650   17.1630 N.am  322  ARG322     -0.1963
    178  CA        32.2390   24.0360   17.8160 C.3   322  ARG322      0.1729
    179  C         33.5400   24.4570   17.1330 C.2   322  ARG322      0.2616
    180  O         34.5440   24.6670   17.8180 O.2   322  ARG322     -0.2715
    181  CB        32.0930   22.5190   17.9420 C.3   322  ARG322      0.0348
    182  CG        31.0690   22.1740   19.0030 C.3   322  ARG322      0.0492
    183  CD        30.5760   20.7400   18.9500 C.3   322  ARG322      0.2205
    184  NE        29.8720   20.4530   17.6910 N.pl3 322  ARG322     -0.0865
    185  CZ        29.3440   19.2710   17.3720 C.cat 322  ARG322      0.5346
    186  NH1       29.4460   18.2640   18.2170 N.pl3 322  ARG322      0.1354
    187  NH2       28.7200   19.1070   16.2170 N.pl3 322  ARG322      0.1354
    188  N         33.5390   24.6230   15.8160 N.am  323  ASP323     -0.1971
    189  CA        34.7550   25.1210   15.1500 C.3   323  ASP323      0.1709
    190  C         35.0730   26.5430   15.6150 C.2   323  ASP323      0.2293
    191  O         36.2320   26.9480   15.6190 O.2   323  ASP323     -0.2864
    192  CB        34.6600   25.0670   13.6230 C.3   323  ASP323      0.1436
    193  CG        34.7260   23.6590   13.0660 C.2   323  ASP323      0.3671
    194  OD1       35.3040   22.7650   13.7090 O.co2 323  ASP323     -0.2456
    195  OD2       34.1370   23.4760   11.9890 O.co2 323  ASP323     -0.2456
    196  N         34.2700   27.7340   18.7070 N.3   325  ILE325     -0.1245
    197  CA        34.8120   27.5840   20.0440 C.3   325  ILE325      0.1561
    198  C         36.3220   27.4620   19.9350 C.2   325  ILE325      0.2260
    199  O         37.0590   28.1050   20.6610 O.2   325  ILE325     -0.2867
    200  CB        34.2130   26.3510   20.7820 C.3   325  ILE325      0.0252
    201  CG1       32.7300   26.5870   21.0670 C.3   325  ILE325      0.0019
    202  CG2       35.0090   26.0260   22.0500 C.3   325  ILE325      0.0019
    203  CD1       32.0200   25.4690   21.8510 C.3   325  ILE325      0.0001
    204  N         33.7020   23.1300   27.2470 N.3   348  PHE348     -0.1227
    205  CA        32.6210   23.8920   26.6210 C.3   348  PHE348      0.1736
    206  C         31.7760   24.6620   27.6440 C.2   348  PHE348      0.2595
    207  O         31.4860   25.8560   27.4540 O.2   348  PHE348     -0.2718
    208  CB        31.7340   23.0200   25.7320 C.3   348  PHE348      0.0547
    209  CG        32.3840   22.5470   24.4510 C.ar  348  PHE348     -0.0202
    210  CD1       33.6640   22.9610   24.0450 C.ar  348  PHE348     -0.0042
    211  CD2       31.6630   21.7140   23.5930 C.ar  348  PHE348     -0.0042
    212  CE1       34.2140   22.4890   22.8330 C.ar  348  PHE348     -0.0003
    213  CE2       32.1990   21.2680   22.3890 C.ar  348  PHE348     -0.0003
    214  CZ        33.4580   21.6600   21.9990 C.ar  348  PHE348     -0.0000
    215  N         31.3880   24.0060   28.7340 N.am  349  TYR349     -0.1976
    216  CA        30.5080   24.6260   29.6940 C.3   349  TYR349      0.1639
    217  C         31.1860   24.9130   31.0110 C.2   349  TYR349      0.2290
    218  O         31.7770   23.9800   31.6380 O.2   349  TYR349     -0.2864
    219  CB        29.2910   23.7440   29.9350 C.3   349  TYR349      0.0560
    220  CG        28.4690   23.4660   28.7150 C.ar  349  TYR349     -0.0198
    221  CD1       27.6600   24.4550   28.1670 C.ar  349  TYR349     -0.0009
    222  CD2       28.4670   22.2150   28.1050 C.ar  349  TYR349     -0.0009
    223  CE1       26.8740   24.2230   27.0680 C.ar  349  TYR349      0.0417
    224  CE2       27.6760   21.9740   26.9870 C.ar  349  TYR349      0.0417
    225  CZ        26.8820   22.9890   26.4640 C.ar  349  TYR349      0.1957
    226  OH        26.0490   22.7900   25.3730 O.3   349  TYR349     -0.2866
@<TRIPOS>BOND
     1   154   152   ar
     2   154   155   ar
     3   156   155    1
     4   152   150   ar
     5   155   153   ar
     6   150   149    1
     7   150   151   ar
     8   153   151   ar
     9   172   171   ar
    10   172   170   ar
    11   149   146    1
    12   147   146    1
    13   147   148    2
    14   171   169   ar
    15   146   145    1
    16   170   168   ar
    17   143   142    2
    18   145   142   am
    19   169   167   ar
    20   131   132    1
    21   157   158    1
    22   142   141    1
    23   168   167   ar
    24   139   138    2
    25   167   166    1
    26   132   133    1
    27   132   135    1
    28   134   133    2
    29   133   136   am
    30   158   159    1
    31   158   161    1
    32   138   140   am
    33   138   137    1
    34   141   144    1
    35   141   140    1
    36   136   137    1
    37   159   160    2
    38   159   162   am
    39   195   193   ar
    40   166   163    1
    41   162   163    1
    42   110   111    1
    43   122   120    1
    44   112   113    2
    45   112   111    1
    46   116   117    1
    47   163   164    1
    48   120   117    1
    49   120   121    1
    50   193   192    1
    51   193   194   ar
    52   111   114    1
    53   192   189    1
    54   117   118    1
    55   164   165    2
    56   164   173   am
    57   114   115    1
    58   118   119    2
    59   109   107    1
    60   173   174    1
    61   189   190    1
    62   189   188    1
    63   100    99    1
    64   100   101    1
    65   100   103    1
    66   101   102    2
    67     1     2    1
    68   106   107    2
    69   106   105    1
    70   190   191    2
    71   104   103    1
    72   104   105    1
    73   188   179   am
    74   107   108    1
    75     5     2    1
    76     2     3    1
    77   187   185    1
    78   174   175    1
    79   175   177   am
    80   175   176    2
    81   179   178    1
    82   179   180    2
    83   177   178    1
    84    12     6    1
    85    12    11    1
    86   185   184    2
    87   185   186    1
    88   126   125    2
    89     3     6   am
    90     3     4    2
    91   184   183    1
    92   178   181    1
    93   125   124    1
    94   181   182    1
    95    86    84   ar
    96    86    85   ar
    97     6     7    1
    98   124   123    1
    99   124   127    1
   100    11    10    1
   101   130   128    1
   102   196   197    1
   103    84    82   ar
   104    85    83   ar
   105   183   182    1
   106   127   128    1
   107     7    10    1
   108     7     8    1
   109    52    50   am
   110    19    18    1
   111   128   129    1
   112    77    78    1
   113   198   197    1
   114   198   199    2
   115    82    83   ar
   116    82    81    1
   117     9     8    2
   118   197   200    1
   119    20    18    1
   120    18    17    1
   121    67    68    1
   122     8    13   am
   123    69    68    1
   124    69    70    2
   125    68    71    1
   126    50    49    1
   127    50    51    2
   128    49    48    1
   129    73    75   ar
   130    73    72   ar
   131   200   201    1
   132   200   202    1
   133    78    81    1
   134    78    79    1
   135    48    45    1
   136    75    76   ar
   137   201   203    1
   138    44    45    1
   139    45    46    1
   140    13    14    1
   141    17    14    1
   142    72    71    1
   143    72    74   ar
   144    76    74   ar
   145   214   213   ar
   146   214   212   ar
   147    79    80    2
   148    14    15    1
   149   213   211   ar
   150    46    47    2
   151   212   210   ar
   152    15    16    2
   153    15    21   am
   154   211   209   ar
   155    87    88    1
   156   210   209   ar
   157    37    36    1
   158    90    89    2
   159    94    96   ar
   160    94    92   ar
   161    39    40    1
   162    21    22    1
   163   209   208    1
   164    96    97   ar
   165    40    43    1
   166    40    41    1
   167    89    88    1
   168    91    88    1
   169    91    92    1
   170    53    54    1
   171    34    35    1
   172    34    33    1
   173    36    35    2
   174    36    38    1
   175    92    93   ar
   176    54    57    1
   177    54    55    1
   178    57    58    1
   179   226   225    1
   180    33    32    1
   181    22    25    1
   182    22    23    1
   183   208   205    1
   184    97    98    1
   185    97    95   ar
   186    26    25    1
   187    41    42    2
   188    24    23    2
   189    63    65   ar
   190    63    60   ar
   191    25    27    1
   192    23    28   am
   193    58    60   ar
   194    58    59   ar
   195    93    95   ar
   196   225   224   ar
   197   225   223   ar
   198    55    56    2
   199    65    66   ar
   200   205   204    1
   201   205   206    1
   202    60    62   ar
   203   224   222   ar
   204   223   221   ar
   205    28    29    1
   206    32    29    1
   207    59    61   ar
   208   207   206    2
   209    66    64   ar
   210   206   215   am
   211    62    61   ar
   212    62    64   ar
   213    29    30    1
   214   222   220   ar
   215   221   220   ar
   216   220   219    1
   217   215   216    1
   218    30    31    2
   219   216   219    1
   220   216   217    1
   221   217   218    2
