@<TRIPOS>MOLECULE
tmp/3p6cA00.pdb
 166 155 0 0 0
SMALL
GASTEIGER

@<TRIPOS>ATOM
      1  N         10.5160   -1.0470   21.5680 N.3    24  PHE24      -0.1241
      2  CA         9.7260    0.1640   21.8260 C.3    24  PHE24       0.1605
      3  C          9.3290    0.2900   23.2600 C.2    24  PHE24       0.2264
      4  O          9.2410    1.4080   23.7890 O.2    24  PHE24      -0.2867
      5  CB         8.5300    0.1910   20.8630 C.3    24  PHE24       0.0534
      6  CG         7.7660    1.4970   20.8560 C.ar   24  PHE24      -0.0203
      7  CD1        8.3830    2.6770   20.5110 C.ar   24  PHE24      -0.0042
      8  CD2        6.4190    1.5270   21.0510 C.ar   24  PHE24      -0.0042
      9  CE1        7.6860    3.8510   20.4370 C.ar   24  PHE24      -0.0003
     10  CE2        5.6950    2.6920   20.9710 C.ar   24  PHE24      -0.0003
     11  CZ         6.3380    3.8420   20.6780 C.ar   24  PHE24      -0.0000
     12  N         12.3430    1.7950   24.9580 N.3    27  TYR27      -0.1227
     13  CA        12.3990    3.2110   24.5990 C.3    27  TYR27       0.1736
     14  C         11.4060    4.0050   25.4130 C.2    27  TYR27       0.2595
     15  O         11.7680    5.0780   26.0000 O.2    27  TYR27      -0.2718
     16  CB        12.1650    3.3620   23.0860 C.3    27  TYR27       0.0548
     17  CG        11.9720    4.8370   22.6970 C.ar   27  TYR27      -0.0200
     18  CD1       13.0470    5.6710   22.6090 C.ar   27  TYR27      -0.0009
     19  CD2       10.7110    5.3290   22.4440 C.ar   27  TYR27      -0.0009
     20  CE1       12.8540    7.0520   22.2770 C.ar   27  TYR27       0.0417
     21  CE2       10.5340    6.6770   22.1220 C.ar   27  TYR27       0.0417
     22  CZ        11.5730    7.4980   22.0550 C.ar   27  TYR27       0.1957
     23  OH        11.3960    8.8480   21.7350 O.3    27  TYR27      -0.2866
     24  N         10.1480    3.5830   25.4470 N.am   28  MET28      -0.1979
     25  CA         9.1430    4.2990   26.2160 C.3    28  MET28       0.1605
     26  C          9.5170    4.3710   27.7150 C.2    28  MET28       0.2287
     27  O          9.3050    5.4030   28.3480 O.2    28  MET28      -0.2864
     28  CB         7.7560    3.7090   26.0260 C.3    28  MET28       0.0413
     29  CG         7.1510    3.9480   24.6160 C.3    28  MET28       0.0598
     30  SD         5.4370    3.4960   24.5710 S.3    28  MET28      -0.1393
     31  CE         5.6080    1.6900   24.5790 C.3    28  MET28       0.0692
     32  N         -0.2000    1.9020   14.0580 N.3    46  PRO46      -0.2116
     33  CA        -0.7770    3.0600   13.4150 C.3    46  PRO46       0.1372
     34  C         -0.6120    3.0980   11.9190 C.2    46  PRO46       0.2244
     35  O          0.3220    2.5320   11.3510 O.2    46  PRO46      -0.2868
     36  CB        -0.0020    4.2320   14.0350 C.3    46  PRO46       0.0268
     37  CG         1.1170    3.6620   14.7160 C.3    46  PRO46       0.0207
     38  CD         0.8480    2.2650   15.0110 C.3    46  PRO46       0.0892
     39  N          0.2960    6.0980    9.3030 N.3    48  MET48      -0.1245
     40  CA         0.8970    7.4010    9.3340 C.3    48  MET48       0.1570
     41  C          0.7450    7.9940    7.9270 C.2    48  MET48       0.2261
     42  O          1.0590    7.3390    6.9170 O.2    48  MET48      -0.2867
     43  CB         2.3480    7.2590    9.6770 C.3    48  MET48       0.0387
     44  CG         3.0970    8.5560    9.6420 C.3    48  MET48       0.0595
     45  SD         4.7670    8.4200   10.2580 S.3    48  MET48      -0.1393
     46  CE         5.4360    7.0890    9.2570 C.3    48  MET48       0.0692
     47  N         -0.8650   10.5720   12.5390 N.3    61  SER61      -0.1217
     48  CA        -0.8600    9.1900   13.0000 C.3    61  SER61       0.1889
     49  C         -2.2880    8.8440   13.4140 C.2    61  SER61       0.2288
     50  O         -2.8410    9.5160   14.2780 O.2    61  SER61      -0.2866
     51  CB         0.1080    9.0160   14.1110 C.3    61  SER61       0.2089
     52  OG         0.1570    7.6880   14.5800 O.3    61  SER61      -0.2183
     53  N          4.3360   20.5570   20.6800 N.3    80  GLU80      -0.1245
     54  CA         3.7770   19.2390   20.3660 C.3    80  GLU80       0.1567
     55  C          3.2900   18.5560   21.6300 C.2    80  GLU80       0.2260
     56  O          3.9890   18.5910   22.6340 O.2    80  GLU80      -0.2867
     57  CB         4.8610   18.3880   19.6430 C.3    80  GLU80       0.0388
     58  CG         4.4400   16.9740   19.3400 C.3    80  GLU80       0.1160
     59  CD         5.4330   16.1460   18.6120 C.2    80  GLU80       0.3649
     60  OE1        6.6040   16.5320   18.5440 O.co2  80  GLU80      -0.2457
     61  OE2        5.0690   15.0120   18.1660 O.co2  80  GLU80      -0.2457
     62  N          2.6070   14.9140   22.6250 N.3    82  THR82      -0.1203
     63  CA         2.8860   13.6240   22.1120 C.3    82  THR82       0.1994
     64  C          1.7530   12.6400   22.4380 C.2    82  THR82       0.2618
     65  O          0.9110   12.8960   23.2760 O.2    82  THR82      -0.2717
     66  CB         4.2460   13.0860   22.6100 C.3    82  THR82       0.1784
     67  OG1        4.1190   12.8590   24.0080 O.3    82  THR82      -0.2211
     68  CG2        5.3750   14.0420   22.3570 C.3    82  THR82       0.0376
     69  N          1.7700   11.4970   21.7540 N.am   83  ALA83      -0.1965
     70  CA         0.7440   10.4410   21.9210 C.3    83  ALA83       0.1728
     71  C          0.6570   10.0300   23.3840 C.2    83  ALA83       0.2616
     72  O         -0.4360    9.7840   23.8630 O.2    83  ALA83      -0.2715
     73  CB         1.0030    9.2510   21.0190 C.3    83  ALA83       0.0334
     74  N          1.8050    9.9940   24.0670 N.am   84  ASP84      -0.1971
     75  CA         1.8630    9.6390   25.4860 C.3    84  ASP84       0.1709
     76  C          1.6440   10.8290   26.4250 C.2    84  ASP84       0.2293
     77  O          1.7550   10.6950   27.6240 O.2    84  ASP84      -0.2864
     78  CB         3.1680    8.9390   25.7580 C.3    84  ASP84       0.1436
     79  CG         4.3800    9.8140   25.5280 C.2    84  ASP84       0.3671
     80  OD1        4.5520   10.2190   24.3550 O.co2  84  ASP84      -0.2456
     81  OD2        5.1730   10.0310   26.4660 O.co2  84  ASP84      -0.2456
     82  N          3.2060   13.9350   26.6960 N.3    86  ARG86      -0.1245
     83  CA         4.2160   14.9070   26.9830 C.3    86  ARG86       0.1563
     84  C          3.9810   16.1660   26.2020 C.2    86  ARG86       0.2260
     85  O          3.6420   16.1400   25.0520 O.2    86  ARG86      -0.2867
     86  CB         5.6430   14.4220   26.7350 C.3    86  ARG86       0.0307
     87  CG         6.1930   13.3260   27.6200 C.3    86  ARG86       0.0489
     88  CD         7.4870   12.7240   27.1180 C.3    86  ARG86       0.2205
     89  NE         7.2010   11.9130   25.9460 N.pl3  86  ARG86      -0.0865
     90  CZ         7.7750   11.9720   24.7430 C.cat  86  ARG86       0.5346
     91  NH1        8.8350   12.7380   24.5240 N.pl3  86  ARG86       0.1354
     92  NH2        7.3040   11.1880   23.7750 N.pl3  86  ARG86       0.1354
     93  N         13.7540   14.5710   14.1420 N.3   101  HIS101     -0.1241
     94  CA        12.7370   15.2090   14.9890 C.3   101  HIS101      0.1621
     95  C         13.2040   15.1580   16.3980 C.2   101  HIS101      0.2264
     96  O         13.2760   14.0940   16.9970 O.2   101  HIS101     -0.2867
     97  CB        11.4340   14.4020   14.7920 C.3   101  HIS101      0.0745
     98  CG        10.2200   14.8360   15.5290 C.ar  101  HIS101      0.0817
     99  ND1        9.0350   14.1680   15.3570 N.ar  101  HIS101     -0.2268
    100  CD2        9.9940   15.7750   16.5040 C.ar  101  HIS101      0.1154
    101  CE1        8.1080   14.7150   16.1140 C.ar  101  HIS101      0.1986
    102  NE2        8.6570   15.6960   16.8100 N.ar  101  HIS101     -0.2212
    103  N         12.7240   16.3220   20.2950 N.3   103  GLN103     -0.1245
    104  CA        11.7280   16.7470   21.2940 C.3   103  GLN103      0.1566
    105  C         12.4490   17.0680   22.6070 C.2   103  GLN103      0.2260
    106  O         13.2010   16.2300   23.1260 O.2   103  GLN103     -0.2867
    107  CB        10.7240   15.6080   21.5420 C.3   103  GLN103      0.0367
    108  CG         9.9360   15.2020   20.3490 C.3   103  GLN103      0.0905
    109  CD         8.9680   14.0570   20.5440 C.2   103  GLN103      0.2608
    110  OE1        7.9210   13.9270   19.8230 O.2   103  GLN103     -0.2717
    111  NE2        9.2660   13.2080   21.4680 N.am  103  GLN103     -0.0878
    112  N         13.7340   11.2920   17.1030 N.3   112  ILE112     -0.1245
    113  CA        13.0530   10.3530   16.2260 C.3   112  ILE112      0.1561
    114  C         13.5310   10.6560   14.8290 C.2   112  ILE112      0.2260
    115  O         13.3750   11.7360   14.3270 O.2   112  ILE112     -0.2867
    116  CB        11.5210   10.5250   16.2670 C.3   112  ILE112      0.0252
    117  CG1       11.0380   10.3310   17.7090 C.3   112  ILE112      0.0019
    118  CG2       10.8110    9.5640   15.2930 C.3   112  ILE112      0.0019
    119  CD1        9.5910   10.6970   17.8160 C.3   112  ILE112      0.0001
    120  N         13.5000    9.5220   10.7560 N.3   114  ARG114     -0.1245
    121  CA        12.6970    8.8290    9.7470 C.3   114  ARG114      0.1563
    122  C         13.4560    8.8000    8.4350 C.2   114  ARG114      0.2260
    123  O         13.9250    9.8580    7.9920 O.2   114  ARG114     -0.2867
    124  CB        11.3270    9.4920    9.6100 C.3   114  ARG114      0.0307
    125  CG        10.5660    9.4960   10.9050 C.3   114  ARG114      0.0489
    126  CD         9.2410   10.1790   10.7910 C.3   114  ARG114      0.2205
    127  NE         8.4070   10.1270   12.0060 N.pl3 114  ARG114     -0.0865
    128  CZ         8.2970   11.0350   12.9380 C.cat 114  ARG114      0.5346
    129  NH1        9.0810   12.0810   13.0150 N.pl3 114  ARG114      0.1354
    130  NH2        7.4290   10.8040   13.9060 N.pl3 114  ARG114      0.1354
    131  N         11.7960    4.1190   11.1610 N.3   123  VAL123     -0.1245
    132  CA        11.7340    5.1040   12.2470 C.3   123  VAL123      0.1561
    133  C         12.5800    4.6580   13.3890 C.2   123  VAL123      0.2260
    134  O         12.3530    3.6000   13.9620 O.2   123  VAL123     -0.2867
    135  CB        10.2560    5.3690   12.6450 C.3   123  VAL123      0.0252
    136  CG1       10.1930    6.4740   13.7030 C.3   123  VAL123      0.0019
    137  CG2        9.3520    5.6660   11.4690 C.3   123  VAL123      0.0019
    138  N         13.9170    5.6300   17.1070 N.3   125  CYS125     -0.1235
    139  CA        13.6320    6.4660   18.2530 C.3   125  CYS125      0.1677
    140  C         14.7460    6.2510   19.2430 C.2   125  CYS125      0.2270
    141  O         14.9490    5.1450   19.6920 O.2   125  CYS125     -0.2867
    142  CB        12.2920    6.0330   18.8940 C.3   125  CYS125      0.0956
    143  SG        10.9150    5.9470   17.6870 S.3   125  CYS125     -0.0801
    144  N         11.2220    1.0700   14.3280 N.3   134  ARG134     -0.1245
    145  CA         9.8770    0.7700   13.9170 C.3   134  ARG134      0.1563
    146  C          9.8870    0.8230   12.3820 C.2   134  ARG134      0.2260
    147  O         10.4900    1.7140   11.7980 O.2   134  ARG134     -0.2867
    148  CB         8.8730    1.7510   14.4740 C.3   134  ARG134      0.0307
    149  CG         9.1280    2.0910   15.9260 C.3   134  ARG134      0.0489
    150  CD         7.8900    2.6440   16.5880 C.3   134  ARG134      0.2205
    151  NE         7.1210    1.5450   17.1620 N.pl3 134  ARG134     -0.0865
    152  CZ         5.8470    1.6110   17.5230 C.cat 134  ARG134      0.5346
    153  NH1        5.2600    0.5600   18.0350 N.pl3 134  ARG134      0.1354
    154  NH2        5.1700    2.7170   17.3850 N.pl3 134  ARG134      0.1354
    155  N          7.6770    0.9030    8.8250 N.3   136  TYR136     -0.1241
    156  CA         6.4100    1.1190    8.1560 C.3   136  TYR136      0.1605
    157  C          6.4900    0.7120    6.6680 C.2   136  TYR136      0.2264
    158  O          7.5610    0.8870    6.0800 O.2   136  TYR136     -0.2867
    159  CB         5.9770    2.5850    8.2160 C.3   136  TYR136      0.0534
    160  CG         5.5730    3.1170    9.5800 C.ar  136  TYR136     -0.0201
    161  CD1        6.5190    3.4040   10.5540 C.ar  136  TYR136     -0.0009
    162  CD2        4.2460    3.3200    9.8430 C.ar  136  TYR136     -0.0009
    163  CE1        6.1430    3.9150   11.8470 C.ar  136  TYR136      0.0417
    164  CE2        3.8650    3.8550   11.1130 C.ar  136  TYR136      0.0417
    165  CZ         4.8130    4.1700   12.0510 C.ar  136  TYR136      0.1957
    166  OH         4.4470    4.6440   13.2970 O.3   136  TYR136     -0.2866
@<TRIPOS>BOND
     1   158   157    2
     2   157   156    1
     3    42    41    2
     4    41    40    1
     5   123   122    2
     6   156   159    1
     7   156   155    1
     8   159   160    1
     9   122   121    1
    10    46    45    1
    11    39    40    1
    12    40    43    1
    13   160   162   ar
    14   160   161   ar
    15   124   121    1
    16   124   125    1
    17    44    43    1
    18    44    45    1
    19   121   120    1
    20   162   164   ar
    21   161   163   ar
    22   126   125    1
    23   126   127    1
    24   164   165   ar
    25   131   132    1
    26    35    34    2
    27   137   135    1
    28   147   146    2
    29   163   165   ar
    30    34    33    1
    31   127   128    2
    32   165   166    1
    33   132   135    1
    34   132   133    1
    35   146   145    1
    36    47    48    1
    37   135   136    1
    38   128   129    1
    39   128   130    1
    40    48    49    1
    41    48    51    1
    42   133   134    2
    43    49    50    2
    44    33    36    1
    45    33    32    1
    46   145   144    1
    47   145   148    1
    48    36    37    1
    49    32    38    1
    50    51    52    1
    51    93    94    1
    52   115   114    2
    53   148   149    1
    54    37    38    1
    55    97    94    1
    56    97    98    1
    57   114   113    1
    58    94    95    1
    59   118   116    1
    60    99    98   ar
    61    99   101   ar
    62    98   100   ar
    63   149   150    1
    64   101   102   ar
    65   113   116    1
    66   113   112    1
    67   116   117    1
    68    95    96    2
    69   100   102   ar
    70   150   151    1
    71   138   139    1
    72   151   152    2
    73   154   152    1
    74   152   153    1
    75   143   142    1
    76   117   119    1
    77    61    59   ar
    78   139   142    1
    79   139   140    1
    80    60    59   ar
    81    59    58    1
    82   140   141    2
    83    58    57    1
    84    57    54    1
    85   110   109    2
    86   103   104    1
    87   108   109    1
    88   108   107    1
    89    54    53    1
    90    54    55    1
    91     9     7   ar
    92     9    11   ar
    93     7     6   ar
    94   109   111   am
    95    11    10   ar
    96     6     5    1
    97     6     8   ar
    98     5     2    1
    99    10     8   ar
   100    73    70    1
   101   104   107    1
   102   104   105    1
   103     1     2    1
   104    55    56    2
   105    23    22    1
   106    69    70    1
   107    69    64   am
   108     2     3    1
   109    70    71    1
   110    22    21   ar
   111    22    20   ar
   112    63    64    1
   113    63    66    1
   114    63    62    1
   115    21    19   ar
   116    20    18   ar
   117    68    66    1
   118    64    65    2
   119    19    17   ar
   120   105   106    2
   121    18    17   ar
   122    66    67    1
   123    17    16    1
   124    16    13    1
   125     3     4    2
   126    71    72    2
   127    71    74   am
   128    92    90    1
   129    74    75    1
   130    80    79   ar
   131    91    90    1
   132    30    31    1
   133    30    29    1
   134    13    12    1
   135    13    14    1
   136    29    28    1
   137    90    89    2
   138    85    84    2
   139    14    24   am
   140    14    15    2
   141    24    25    1
   142    75    78    1
   143    75    76    1
   144    79    78    1
   145    79    81   ar
   146    89    88    1
   147    28    25    1
   148    84    83    1
   149    25    26    1
   150    76    77    2
   151    82    83    1
   152    86    83    1
   153    86    87    1
   154    88    87    1
   155    26    27    2
