@<TRIPOS>MOLECULE
tmp/3p6eA00.pdb
 154 144 0 0 0
SMALL
GASTEIGER

@<TRIPOS>ATOM
      1  N         10.4930   -0.9690   21.6420 N.3    24  PHE24      -0.1241
      2  CA         9.6860    0.2000   21.8920 C.3    24  PHE24       0.1605
      3  C          9.3070    0.3470   23.3540 C.2    24  PHE24       0.2264
      4  O          9.2050    1.4800   23.8710 O.2    24  PHE24      -0.2867
      5  CB         8.4740    0.2230   20.9640 C.3    24  PHE24       0.0534
      6  CG         7.6900    1.5510   20.9300 C.ar   24  PHE24      -0.0203
      7  CD1        8.3200    2.7110   20.5730 C.ar   24  PHE24      -0.0042
      8  CD2        6.3500    1.5990   21.1790 C.ar   24  PHE24      -0.0042
      9  CE1        7.6460    3.9200   20.4510 C.ar   24  PHE24      -0.0003
     10  CE2        5.6450    2.8380   21.0730 C.ar   24  PHE24      -0.0003
     11  CZ         6.2990    3.9650   20.7030 C.ar   24  PHE24      -0.0000
     12  N         12.2750    1.9020   25.0310 N.3    27  TYR27      -0.1227
     13  CA        12.2820    3.3260   24.6830 C.3    27  TYR27       0.1736
     14  C         11.3230    4.1360   25.4960 C.2    27  TYR27       0.2595
     15  O         11.6580    5.1600   26.0590 O.2    27  TYR27      -0.2718
     16  CB        12.0730    3.4470   23.1670 C.3    27  TYR27       0.0548
     17  CG        11.8390    4.8980   22.7540 C.ar   27  TYR27      -0.0200
     18  CD1       12.9000    5.7530   22.6680 C.ar   27  TYR27      -0.0009
     19  CD2       10.5670    5.3550   22.5030 C.ar   27  TYR27      -0.0009
     20  CE1       12.7190    7.1200   22.3570 C.ar   27  TYR27       0.0417
     21  CE2       10.4200    6.7880   22.1680 C.ar   27  TYR27       0.0417
     22  CZ        11.4890    7.5950   22.1170 C.ar   27  TYR27       0.1957
     23  OH        11.2270    8.9060   21.7780 O.3    27  TYR27      -0.2866
     24  N         10.0880    3.6940   25.5420 N.am   28  MET28      -0.1979
     25  CA         9.0540    4.4030   26.2760 C.3    28  MET28       0.1605
     26  C          9.4360    4.4630   27.7730 C.2    28  MET28       0.2287
     27  O          9.2040    5.4940   28.4130 O.2    28  MET28      -0.2864
     28  CB         7.6930    3.7430   26.1050 C.3    28  MET28       0.0413
     29  CG         7.0110    4.0040   24.7250 C.3    28  MET28       0.0598
     30  SD         5.3540    3.5220   24.6650 S.3    28  MET28      -0.1393
     31  CE         5.5670    1.7190   24.6830 C.3    28  MET28       0.0692
     32  N         -0.0220    1.7320   24.4070 N.3    41  ALA41      -0.1245
     33  CA         0.6970    2.3560   23.2730 C.3    41  ALA41       0.1562
     34  C          1.4610    1.3070   22.5060 C.2    41  ALA41       0.2260
     35  O          1.5780    1.4050   21.2890 O.2    41  ALA41      -0.2867
     36  CB         1.6380    3.4610   23.7760 C.3    41  ALA41       0.0290
     37  N         -0.1490    1.9880   14.1060 N.3    46  PRO46      -0.2116
     38  CA        -0.7340    3.1420   13.4580 C.3    46  PRO46       0.1372
     39  C         -0.6400    3.1600   11.9540 C.2    46  PRO46       0.2244
     40  O          0.2900    2.5670   11.3820 O.2    46  PRO46      -0.2868
     41  CB         0.0080    4.3160   14.0620 C.3    46  PRO46       0.0268
     42  CG         0.8880    3.7660   15.0770 C.3    46  PRO46       0.0207
     43  CD         0.9440    2.3260   15.0030 C.3    46  PRO46       0.0892
     44  N          0.2050    6.0980    9.3180 N.3    48  MET48      -0.1196
     45  CA         0.8420    7.3950    9.3180 C.3    48  MET48       0.1786
     46  C          0.7360    7.9810    7.9430 C.2    48  MET48       0.2306
     47  O          1.0600    7.3340    6.9510 O.2    48  MET48      -0.2863
     48  CB         2.3040    7.2200    9.6660 C.2    48  MET48       0.0070
     49  CG         3.1610    8.5250    9.6200 C.2    48  MET48       0.0282
     50  SD         4.8130    8.4220   10.1540 S.3    48  MET48      -0.1125
     51  CE         5.3950    7.0000    9.2460 C.3    48  MET48       0.0742
     52  N         -0.7660   10.5950   12.6010 N.3    61  SER61      -0.1217
     53  CA        -0.7900    9.2340   13.0590 C.3    61  SER61       0.1889
     54  C         -2.1940    8.8720   13.4920 C.2    61  SER61       0.2288
     55  O         -2.7510    9.5190   14.3620 O.2    61  SER61      -0.2866
     56  CB         0.1590    9.0700   14.2240 C.3    61  SER61       0.2089
     57  OG         0.1280    7.7250   14.7000 O.3    61  SER61      -0.2183
     58  N         -4.5810    3.7550   19.7870 N.3    65  PHE65      -0.1241
     59  CA        -4.1740    4.3420   21.0700 C.3    65  PHE65       0.1605
     60  C         -4.5480    5.8170   21.0470 C.2    65  PHE65       0.2264
     61  O         -5.3500    6.2610   21.8300 O.2    65  PHE65      -0.2867
     62  CB        -2.6730    4.1310   21.3030 C.3    65  PHE65       0.0534
     63  CG        -2.1090    4.9000   22.4490 C.ar   65  PHE65      -0.0203
     64  CD1       -2.6260    4.7730   23.7120 C.ar   65  PHE65      -0.0042
     65  CD2       -1.0310    5.7350   22.2600 C.ar   65  PHE65      -0.0042
     66  CE1       -2.0810    5.5090   24.7800 C.ar   65  PHE65      -0.0003
     67  CE2       -0.4880    6.4490   23.3100 C.ar   65  PHE65      -0.0003
     68  CZ        -1.0230    6.3420   24.5630 C.ar   65  PHE65      -0.0000
     69  N          2.5350   14.9770   22.5780 N.3    82  THR82      -0.1203
     70  CA         2.8060   13.6200   22.0650 C.3    82  THR82       0.1994
     71  C          1.6970   12.6400   22.4090 C.2    82  THR82       0.2618
     72  O          0.8150   12.9190   23.2040 O.2    82  THR82      -0.2717
     73  CB         4.1530   13.1150   22.5750 C.3    82  THR82       0.1784
     74  OG1        4.0080   12.9010   23.9920 O.3    82  THR82      -0.2211
     75  CG2        5.1950   14.0690   22.3270 C.3    82  THR82       0.0376
     76  N          1.7440   11.4780   21.7830 N.am   83  ALA83      -0.1965
     77  CA         0.6570   10.4870   21.9480 C.3    83  ALA83       0.1728
     78  C          0.5670   10.0840   23.4310 C.2    83  ALA83       0.2616
     79  O         -0.5040    9.8020   23.9140 O.2    83  ALA83      -0.2715
     80  CB         0.9890    9.2890   21.0910 C.3    83  ALA83       0.0334
     81  N          1.6840   10.0150   24.1110 N.am   84  ASP84      -0.1971
     82  CA         1.7480    9.7380   25.5630 C.3    84  ASP84       0.1709
     83  C          1.5340   10.9880   26.4420 C.2    84  ASP84       0.2293
     84  O          1.7310   10.9290   27.6600 O.2    84  ASP84      -0.2864
     85  CB         3.0890    9.0400   25.9190 C.3    84  ASP84       0.1436
     86  CG         4.2890    9.8690   25.6330 C.2    84  ASP84       0.3671
     87  OD1        4.4480   10.3030   24.4650 O.co2  84  ASP84      -0.2456
     88  OD2        5.0910   10.1060   26.5520 O.co2  84  ASP84      -0.2456
     89  N          3.0320   14.0320   26.6270 N.3    86  ARG86      -0.1245
     90  CA         4.0640   15.0080   26.9630 C.3    86  ARG86       0.1563
     91  C          3.7930   16.2800   26.1490 C.2    86  ARG86       0.2260
     92  O          3.5170   16.2230   24.9520 O.2    86  ARG86      -0.2867
     93  CB         5.4270   14.5090   26.6570 C.3    86  ARG86       0.0307
     94  CG         6.0090   13.3950   27.5980 C.3    86  ARG86       0.0489
     95  CD         7.3530   12.8450   27.0400 C.3    86  ARG86       0.2205
     96  NE         7.0640   11.9740   25.8990 N.pl3  86  ARG86      -0.0865
     97  CZ         7.6330   12.0270   24.7000 C.cat  86  ARG86       0.5346
     98  NH1        8.7020   12.7860   24.4400 N.pl3  86  ARG86       0.1354
     99  NH2        7.1440   11.2230   23.7820 N.pl3  86  ARG86       0.1354
    100  N         13.7600   11.4340   17.1000 N.3   112  ILE112     -0.1245
    101  CA        13.0920   10.4970   16.2230 C.3   112  ILE112      0.1561
    102  C         13.5630   10.7680   14.8360 C.2   112  ILE112      0.2260
    103  O         13.4270   11.8720   14.3310 O.2   112  ILE112     -0.2867
    104  CB        11.5520   10.6730   16.2630 C.3   112  ILE112      0.0252
    105  CG1       10.9750   10.4990   17.7020 C.3   112  ILE112      0.0019
    106  CG2       10.8240    9.7020   15.2880 C.3   112  ILE112      0.0019
    107  CD1        9.5210   10.9170   17.8040 C.3   112  ILE112      0.0001
    108  N         13.4610    9.6130   10.7700 N.3   114  ARG114     -0.1245
    109  CA        12.6110    8.9490    9.7930 C.3   114  ARG114      0.1563
    110  C         13.3920    8.9030    8.4820 C.2   114  ARG114      0.2260
    111  O         13.9000    9.9380    8.0060 O.2   114  ARG114     -0.2867
    112  CB        11.2870    9.6520    9.6140 C.3   114  ARG114      0.0307
    113  CG        10.4970    9.6800   10.9250 C.3   114  ARG114      0.0489
    114  CD         9.2150   10.4770   10.8300 C.3   114  ARG114      0.2205
    115  NE         8.3310   10.4160   12.0150 N.pl3 114  ARG114     -0.0865
    116  CZ         8.3210   11.2950   13.0080 C.cat 114  ARG114      0.5346
    117  NH1        9.0980   12.2870   13.0710 N.pl3 114  ARG114      0.1354
    118  NH2        7.3950   11.1400   13.9650 N.pl3 114  ARG114      0.1354
    119  N         11.6410    4.2610   11.2010 N.3   123  VAL123     -0.1245
    120  CA        11.6240    5.2350   12.2780 C.3   123  VAL123      0.1561
    121  C         12.4470    4.7700   13.4200 C.2   123  VAL123      0.2260
    122  O         12.1950    3.7170   13.9850 O.2   123  VAL123     -0.2867
    123  CB        10.2190    5.4930   12.7190 C.3   123  VAL123      0.0252
    124  CG1       10.1540    6.6170   13.7970 C.3   123  VAL123      0.0019
    125  CG2        9.2880    5.8290   11.5410 C.3   123  VAL123      0.0019
    126  N         13.7890    5.7580   17.1360 N.3   125  CYS125     -0.1235
    127  CA        13.5090    6.5820   18.3120 C.3   125  CYS125      0.1677
    128  C         14.6460    6.3890   19.2890 C.2   125  CYS125      0.2270
    129  O         14.8490    5.2590   19.7120 O.2   125  CYS125     -0.2867
    130  CB        12.1520    6.1730   18.9240 C.3   125  CYS125      0.0956
    131  SG        10.7810    6.1860   17.7490 S.3   125  CYS125     -0.0801
    132  N         11.1360    1.1690   14.3660 N.3   134  ARG134     -0.1245
    133  CA         9.7610    0.9260   13.9570 C.3   134  ARG134      0.1563
    134  C          9.7370    0.9910   12.4290 C.2   134  ARG134      0.2260
    135  O         10.1700    1.9760   11.8510 O.2   134  ARG134     -0.2867
    136  CB         8.8420    1.9380   14.5890 C.3   134  ARG134      0.0307
    137  CG         8.6630    1.5250   16.0570 C.3   134  ARG134      0.0489
    138  CD         8.0800    2.4830   16.9030 C.3   134  ARG134      0.2205
    139  NE         6.6840    2.7570   16.7520 N.pl3 134  ARG134     -0.0865
    140  CZ         5.6160    2.1730   17.3190 C.cat 134  ARG134      0.5346
    141  NH1        5.7260    0.9820   17.9230 N.pl3 134  ARG134      0.1354
    142  NH2        4.4450    2.7190   17.1810 N.pl3 134  ARG134      0.1354
    143  N          7.6210    0.9430    8.8690 N.3   136  TYR136     -0.1241
    144  CA         6.3930    1.1530    8.2150 C.3   136  TYR136      0.1605
    145  C          6.4910    0.7270    6.7430 C.2   136  TYR136      0.2264
    146  O          7.5160    0.9500    6.1380 O.2   136  TYR136     -0.2867
    147  CB         5.9570    2.6410    8.2550 C.3   136  TYR136      0.0534
    148  CG         5.5360    3.1590    9.6160 C.ar  136  TYR136     -0.0201
    149  CD1        6.4820    3.4240   10.5520 C.ar  136  TYR136     -0.0009
    150  CD2        4.1980    3.3480    9.9180 C.ar  136  TYR136     -0.0009
    151  CE1        6.1160    3.8890   11.8480 C.ar  136  TYR136      0.0417
    152  CE2        3.8340    3.8700   11.1580 C.ar  136  TYR136      0.0417
    153  CZ         4.7730    4.1000   12.0880 C.ar  136  TYR136      0.1957
    154  OH         4.3130    4.6040   13.3160 O.3   136  TYR136     -0.2866
@<TRIPOS>BOND
     1   146   145    2
     2   145   144    1
     3    47    46    2
     4    46    45    1
     5   111   110    2
     6   144   147    1
     7   144   143    1
     8   147   148    1
     9   110   109    1
    10    51    50    1
    11    44    45    1
    12    45    48    1
    13   112   109    1
    14   112   113    1
    15   148   150   ar
    16   148   149   ar
    17    49    48    2
    18    49    50    1
    19   109   108    1
    20   150   152   ar
    21   149   151   ar
    22   114   113    1
    23   114   115    1
    24   152   153   ar
    25   119   120    1
    26    40    39    2
    27   125   123    1
    28   151   153   ar
    29   135   134    2
    30    39    38    1
    31   115   116    2
    32   153   154    1
    33   120   123    1
    34   120   121    1
    35   134   133    1
    36    52    53    1
    37   123   124    1
    38   116   117    1
    39   116   118    1
    40    53    54    1
    41    53    56    1
    42   121   122    2
    43    38    41    1
    44    38    37    1
    45    54    55    2
    46   133   132    1
    47   133   136    1
    48    41    42    1
    49    37    43    1
    50    56    57    1
    51   103   102    2
    52   136   137    1
    53   102   101    1
    54    43    42    1
    55   106   104    1
    56   137   138    1
    57   101   104    1
    58   101   100    1
    59   104   105    1
    60   139   138    1
    61   139   140    2
    62   126   127    1
    63   142   140    1
    64   140   141    1
    65   105   107    1
    66   131   130    1
    67   127   130    1
    68   127   128    1
    69   128   129    2
    70    58    59    1
    71     9     7   ar
    72     9    11   ar
    73     7     6   ar
    74    11    10   ar
    75     6     5    1
    76     6     8   ar
    77     5     2    1
    78    60    59    1
    79    60    61    2
    80    59    62    1
    81    10     8   ar
    82    80    77    1
    83    35    34    2
    84    62    63    1
    85     1     2    1
    86    23    22    1
    87    76    77    1
    88    76    71   am
    89     2     3    1
    90    77    78    1
    91    70    71    1
    92    70    73    1
    93    70    69    1
    94    22    21   ar
    95    22    20   ar
    96    21    19   ar
    97    65    63   ar
    98    65    67   ar
    99    75    73    1
   100    20    18   ar
   101    71    72    2
   102    63    64   ar
   103    19    17   ar
   104    34    33    1
   105    73    74    1
   106    18    17   ar
   107    17    16    1
   108    16    13    1
   109    33    36    1
   110    33    32    1
   111    67    68   ar
   112     3     4    2
   113    78    79    2
   114    78    81   am
   115    64    66   ar
   116    99    97    1
   117    81    82    1
   118    98    97    1
   119    87    86   ar
   120    68    66   ar
   121    30    31    1
   122    30    29    1
   123    13    12    1
   124    13    14    1
   125    97    96    2
   126    29    28    1
   127    92    91    2
   128    14    24   am
   129    14    15    2
   130    24    25    1
   131    82    85    1
   132    82    83    1
   133    86    85    1
   134    86    88   ar
   135    96    95    1
   136    28    25    1
   137    91    90    1
   138    25    26    1
   139    83    84    2
   140    89    90    1
   141    93    90    1
   142    93    94    1
   143    95    94    1
   144    26    27    2
