@<TRIPOS>MOLECULE
tmp/3p6fA00.pdb
 177 164 0 0 0
SMALL
GASTEIGER

@<TRIPOS>ATOM
      1  N         10.5860   -1.0380   21.6000 N.3    24  PHE24      -0.1241
      2  CA         9.7700    0.1400   21.8610 C.3    24  PHE24       0.1605
      3  C          9.4040    0.2770   23.3200 C.2    24  PHE24       0.2264
      4  O          9.3310    1.4030   23.8280 O.2    24  PHE24      -0.2867
      5  CB         8.5390    0.1450   20.9340 C.3    24  PHE24       0.0534
      6  CG         7.7900    1.4570   20.9120 C.ar   24  PHE24      -0.0203
      7  CD1        8.4340    2.6380   20.5700 C.ar   24  PHE24      -0.0042
      8  CD2        6.4390    1.4820   21.1440 C.ar   24  PHE24      -0.0042
      9  CE1        7.7210    3.8450   20.4770 C.ar   24  PHE24      -0.0003
     10  CE2        5.7240    2.6600   21.0380 C.ar   24  PHE24      -0.0003
     11  CZ         6.3740    3.8130   20.7300 C.ar   24  PHE24      -0.0000
     12  N         12.4000    1.8220   25.0040 N.3    27  TYR27      -0.1227
     13  CA        12.4330    3.2410   24.6460 C.3    27  TYR27       0.1736
     14  C         11.4270    4.0490   25.4500 C.2    27  TYR27       0.2595
     15  O         11.7740    5.1040   26.0310 O.2    27  TYR27      -0.2718
     16  CB        12.2080    3.4100   23.1230 C.3    27  TYR27       0.0548
     17  CG        11.9960    4.8560   22.7200 C.ar   27  TYR27      -0.0200
     18  CD1       13.0660    5.7360   22.6280 C.ar   27  TYR27      -0.0009
     19  CD2       10.7140    5.3580   22.4950 C.ar   27  TYR27      -0.0009
     20  CE1       12.8620    7.0840   22.3280 C.ar   27  TYR27       0.0417
     21  CE2       10.5160    6.7030   22.1840 C.ar   27  TYR27       0.0417
     22  CZ        11.5860    7.5490   22.0960 C.ar   27  TYR27       0.1957
     23  OH        11.3750    8.8720   21.7910 O.3    27  TYR27      -0.2866
     24  N         10.1910    3.5910   25.4960 N.am   28  MET28      -0.1979
     25  CA         9.1820    4.3100   26.2250 C.3    28  MET28       0.1605
     26  C          9.5290    4.4020   27.7250 C.2    28  MET28       0.2287
     27  O          9.2980    5.4260   28.3650 O.2    28  MET28      -0.2864
     28  CB         7.7880    3.6930   26.0470 C.3    28  MET28       0.0413
     29  CG         7.1930    3.9440   24.6860 C.3    28  MET28       0.0598
     30  SD         5.4460    3.4730   24.5990 S.3    28  MET28      -0.1393
     31  CE         5.6190    1.6960   24.6350 C.3    28  MET28       0.0692
     32  N         11.9770    7.1490   28.1470 N.3    31  VAL31      -0.1245
     33  CA        11.3110    8.4260   28.0050 C.3    31  VAL31       0.1561
     34  C         10.5680    8.7850   29.3040 C.2    31  VAL31       0.2260
     35  O         10.4230    9.9420   29.5890 O.2    31  VAL31      -0.2867
     36  CB        10.3830    8.3530   26.7620 C.3    31  VAL31       0.0252
     37  CG1        9.4280    9.5090   26.7420 C.3    31  VAL31       0.0019
     38  CG2       11.2110    8.3330   25.4970 C.3    31  VAL31       0.0019
     39  N          7.4480    6.9070   30.1260 N.3    33  VAL33      -0.1245
     40  CA         6.0510    6.5500   29.9650 C.3    33  VAL33       0.1561
     41  C          5.6630    5.5100   31.0180 C.2    33  VAL33       0.2260
     42  O          6.4170    4.5570   31.2600 O.2    33  VAL33      -0.2867
     43  CB         5.8320    5.9720   28.5520 C.3    33  VAL33       0.0252
     44  CG1        4.3760    5.7040   28.3650 C.3    33  VAL33       0.0019
     45  CG2        6.3990    6.9290   27.4390 C.3    33  VAL33       0.0019
     46  N          0.0250    1.6210   24.2740 N.3    41  ALA41      -0.1245
     47  CA         0.7240    2.2410   23.1450 C.3    41  ALA41       0.1562
     48  C          1.5030    1.1830   22.3950 C.2    41  ALA41       0.2260
     49  O          1.6170    1.2650   21.1680 O.2    41  ALA41      -0.2867
     50  CB         1.6270    3.3730   23.6270 C.3    41  ALA41       0.0290
     51  N         -0.1540    1.8350   14.0370 N.3    46  PRO46      -0.2116
     52  CA        -0.6990    3.0270   13.4350 C.3    46  PRO46       0.1372
     53  C         -0.5170    3.1030   11.9430 C.2    46  PRO46       0.2244
     54  O          0.3830    2.4960   11.3580 O.2    46  PRO46      -0.2868
     55  CB         0.1190    4.1590   14.0480 C.3    46  PRO46       0.0268
     56  CG         1.2630    3.4930   14.6820 C.3    46  PRO46       0.0207
     57  CD         0.9170    2.1490   14.9850 C.3    46  PRO46       0.0892
     58  N          0.3880    6.1050    9.3250 N.3    48  MET48      -0.1245
     59  CA         0.9830    7.4040    9.3240 C.3    48  MET48       0.1570
     60  C          0.8220    7.9910    7.9320 C.2    48  MET48       0.2261
     61  O          1.1530    7.3640    6.9440 O.2    48  MET48      -0.2867
     62  CB         2.4530    7.2610    9.7020 C.3    48  MET48       0.0387
     63  CG         3.2420    8.5670    9.5840 C.3    48  MET48       0.0595
     64  SD         4.8970    8.4280   10.2180 S.3    48  MET48      -0.1393
     65  CE         5.5830    7.0940    9.2620 C.3    48  MET48       0.0692
     66  N         -0.7670   10.5970   12.5790 N.3    61  SER61      -0.1217
     67  CA        -0.7740    9.2010   13.0400 C.3    61  SER61       0.1889
     68  C         -2.2090    8.8530   13.4530 C.2    61  SER61       0.2288
     69  O         -2.7720    9.5180   14.2980 O.2    61  SER61      -0.2866
     70  CB         0.1540    9.0240   14.2130 C.3    61  SER61       0.2089
     71  OG         0.1880    7.6700   14.6710 O.3    61  SER61      -0.2183
     72  N         -4.4020    3.7170   19.7360 N.3    65  PHE65      -0.1241
     73  CA        -3.8190    4.2360   21.0000 C.3    65  PHE65       0.1605
     74  C         -4.1540    5.7210   21.1630 C.2    65  PHE65       0.2264
     75  O         -4.8100    6.1330   22.1290 O.2    65  PHE65      -0.2867
     76  CB        -2.2780    4.0250   21.0860 C.3    65  PHE65       0.0534
     77  CG        -1.5990    4.8010   22.1990 C.ar   65  PHE65      -0.0203
     78  CD1       -2.0500    4.7320   23.4970 C.ar   65  PHE65      -0.0042
     79  CD2       -0.5050    5.6090   21.9200 C.ar   65  PHE65      -0.0042
     80  CE1       -1.4190    5.4490   24.4860 C.ar   65  PHE65      -0.0003
     81  CE2        0.1330    6.3250   22.9100 C.ar   65  PHE65      -0.0003
     82  CZ        -0.3320    6.2570   24.1890 C.ar   65  PHE65      -0.0000
     83  N          2.6490   14.9120   22.5820 N.3    82  THR82      -0.1203
     84  CA         2.9390   13.6060   22.0390 C.3    82  THR82       0.1994
     85  C          1.8110   12.6110   22.3530 C.2    82  THR82       0.2618
     86  O          0.9690   12.8890   23.1720 O.2    82  THR82      -0.2717
     87  CB         4.2630   13.0450   22.5610 C.3    82  THR82       0.1784
     88  OG1        4.1220   12.8140   23.9690 O.3    82  THR82      -0.2211
     89  CG2        5.3780   14.0120   22.3480 C.3    82  THR82       0.0376
     90  N          1.8480   11.4500   21.7070 N.am   83  ALA83      -0.1965
     91  CA         0.8010   10.4160   21.8690 C.3    83  ALA83       0.1728
     92  C          0.6830   10.0210   23.3670 C.2    83  ALA83       0.2616
     93  O         -0.4170    9.7580   23.8350 O.2    83  ALA83      -0.2715
     94  CB         1.0660    9.2030   21.0290 C.3    83  ALA83       0.0334
     95  N          1.8120    9.9610   24.0640 N.am   84  ASP84      -0.1971
     96  CA         1.8540    9.6350   25.5200 C.3    84  ASP84       0.1709
     97  C          1.6300   10.8540   26.4270 C.2    84  ASP84       0.2293
     98  O          1.7660   10.7570   27.6270 O.2    84  ASP84      -0.2864
     99  CB         3.1800    8.9270   25.8240 C.3    84  ASP84       0.1436
    100  CG         4.3950    9.7720   25.5380 C.2    84  ASP84       0.3671
    101  OD1        4.5820   10.2040   24.3650 O.co2  84  ASP84      -0.2456
    102  OD2        5.1520   10.0020   26.4900 O.co2  84  ASP84      -0.2456
    103  N          3.1920   13.9460   26.6040 N.3    86  ARG86      -0.1245
    104  CA         4.2130   14.8960   26.9480 C.3    86  ARG86       0.1563
    105  C          3.9670   16.1760   26.1780 C.2    86  ARG86       0.2260
    106  O          3.6090   16.1420   25.0140 O.2    86  ARG86      -0.2867
    107  CB         5.6150   14.4100   26.6540 C.3    86  ARG86       0.0307
    108  CG         6.1190   13.3120   27.5340 C.3    86  ARG86       0.0489
    109  CD         7.4220   12.7100   27.0250 C.3    86  ARG86       0.2205
    110  NE         7.1500   11.8540   25.8870 N.pl3  86  ARG86      -0.0865
    111  CZ         7.7150   11.9140   24.6780 C.cat  86  ARG86       0.5346
    112  NH1        8.7750   12.6860   24.4390 N.pl3  86  ARG86       0.1354
    113  NH2        7.2860   11.0860   23.7320 N.pl3  86  ARG86       0.1354
    114  N         12.7620   16.3720   20.3090 N.3   103  GLN103     -0.1245
    115  CA        11.7420   16.7910   21.2940 C.3   103  GLN103      0.1566
    116  C         12.4200   17.1210   22.6090 C.2   103  GLN103      0.2260
    117  O         13.1730   16.2950   23.1450 O.2   103  GLN103     -0.2867
    118  CB        10.7750   15.6560   21.5460 C.3   103  GLN103      0.0367
    119  CG         9.9420   15.2720   20.3400 C.3   103  GLN103      0.0905
    120  CD         8.9940   14.1000   20.5370 C.2   103  GLN103      0.2608
    121  OE1        7.9560   13.9790   19.7930 O.2   103  GLN103     -0.2717
    122  NE2        9.3130   13.2180   21.4250 N.am  103  GLN103     -0.0878
    123  N         13.8940   11.4290   17.1220 N.3   112  ILE112     -0.1245
    124  CA        13.2090   10.4870   16.2550 C.3   112  ILE112      0.1561
    125  C         13.7150   10.7410   14.8390 C.2   112  ILE112      0.2260
    126  O         13.5780   11.8390   14.3390 O.2   112  ILE112     -0.2867
    127  CB        11.7010   10.6750   16.2920 C.3   112  ILE112      0.0252
    128  CG1       11.1700   10.5130   17.7210 C.3   112  ILE112      0.0019
    129  CG2       11.0010    9.6680   15.3410 C.3   112  ILE112      0.0019
    130  CD1        9.9220   11.2800   17.9180 C.3   112  ILE112      0.0001
    131  N         13.5900    9.5940   10.7860 N.3   114  ARG114     -0.1245
    132  CA        12.7440    8.9110    9.7830 C.3   114  ARG114      0.1563
    133  C         13.5370    8.8940    8.4580 C.2   114  ARG114      0.2260
    134  O         13.9870    9.9300    8.0110 O.2   114  ARG114     -0.2867
    135  CB        11.4050    9.6220    9.6630 C.3   114  ARG114      0.0307
    136  CG        10.6250    9.6060   10.9620 C.3   114  ARG114      0.0489
    137  CD         9.3450   10.3790   10.9220 C.3   114  ARG114      0.2205
    138  NE         8.5190   10.3100   12.1230 N.pl3 114  ARG114     -0.0865
    139  CZ         8.4400   11.2410   13.0610 C.cat 114  ARG114      0.5346
    140  NH1        9.2580   12.2570   13.0980 N.pl3 114  ARG114      0.1354
    141  NH2        7.5740   11.0930   14.0320 N.pl3 114  ARG114      0.1354
    142  N         11.7110    4.2700   11.2270 N.3   123  VAL123     -0.1245
    143  CA        11.6350    5.2590   12.3010 C.3   123  VAL123      0.1561
    144  C         12.5140    4.7750   13.4400 C.2   123  VAL123      0.2260
    145  O         12.2640    3.7210   14.0200 O.2   123  VAL123     -0.2867
    146  CB        10.1940    5.4720   12.7300 C.3   123  VAL123      0.0252
    147  CG1       10.0680    6.5820   13.7820 C.3   123  VAL123      0.0019
    148  CG2        9.3100    5.7900   11.5370 C.3   123  VAL123      0.0019
    149  N         13.8720    5.7440   17.1360 N.3   125  CYS125     -0.1235
    150  CA        13.5900    6.5690   18.2880 C.3   125  CYS125      0.1677
    151  C         14.7190    6.3440   19.2890 C.2   125  CYS125      0.2270
    152  O         14.9390    5.2140   19.6970 O.2   125  CYS125     -0.2867
    153  CB        12.2310    6.1410   18.9170 C.3   125  CYS125      0.0956
    154  SG        10.8440    6.1600   17.7650 S.3   125  CYS125     -0.0801
    155  N         11.2510    1.1340   14.3520 N.3   134  ARG134     -0.1245
    156  CA         9.8850    0.8780   13.9310 C.3   134  ARG134      0.1563
    157  C          9.8360    0.9870   12.4080 C.2   134  ARG134      0.2260
    158  O         10.2830    1.9690   11.8430 O.2   134  ARG134     -0.2867
    159  CB         8.9430    1.8680   14.6010 C.3   134  ARG134      0.0307
    160  CG         8.8950    1.5330   16.0900 C.3   134  ARG134      0.0489
    161  CD         8.1770    2.4470   16.9340 C.3   134  ARG134      0.2205
    162  NE         6.7660    2.7360   16.6990 N.pl3 134  ARG134     -0.0865
    163  CZ         5.7190    2.1210   17.2660 C.cat 134  ARG134      0.5346
    164  NH1        5.8190    0.9550   17.9000 N.pl3 134  ARG134      0.1354
    165  NH2        4.5470    2.6460   17.1430 N.pl3 134  ARG134      0.1354
    166  N          7.7540    0.9460    8.8630 N.3   136  TYR136     -0.1241
    167  CA         6.4830    1.1590    8.1800 C.3   136  TYR136      0.1605
    168  C          6.6090    0.7600    6.6960 C.2   136  TYR136      0.2264
    169  O          7.6570    0.9570    6.0780 O.2   136  TYR136     -0.2867
    170  CB         6.0740    2.6220    8.2330 C.3   136  TYR136      0.0534
    171  CG         5.6610    3.1340    9.6160 C.ar  136  TYR136     -0.0201
    172  CD1        6.6000    3.4050   10.5950 C.ar  136  TYR136     -0.0009
    173  CD2        4.3290    3.3520    9.9190 C.ar  136  TYR136     -0.0009
    174  CE1        6.1900    3.9110   11.8610 C.ar  136  TYR136      0.0417
    175  CE2        3.9170    3.8490   11.1340 C.ar  136  TYR136      0.0417
    176  CZ         4.8380    4.1260   12.0920 C.ar  136  TYR136      0.1957
    177  OH         4.4020    4.5990   13.3110 O.3   136  TYR136     -0.2866
@<TRIPOS>BOND
     1   169   168    2
     2   168   167    1
     3    61    60    2
     4    60    59    1
     5   134   133    2
     6   167   170    1
     7   167   166    1
     8   170   171    1
     9   133   132    1
    10    65    64    1
    11    59    58    1
    12    59    62    1
    13    63    62    1
    14    63    64    1
    15   171   173   ar
    16   171   172   ar
    17   135   132    1
    18   135   136    1
    19   132   131    1
    20   173   175   ar
    21   172   174   ar
    22   137   136    1
    23   137   138    1
    24   175   176   ar
    25   142   143    1
    26    54    53    2
    27   148   146    1
    28   158   157    2
    29   174   176   ar
    30    53    52    1
    31   176   177    1
    32   138   139    2
    33   143   146    1
    34   143   144    1
    35   157   156    1
    36    66    67    1
    37   146   147    1
    38    67    68    1
    39    67    70    1
    40   139   140    1
    41   139   141    1
    42    52    51    1
    43    52    55    1
    44   144   145    2
    45    68    69    2
    46   156   155    1
    47   156   159    1
    48    51    57    1
    49    55    56    1
    50    70    71    1
    51   126   125    2
    52   159   160    1
    53    56    57    1
    54   125   124    1
    55   129   127    1
    56   160   161    1
    57   124   127    1
    58   124   123    1
    59   127   128    1
    60   162   161    1
    61   162   163    2
    62   149   150    1
    63   165   163    1
    64   163   164    1
    65   128   130    1
    66   154   153    1
    67   150   153    1
    68   150   151    1
    69   151   152    2
    70    72    73    1
    71   121   120    2
    72   114   115    1
    73   119   120    1
    74   119   118    1
    75     9     7   ar
    76     9    11   ar
    77   120   122   am
    78     7     6   ar
    79    11    10   ar
    80     6     5    1
    81     6     8   ar
    82     5     2    1
    83    73    76    1
    84    73    74    1
    85    94    91    1
    86    10     8   ar
    87    76    77    1
    88    74    75    2
    89    49    48    2
    90   115   118    1
    91   115   116    1
    92     1     2    1
    93    90    91    1
    94    90    85   am
    95    23    22    1
    96     2     3    1
    97    91    92    1
    98    79    77   ar
    99    79    81   ar
   100    84    85    1
   101    84    87    1
   102    84    83    1
   103    22    21   ar
   104    22    20   ar
   105    21    19   ar
   106    77    78   ar
   107    20    18   ar
   108    89    87    1
   109    85    86    2
   110    48    47    1
   111    19    17   ar
   112    87    88    1
   113   116   117    2
   114    18    17   ar
   115    17    16    1
   116    81    82   ar
   117    16    13    1
   118    47    50    1
   119    47    46    1
   120     3     4    2
   121    92    93    2
   122    92    95   am
   123    78    80   ar
   124   113   111    1
   125    95    96    1
   126    82    80   ar
   127   101   100   ar
   128   112   111    1
   129    30    31    1
   130    30    29    1
   131    13    12    1
   132    13    14    1
   133   111   110    2
   134    29    28    1
   135   106   105    2
   136    14    24   am
   137    14    15    2
   138    24    25    1
   139    38    36    1
   140    96    99    1
   141    96    97    1
   142   100    99    1
   143   100   102   ar
   144   110   109    1
   145    28    25    1
   146   105   104    1
   147    25    26    1
   148    97    98    2
   149   103   104    1
   150   107   104    1
   151   107   108    1
   152    37    36    1
   153    36    33    1
   154   109   108    1
   155    45    43    1
   156    26    27    2
   157    33    32    1
   158    33    34    1
   159    44    43    1
   160    43    40    1
   161    34    35    2
   162    40    39    1
   163    40    41    1
   164    41    42    2
