@<TRIPOS>MOLECULE
tmp/3p6hA00.pdb
 177 164 0 0 0
SMALL
GASTEIGER

@<TRIPOS>ATOM
      1  N         10.5650   -1.0170   21.5580 N.3    24  PHE24      -0.1241
      2  CA         9.7220    0.1610   21.7820 C.3    24  PHE24       0.1605
      3  C          9.3250    0.2800   23.2300 C.2    24  PHE24       0.2264
      4  O          9.2830    1.4110   23.7690 O.2    24  PHE24      -0.2867
      5  CB         8.5110    0.2160   20.8460 C.3    24  PHE24       0.0534
      6  CG         7.8100    1.5730   20.7810 C.ar   24  PHE24      -0.0203
      7  CD1        8.5090    2.6950   20.3800 C.ar   24  PHE24      -0.0042
      8  CD2        6.5270    1.6860   21.0500 C.ar   24  PHE24      -0.0042
      9  CE1        7.8590    3.8930   20.2380 C.ar   24  PHE24      -0.0003
     10  CE2        5.8620    2.9410   20.9280 C.ar   24  PHE24      -0.0003
     11  CZ         6.5930    4.0190   20.5230 C.ar   24  PHE24      -0.0000
     12  N         12.2570    1.8240   24.9360 N.3    27  TYR27      -0.1227
     13  CA        12.3810    3.2500   24.6040 C.3    27  TYR27       0.1736
     14  C         11.4180    4.0850   25.4270 C.2    27  TYR27       0.2595
     15  O         11.7460    5.1070   26.0140 O.2    27  TYR27      -0.2718
     16  CB        12.1160    3.4130   23.0840 C.3    27  TYR27       0.0548
     17  CG        11.9100    4.8850   22.6970 C.ar   27  TYR27      -0.0200
     18  CD1       12.9680    5.7270   22.5970 C.ar   27  TYR27      -0.0009
     19  CD2       10.6390    5.3400   22.4460 C.ar   27  TYR27      -0.0009
     20  CE1       12.7570    7.0770   22.2850 C.ar   27  TYR27       0.0417
     21  CE2       10.4090    6.7150   22.1480 C.ar   27  TYR27       0.0417
     22  CZ        11.4900    7.5460   22.0770 C.ar   27  TYR27       0.1957
     23  OH        11.2460    8.8760   21.7530 O.3    27  TYR27      -0.2866
     24  N         10.1990    3.6320   25.4780 N.am   28  MET28      -0.1979
     25  CA         9.1440    4.2990   26.2240 C.3    28  MET28       0.1605
     26  C          9.4900    4.3480   27.7180 C.2    28  MET28       0.2287
     27  O          9.2680    5.3900   28.3640 O.2    28  MET28      -0.2864
     28  CB         7.8050    3.6320   26.0510 C.3    28  MET28       0.0413
     29  CG         7.1370    3.9120   24.6770 C.3    28  MET28       0.0598
     30  SD         5.4000    3.3810   24.5610 S.3    28  MET28      -0.1393
     31  CE         5.6270    1.5800   24.6540 C.3    28  MET28       0.0692
     32  N         11.9930    7.0740   28.1590 N.3    31  VAL31      -0.1245
     33  CA        11.2980    8.3530   28.0210 C.3    31  VAL31       0.1561
     34  C         10.5640    8.7480   29.2970 C.2    31  VAL31       0.2260
     35  O         10.4590    9.9080   29.6060 O.2    31  VAL31      -0.2867
     36  CB        10.3380    8.3410   26.7760 C.3    31  VAL31       0.0252
     37  CG1        9.3390    9.4850   26.7670 C.3    31  VAL31       0.0019
     38  CG2       11.1870    8.3150   25.4900 C.3    31  VAL31       0.0019
     39  N          7.4760    6.9450   30.1610 N.3    33  VAL33      -0.1245
     40  CA         6.0810    6.5560   29.9850 C.3    33  VAL33       0.1561
     41  C          5.6780    5.5340   31.0430 C.2    33  VAL33       0.2260
     42  O          6.4340    4.5700   31.2720 O.2    33  VAL33      -0.2867
     43  CB         5.8260    5.9940   28.5540 C.3    33  VAL33       0.0252
     44  CG1        4.3730    5.6990   28.3560 C.3    33  VAL33       0.0019
     45  CG2        6.2700    6.9840   27.4770 C.3    33  VAL33       0.0019
     46  N         -0.0360    1.7540   24.3280 N.3    41  ALA41      -0.1245
     47  CA         0.6800    2.3820   23.2150 C.3    41  ALA41       0.1562
     48  C          1.4930    1.3530   22.4400 C.2    41  ALA41       0.2260
     49  O          1.5920    1.4370   21.2220 O.2    41  ALA41      -0.2867
     50  CB         1.5290    3.5040   23.7090 C.3    41  ALA41       0.0290
     51  N         -0.1290    1.9070   14.1070 N.3    46  PRO46      -0.2116
     52  CA        -0.6770    3.0730   13.4690 C.3    46  PRO46       0.1372
     53  C         -0.5150    3.1390   11.9780 C.2    46  PRO46       0.2244
     54  O          0.3470    2.5160   11.4160 O.2    46  PRO46      -0.2868
     55  CB         0.0850    4.2400   14.0850 C.3    46  PRO46       0.0268
     56  CG         0.7640    3.7360   15.1690 C.3    46  PRO46       0.0207
     57  CD         0.9590    2.2640   15.0180 C.3    46  PRO46       0.0892
     58  N          0.4290    6.1400    9.3720 N.3    48  MET48      -0.1245
     59  CA         1.0880    7.4030    9.3770 C.3    48  MET48       0.1570
     60  C          0.9280    8.0230    8.0010 C.2    48  MET48       0.2261
     61  O          1.1970    7.3900    6.9980 O.2    48  MET48      -0.2867
     62  CB         2.5430    7.2190    9.7330 C.3    48  MET48       0.0387
     63  CG         3.2750    8.5160    9.7020 C.3    48  MET48       0.0595
     64  SD         4.9750    8.3990   10.1570 S.3    48  MET48      -0.1393
     65  CE         5.5600    7.0800    9.1250 C.3    48  MET48       0.0692
     66  N         -0.6870   10.5800   12.6550 N.3    61  SER61      -0.1217
     67  CA        -0.7170    9.1950   13.1070 C.3    61  SER61       0.1889
     68  C         -2.1490    8.8560   13.5390 C.2    61  SER61       0.2288
     69  O         -2.7210    9.5080   14.3910 O.2    61  SER61      -0.2866
     70  CB         0.2450    9.0300   14.2750 C.3    61  SER61       0.2089
     71  OG         0.2660    7.6850   14.7740 O.3    61  SER61      -0.2183
     72  N         -4.6710    3.7220   19.8140 N.3    65  PHE65      -0.1241
     73  CA        -4.2170    4.3560   21.0560 C.3    65  PHE65       0.1605
     74  C         -4.5880    5.8270   21.0610 C.2    65  PHE65       0.2264
     75  O         -5.4970    6.2450   21.7510 O.2    65  PHE65      -0.2867
     76  CB        -2.7180    4.1040   21.2930 C.3    65  PHE65       0.0534
     77  CG        -2.1050    4.9300   22.3800 C.ar   65  PHE65      -0.0203
     78  CD1       -2.6420    4.9610   23.6390 C.ar   65  PHE65      -0.0042
     79  CD2       -0.9550    5.6570   22.1330 C.ar   65  PHE65      -0.0042
     80  CE1       -2.0430    5.7530   24.6490 C.ar   65  PHE65      -0.0003
     81  CE2       -0.3560    6.4420   23.1530 C.ar   65  PHE65      -0.0003
     82  CZ        -0.9200    6.4790   24.3840 C.ar   65  PHE65      -0.0000
     83  N          2.5900   15.0700   22.6970 N.3    82  THR82      -0.1203
     84  CA         2.7870   13.7210   22.1920 C.3    82  THR82       0.1994
     85  C          1.6490   12.7520   22.5420 C.2    82  THR82       0.2618
     86  O          0.7800   13.0620   23.3430 O.2    82  THR82      -0.2717
     87  CB         4.1400   13.1670   22.7140 C.3    82  THR82       0.1784
     88  OG1        3.9650   13.0020   24.1260 O.3    82  THR82      -0.2211
     89  CG2        5.2950   14.1060   22.4060 C.3    82  THR82       0.0376
     90  N          1.6710   11.5720   21.9290 N.am   83  ALA83      -0.1965
     91  CA         0.5800   10.5830   22.1140 C.3    83  ALA83       0.1728
     92  C          0.4710   10.1830   23.5910 C.2    83  ALA83       0.2616
     93  O         -0.6160    9.8900   24.1020 O.2    83  ALA83      -0.2715
     94  CB         0.8090    9.3290   21.2210 C.3    83  ALA83       0.0334
     95  N          1.6350   10.1810   24.2700 N.am   84  ASP84      -0.1971
     96  CA         1.6450    9.8880   25.7170 C.3    84  ASP84       0.1709
     97  C          1.4750   11.1200   26.6070 C.2    84  ASP84       0.2293
     98  O          1.6230   11.0460   27.8080 O.2    84  ASP84      -0.2864
     99  CB         2.9040    9.1410   26.1150 C.3    84  ASP84       0.1436
    100  CG         4.1990    9.9330   25.8080 C.2    84  ASP84       0.3671
    101  OD1        4.3290   10.4380   24.6540 O.co2  84  ASP84      -0.2456
    102  OD2        5.0740   10.1290   26.7030 O.co2  84  ASP84      -0.2456
    103  N          3.0770   14.1650   26.7330 N.3    86  ARG86      -0.1245
    104  CA         4.1390   15.1070   27.1020 C.3    86  ARG86       0.1563
    105  C          3.9470   16.3570   26.2690 C.2    86  ARG86       0.2260
    106  O          3.6170   16.3010   25.1110 O.2    86  ARG86      -0.2867
    107  CB         5.5260   14.5610   26.7610 C.3    86  ARG86       0.0307
    108  CG         6.1300   13.4750   27.7020 C.3    86  ARG86       0.0489
    109  CD         7.3750   12.8680   27.1280 C.3    86  ARG86       0.2205
    110  NE         7.0000   11.9790   26.0320 N.pl3  86  ARG86      -0.0865
    111  CZ         7.5930   11.9630   24.8530 C.cat  86  ARG86       0.5346
    112  NH1        8.6200   12.7370   24.5860 N.pl3  86  ARG86       0.1354
    113  NH2        7.1260   11.2060   23.9060 N.pl3  86  ARG86       0.1354
    114  N         12.7010   16.3370   20.3070 N.3   103  GLN103     -0.1245
    115  CA        11.7180   16.7640   21.2830 C.3   103  GLN103      0.1566
    116  C         12.3890   17.0620   22.5890 C.2   103  GLN103      0.2260
    117  O         13.1320   16.2370   23.1150 O.2   103  GLN103     -0.2867
    118  CB        10.6730   15.6640   21.5540 C.3   103  GLN103      0.0367
    119  CG         9.8170   15.2310   20.3640 C.3   103  GLN103      0.0905
    120  CD         8.9090   14.0580   20.6290 C.2   103  GLN103      0.2608
    121  OE1        9.1790   13.2340   21.5150 O.2   103  GLN103     -0.2717
    122  NE2        7.8290   13.9440   19.8640 N.am  103  GLN103     -0.0878
    123  N         13.7540   11.3330   17.1170 N.3   112  ILE112     -0.1245
    124  CA        13.0720   10.4170   16.2200 C.3   112  ILE112      0.1561
    125  C         13.5780   10.7080   14.8320 C.2   112  ILE112      0.2260
    126  O         13.4480   11.8290   14.3490 O.2   112  ILE112     -0.2867
    127  CB        11.5370   10.6170   16.3060 C.3   112  ILE112      0.0252
    128  CG1       11.0370   10.3280   17.7310 C.3   112  ILE112      0.0019
    129  CG2       10.8600    9.6810   15.3080 C.3   112  ILE112      0.0019
    130  CD1        9.6210   10.7740   17.9300 C.3   112  ILE112      0.0001
    131  N         13.4180    9.5470   10.7320 N.3   114  ARG114     -0.1245
    132  CA        12.6120    8.8700    9.7470 C.3   114  ARG114      0.1563
    133  C         13.4610    8.8580    8.4580 C.2   114  ARG114      0.2260
    134  O         13.9140    9.8940    7.9990 O.2   114  ARG114     -0.2867
    135  CB        11.2860    9.6280    9.5400 C.3   114  ARG114      0.0307
    136  CG        10.3810    9.5950   10.8020 C.3   114  ARG114      0.0489
    137  CD         9.1540   10.5420   10.6290 C.3   114  ARG114      0.2205
    138  NE         8.1270   10.4730   11.7140 N.pl3 114  ARG114     -0.0865
    139  CZ         8.1390   11.2620   12.7880 C.cat 114  ARG114      0.5346
    140  NH1        9.1260   12.1130   13.0270 N.pl3 114  ARG114      0.1354
    141  NH2        7.1830   11.1300   13.6890 N.pl3 114  ARG114      0.1354
    142  N         11.8300    4.1220   11.1450 N.3   123  VAL123     -0.1245
    143  CA        11.7690    5.1080   12.2160 C.3   123  VAL123      0.1561
    144  C         12.6900    4.6290   13.3350 C.2   123  VAL123      0.2260
    145  O         12.5420    3.5300   13.8460 O.2   123  VAL123     -0.2867
    146  CB        10.3160    5.3460   12.6850 C.3   123  VAL123      0.0252
    147  CG1       10.2110    6.4790   13.7340 C.3   123  VAL123      0.0019
    148  CG2        9.4380    5.6950   11.5060 C.3   123  VAL123      0.0019
    149  N         13.9180    5.6830   17.1050 N.3   125  CYS125     -0.1235
    150  CA        13.6140    6.4920   18.2680 C.3   125  CYS125      0.1677
    151  C         14.7040    6.2590   19.2770 C.2   125  CYS125      0.2270
    152  O         14.9420    5.1420   19.7090 O.2   125  CYS125     -0.2867
    153  CB        12.2370    6.0400   18.8730 C.3   125  CYS125      0.0956
    154  SG        10.8720    6.0140   17.7070 S.3   125  CYS125     -0.0801
    155  N         11.2730    1.0900   14.2930 N.3   134  ARG134     -0.1245
    156  CA         9.9420    0.7920   13.8390 C.3   134  ARG134      0.1563
    157  C          9.9220    0.8470   12.3330 C.2   134  ARG134      0.2260
    158  O         10.4990    1.7280   11.7580 O.2   134  ARG134     -0.2867
    159  CB         8.9630    1.7470   14.4580 C.3   134  ARG134      0.0307
    160  CG         8.7810    1.4200   15.9600 C.3   134  ARG134      0.0489
    161  CD         8.1610    2.4650   16.7340 C.3   134  ARG134      0.2205
    162  NE         6.7330    2.6810   16.5770 N.pl3 134  ARG134     -0.0865
    163  CZ         5.7460    2.0550   17.2200 C.cat 134  ARG134      0.5346
    164  NH1        5.9320    0.9010   17.8370 N.pl3 134  ARG134      0.1354
    165  NH2        4.5090    2.4820   17.0490 N.pl3 134  ARG134      0.1354
    166  N          7.6930    0.9310    8.8160 N.3   136  TYR136     -0.1241
    167  CA         6.4510    1.1400    8.1290 C.3   136  TYR136      0.1605
    168  C          6.5470    0.7300    6.6760 C.2   136  TYR136      0.2264
    169  O          7.5820    0.9550    6.0580 O.2   136  TYR136     -0.2867
    170  CB         6.0380    2.6360    8.1920 C.3   136  TYR136      0.0534
    171  CG         5.5630    3.0970    9.5720 C.ar  136  TYR136     -0.0201
    172  CD1        6.5060    3.3740   10.5590 C.ar  136  TYR136     -0.0009
    173  CD2        4.2710    3.3090    9.8360 C.ar  136  TYR136     -0.0009
    174  CE1        6.0770    3.8260   11.8700 C.ar  136  TYR136      0.0417
    175  CE2        3.8230    3.7440   11.0950 C.ar  136  TYR136      0.0417
    176  CZ         4.7390    4.0240   12.0750 C.ar  136  TYR136      0.1957
    177  OH         4.1730    4.3840   13.2870 O.3   136  TYR136     -0.2866
@<TRIPOS>BOND
     1   169   168    2
     2   168   167    1
     3    61    60    2
     4   134   133    2
     5    60    59    1
     6   167   170    1
     7   167   166    1
     8   170   171    1
     9   133   132    1
    10    65    64    1
    11    58    59    1
    12    59    62    1
    13   135   132    1
    14   135   136    1
    15   171   173   ar
    16   171   172   ar
    17    63    62    1
    18    63    64    1
    19   132   131    1
    20   173   175   ar
    21   172   174   ar
    22   137   136    1
    23   137   138    1
    24   175   176   ar
    25   142   143    1
    26    54    53    2
    27   148   146    1
    28   138   139    2
    29   158   157    2
    30   174   176   ar
    31    53    52    1
    32   176   177    1
    33   143   146    1
    34   143   144    1
    35   157   156    1
    36    66    67    1
    37   146   147    1
    38   139   140    1
    39   139   141    1
    40    67    68    1
    41    67    70    1
    42   144   145    2
    43    52    55    1
    44    52    51    1
    45    68    69    2
    46   156   155    1
    47   156   159    1
    48    55    56    1
    49    51    57    1
    50    70    71    1
    51   126   125    2
    52   159   160    1
    53   125   124    1
    54    57    56    1
    55   129   127    1
    56   160   161    1
    57   124   127    1
    58   124   123    1
    59   127   128    1
    60   162   161    1
    61   162   163    2
    62   165   163    1
    63   149   150    1
    64   163   164    1
    65   154   153    1
    66   128   130    1
    67   150   153    1
    68   150   151    1
    69   151   152    2
    70    72    73    1
    71   122   120   am
    72     9     7   ar
    73     9    11   ar
    74   114   115    1
    75   119   120    1
    76   119   118    1
    77     7     6   ar
    78    11    10   ar
    79   120   121    2
    80     6     5    1
    81     6     8   ar
    82     5     2    1
    83    10     8   ar
    84    73    74    1
    85    73    76    1
    86    74    75    2
    87    94    91    1
    88    49    48    2
    89   115   118    1
    90   115   116    1
    91    76    77    1
    92     1     2    1
    93    23    22    1
    94     2     3    1
    95    90    91    1
    96    90    85   am
    97    22    21   ar
    98    22    20   ar
    99    91    92    1
   100    79    77   ar
   101    79    81   ar
   102    21    19   ar
   103    84    85    1
   104    84    83    1
   105    84    87    1
   106    20    18   ar
   107    77    78   ar
   108    89    87    1
   109    48    47    1
   110    19    17   ar
   111    85    86    2
   112   116   117    2
   113    18    17   ar
   114    17    16    1
   115    87    88    1
   116    16    13    1
   117    81    82   ar
   118    47    50    1
   119    47    46    1
   120     3     4    2
   121    92    93    2
   122    92    95   am
   123    78    80   ar
   124   113   111    1
   125    95    96    1
   126    82    80   ar
   127    30    31    1
   128    30    29    1
   129   112   111    1
   130    13    12    1
   131    13    14    1
   132   101   100   ar
   133    29    28    1
   134   111   110    2
   135   106   105    2
   136    14    24   am
   137    14    15    2
   138    24    25    1
   139    38    36    1
   140    96    99    1
   141    96    97    1
   142   100    99    1
   143   100   102   ar
   144   110   109    1
   145    28    25    1
   146    25    26    1
   147   105   104    1
   148    97    98    2
   149   103   104    1
   150   107   104    1
   151   107   108    1
   152    37    36    1
   153    36    33    1
   154   109   108    1
   155    45    43    1
   156    26    27    2
   157    33    32    1
   158    33    34    1
   159    44    43    1
   160    43    40    1
   161    34    35    2
   162    40    39    1
   163    40    41    1
   164    41    42    2
