@<TRIPOS>MOLECULE
tmp/3p6lA02.pdb
 135 129 0 0 0
SMALL
GASTEIGER

@<TRIPOS>ATOM
      1  N         12.2950    6.1190    8.4720 N.3    14  GLN14      -0.1245
      2  CA        13.4250    5.5530    7.7050 C.3    14  GLN14       0.1566
      3  C         12.7600    5.0600    6.4180 C.2    14  GLN14       0.2260
      4  O         11.9780    4.1150    6.4560 O.2    14  GLN14      -0.2867
      5  CB        14.1100    4.3850    8.4410 C.3    14  GLN14       0.0367
      6  CG        15.6250    4.3120    8.2380 C.3    14  GLN14       0.0905
      7  CD        16.0200    4.0480    6.8210 C.2    14  GLN14       0.2608
      8  OE1       15.2120    3.5810    6.0270 O.2    14  GLN14      -0.2717
      9  NE2       17.2650    4.3810    6.4820 N.am   14  GLN14      -0.0878
     10  N         13.3070    3.1920    3.9920 N.3    16  TYR16      -0.1241
     11  CA        13.3190    1.7820    3.6350 C.3    16  TYR16       0.1605
     12  C         12.0480    1.0290    4.0950 C.2    16  TYR16       0.2264
     13  O         11.6570    0.0350    3.4740 O.2    16  TYR16      -0.2867
     14  CB        14.5950    1.0770    4.1000 C.3    16  TYR16       0.0534
     15  CG        14.7310   -0.2930    3.4400 C.ar   16  TYR16      -0.0201
     16  CD1       15.1600   -0.4150    2.1150 C.ar   16  TYR16      -0.0009
     17  CD2       14.4210   -1.4590    4.1420 C.ar   16  TYR16      -0.0009
     18  CE1       15.2810   -1.6570    1.5100 C.ar   16  TYR16       0.0417
     19  CE2       14.5170   -2.7030    3.5320 C.ar   16  TYR16       0.0417
     20  CZ        14.9580   -2.7810    2.2220 C.ar   16  TYR16       0.1957
     21  OH        15.0620   -3.9990    1.6330 O.3    16  TYR16      -0.2866
     22  N         16.7850    6.0780    2.1780 N.3    41  TYR41      -0.1228
     23  CA        17.7710    5.0710    1.7860 C.3    41  TYR41       0.1721
     24  C         18.2870    5.3550    0.3640 C.2    41  TYR41       0.2437
     25  O         17.5170    5.7600   -0.5000 O.2    41  TYR41      -0.2733
     26  CB        17.2830    3.6050    1.9630 C.3    41  TYR41       0.0547
     27  CG        16.4500    2.9860    0.8550 C.ar   41  TYR41      -0.0200
     28  CD1       15.0610    3.0750    0.8460 C.ar   41  TYR41      -0.0009
     29  CD2       17.0430    2.2720   -0.1400 C.ar   41  TYR41      -0.0009
     30  CE1       14.3120    2.4870   -0.1630 C.ar   41  TYR41       0.0417
     31  CE2       16.3120    1.6780   -1.1640 C.ar   41  TYR41       0.0417
     32  CZ        14.9460    1.7990   -1.1730 C.ar   41  TYR41       0.1957
     33  OH        14.2490    1.2000   -2.1710 O.3    41  TYR41      -0.2866
     34  N         19.5910    5.1650    0.1370 N.am   42  PRO42      -0.2729
     35  CA        20.2380    5.2910   -1.1820 C.3    42  PRO42       0.1401
     36  C         19.7410    4.2860   -2.2140 C.2    42  PRO42       0.2269
     37  O         19.9260    3.0690   -2.0780 O.2    42  PRO42      -0.2865
     38  CB        21.7230    5.0620   -0.9000 C.3    42  PRO42       0.0296
     39  CG        21.8050    4.5040    0.4530 C.3    42  PRO42       0.0237
     40  CD        20.5460    4.8140    1.1930 C.3    42  PRO42       0.0939
     41  N         20.8050    6.8920    4.1930 N.3    82  GLY82      -0.1210
     42  CA        21.5050    5.6440    4.5150 C.3    82  GLY82       0.1956
     43  C         20.5120    4.5100    4.6150 C.2    82  GLY82       0.2611
     44  O         19.2870    4.7520    4.5300 O.2    82  GLY82      -0.2717
     45  N         20.9730    3.2810    4.8720 N.am   83  VAL83      -0.1979
     46  CA        22.3480    2.9380    5.2000 C.3    83  VAL83       0.1595
     47  C         23.2140    2.8800    3.9370 C.2    83  VAL83       0.2287
     48  O         22.9100    2.1830    2.9740 O.2    83  VAL83      -0.2864
     49  CB        22.4110    1.6500    5.9900 C.3    83  VAL83       0.0276
     50  CG1       23.8610    1.2450    6.2610 C.3    83  VAL83       0.0022
     51  CG2       21.6160    1.8360    7.3770 C.3    83  VAL83       0.0022
     52  N         27.9220    1.9650    6.8500 N.3   108  GLU108     -0.1245
     53  CA        28.8210    0.9600    7.4170 C.3   108  GLU108      0.1567
     54  C         30.1240    1.0780    6.6170 C.2   108  GLU108      0.2260
     55  O         30.2640    0.4590    5.5780 O.2   108  GLU108     -0.2867
     56  CB        28.1770   -0.4220    7.4080 C.3   108  GLU108      0.0388
     57  CG        27.0560   -0.5420    8.4800 C.3   108  GLU108      0.1160
     58  CD        26.5530   -1.9880    8.7760 C.2   108  GLU108      0.3649
     59  OE1       27.3910   -2.8990    9.0510 O.co2 108  GLU108     -0.2457
     60  OE2       25.2960   -2.1720    8.8140 O.co2 108  GLU108     -0.2457
     61  N         25.8610    2.1220   11.2990 N.3   131  HIS131     -0.1241
     62  CA        24.7850    1.1740   11.5010 C.3   131  HIS131      0.1621
     63  C         25.3530   -0.2030   11.8710 C.2   131  HIS131      0.2264
     64  O         26.3820   -0.6550   11.3120 O.2   131  HIS131     -0.2867
     65  CB        23.8860    1.1180   10.2450 C.3   131  HIS131      0.0745
     66  CG        22.7050    0.1970   10.3590 C.ar  131  HIS131      0.0817
     67  ND1       22.5860   -0.9620    9.6270 N.ar  131  HIS131     -0.2268
     68  CD2       21.5890    0.2690   11.1210 C.ar  131  HIS131      0.1154
     69  CE1       21.4470   -1.5590    9.9270 C.ar  131  HIS131      0.1986
     70  NE2       20.8240   -0.8360   10.8400 N.ar  131  HIS131     -0.2212
     71  N         24.5000   -4.2800   11.9500 N.3   133  HIS133     -0.1241
     72  CA        23.6040   -5.3760   11.6220 C.3   133  HIS133      0.1621
     73  C         24.2110   -6.7300   12.0320 C.2   133  HIS133      0.2264
     74  O         25.3920   -6.8070   12.3600 O.2   133  HIS133     -0.2867
     75  CB        23.1610   -5.3190   10.1690 C.3   133  HIS133      0.0745
     76  CG        24.2130   -5.6920    9.1870 C.ar  133  HIS133      0.0817
     77  ND1       25.1140   -4.7780    8.6890 N.ar  133  HIS133     -0.2268
     78  CD2       24.4710   -6.8650    8.5580 C.ar  133  HIS133      0.1154
     79  CE1       25.9120   -5.3880    7.8240 C.ar  133  HIS133      0.1986
     80  NE2       25.5290   -6.6480    7.7140 N.ar  133  HIS133     -0.2212
     81  N         20.8550    0.3490   15.9350 N.3   161  ASP161     -0.1239
     82  CA        19.7720   -0.5730   15.5800 C.3   161  ASP161      0.1674
     83  C         19.5710   -1.5530   16.7360 C.2   161  ASP161      0.2266
     84  O         20.2980   -2.5070   16.9310 O.2   161  ASP161     -0.2867
     85  CB        20.0300   -1.2850   14.2830 C.3   161  ASP161      0.1410
     86  CG        18.7970   -1.9910   13.7740 C.2   161  ASP161      0.3668
     87  OD1       18.2260   -2.7820   14.5610 O.co2 161  ASP161     -0.2456
     88  OD2       18.4290   -1.7550   12.6080 O.co2 161  ASP161     -0.2456
     89  N         18.7730   -5.2960   15.8740 N.3   164  HIS164     -0.1241
     90  CA        19.8750   -6.1320   15.4380 C.3   164  HIS164      0.1621
     91  C         20.8220   -6.5180   16.5460 C.2   164  HIS164      0.2264
     92  O         21.4060   -7.6250   16.4960 O.2   164  HIS164     -0.2867
     93  CB        20.6320   -5.4980   14.2660 C.3   164  HIS164      0.0745
     94  CG        19.8100   -5.3560   13.0270 C.ar  164  HIS164      0.0817
     95  ND1       18.8440   -6.2720   12.6650 N.ar  164  HIS164     -0.2268
     96  CD2       19.8650   -4.4530   12.0200 C.ar  164  HIS164      0.1154
     97  CE1       18.3090   -5.9140   11.5130 C.ar  164  HIS164      0.1986
     98  NE2       18.9200   -4.8230   11.0950 N.ar  164  HIS164     -0.2212
     99  N         17.8440    3.4650   14.6660 N.3   187  HIS187     -0.1241
    100  CA        16.8690    2.6970   13.8700 C.3   187  HIS187      0.1621
    101  C         16.0760    2.0150   14.9630 C.2   187  HIS187      0.2264
    102  O         16.4650    0.9530   15.4360 O.2   187  HIS187     -0.2867
    103  CB        17.5700    1.6810   12.9820 C.3   187  HIS187      0.0745
    104  CG        18.0550    2.2670   11.6850 C.ar  187  HIS187      0.0817
    105  ND1       18.3520    1.5020   10.5850 N.ar  187  HIS187     -0.2268
    106  CD2       18.2570    3.5520   11.3170 C.ar  187  HIS187      0.1154
    107  CE1       18.7080    2.2890    9.5850 C.ar  187  HIS187      0.1986
    108  NE2       18.6950    3.5420   10.0100 N.ar  187  HIS187     -0.2212
    109  N         13.0690    0.2420   16.8360 N.3   189  LYS189     -0.1245
    110  CA        12.1330   -0.8300   16.5400 C.3   189  LYS189      0.1561
    111  C         11.9300   -1.6740   17.8050 C.2   189  LYS189      0.2260
    112  O         12.6040   -1.4650   18.8340 O.2   189  LYS189     -0.2867
    113  CB        12.6920   -1.6650   15.3780 C.3   189  LYS189      0.0271
    114  CG        14.0980   -2.1820   15.6250 C.3   189  LYS189      0.0035
    115  CD        14.6930   -2.8660   14.3870 C.3   189  LYS189      0.0206
    116  CE        14.9080   -1.9450   13.2190 C.3   189  LYS189      0.1093
    117  NZ        15.9270   -2.5260   12.2600 N.3   189  LYS189     -0.1314
    118  N         12.2570    2.2870   11.4500 N.3   231  GLU231     -0.1245
    119  CA        12.5930    1.2840   10.4690 C.3   231  GLU231      0.1567
    120  C         11.7150    0.1110   10.8580 C.2   231  GLU231      0.2260
    121  O         12.0270   -0.5810   11.8050 O.2   231  GLU231     -0.2867
    122  CB        14.0950    0.9550   10.5600 C.3   231  GLU231      0.0388
    123  CG        14.5470   -0.3220    9.9280 C.3   231  GLU231      0.1160
    124  CD        15.1500   -0.1270    8.5720 C.2   231  GLU231      0.3649
    125  OE1       16.0510    0.7340    8.4460 O.co2 231  GLU231     -0.2457
    126  OE2       14.7620   -0.8730    7.6420 O.co2 231  GLU231     -0.2457
    127  N         10.2810   -3.2350    9.5460 N.3   233  GLU233     -0.1245
    128  CA        10.4640   -4.2700    8.5130 C.3   233  GLU233      0.1567
    129  C          9.4390   -5.4110    8.6080 C.2   233  GLU233      0.2260
    130  O          9.7820   -6.5580    8.8190 O.2   233  GLU233     -0.2867
    131  CB        11.9250   -4.7540    8.5590 C.3   233  GLU233      0.0388
    132  CG        12.8860   -3.5880    8.4210 C.3   233  GLU233      0.1160
    133  CD        14.3520   -3.9750    8.2500 C.2   233  GLU233      0.3649
    134  OE1       15.0750   -4.0950    9.2610 O.co2 233  GLU233     -0.2457
    135  OE2       14.7920   -4.0780    7.0880 O.co2 233  GLU233     -0.2457
@<TRIPOS>BOND
     1    36    37    2
     2    36    35    1
     3    33    32    1
     4    35    38    1
     5    35    34    1
     6    32    31   ar
     7    32    30   ar
     8    31    29   ar
     9    38    39    1
    10    25    24    2
    11    30    28   ar
    12    29    27   ar
    13    34    24   am
    14    34    40    1
    15    24    23    1
    16    39    40    1
    17    28    27   ar
    18    27    26    1
    19    18    16   ar
    20    18    20   ar
    21    21    20    1
    22    23    26    1
    23    23    22    1
    24    16    15   ar
    25    20    19   ar
    26    48    47    2
    27    15    14    1
    28    15    17   ar
    29    13    12    2
    30    19    17   ar
    31    11    10    1
    32    11    12    1
    33    11    14    1
    34    47    46    1
    35    41    42    1
    36    42    43    1
    37    44    43    2
    38    43    45   am
    39    45    46    1
    40    46    49    1
    41    55    54    2
    42    49    50    1
    43    49    51    1
    44     8     7    2
    45     3     4    2
    46     3     2    1
    47     9     7   am
    48    54    53    1
    49     7     6    1
    50    52    53    1
    51   135   133   ar
    52    56    53    1
    53    56    57    1
    54   126   124   ar
    55     2     5    1
    56     2     1    1
    57    80    79   ar
    58    80    78   ar
    59    79    77   ar
    60     6     5    1
    61   133   132    1
    62   133   134   ar
    63   132   131    1
    64   125   124   ar
    65    57    58    1
    66   128   131    1
    67   128   129    1
    68   128   127    1
    69    78    76   ar
    70   124   123    1
    71   129   130    2
    72    77    76   ar
    73    58    60   ar
    74    58    59   ar
    75    76    75    1
    76   107   108   ar
    77   107   105   ar
    78    67    69   ar
    79    67    66   ar
    80    69    70   ar
    81   123   122    1
    82   108   106   ar
    83    75    72    1
    84    65    66    1
    85    65    62    1
    86    66    68   ar
    87   119   122    1
    88   119   120    1
    89   119   118    1
    90   105   104   ar
    91    70    68   ar
    92   120   121    2
    93    98    97   ar
    94    98    96   ar
    95    61    62    1
    96    64    63    2
    97   106   104   ar
    98    62    63    1
    99    97    95   ar
   100    72    71    1
   101    72    73    1
   102   104   103    1
   103    96    94   ar
   104    73    74    2
   105   117   116    1
   106    88    86   ar
   107    95    94   ar
   108   103   100    1
   109    94    93    1
   110   116   115    1
   111    86    85    1
   112    86    87   ar
   113   100    99    1
   114   100   101    1
   115    93    90    1
   116    85    82    1
   117   115   114    1
   118   101   102    2
   119   113   114    1
   120   113   110    1
   121    90    89    1
   122    90    91    1
   123    82    81    1
   124    82    83    1
   125    92    91    2
   126   110   109    1
   127   110   111    1
   128    83    84    2
   129   111   112    2
