@<TRIPOS>MOLECULE
tmp/3p6nA01.pdb
 195 183 0 0 0
SMALL
GASTEIGER

@<TRIPOS>ATOM
      1  N         15.2540  -33.1590  -22.7190 N.3    19  TYR19      -0.1241
      2  CA        14.4220  -34.3270  -22.4340 C.3    19  TYR19       0.1605
      3  C         15.1330  -35.3790  -21.5890 C.2    19  TYR19       0.2264
      4  O         14.5110  -36.3480  -21.1520 O.2    19  TYR19      -0.2867
      5  CB        13.8940  -34.9380  -23.7340 C.3    19  TYR19       0.0534
      6  CG        12.8740  -34.0570  -24.4130 C.ar   19  TYR19      -0.0201
      7  CD1       11.5500  -34.0390  -23.9780 C.ar   19  TYR19      -0.0009
      8  CD2       13.2260  -33.2310  -25.4810 C.ar   19  TYR19      -0.0009
      9  CE1       10.5910  -33.2320  -24.5830 C.ar   19  TYR19       0.0417
     10  CE2       12.2590  -32.4080  -26.0970 C.ar   19  TYR19       0.0417
     11  CZ        10.9540  -32.4240  -25.6330 C.ar   19  TYR19       0.1957
     12  OH         9.9780  -31.6530  -26.2230 O.3    19  TYR19      -0.2866
     13  N         18.5960  -32.6970  -29.8090 N.3    49  ASN49      -0.1225
     14  CA        17.1900  -32.5240  -30.2090 C.3    49  ASN49       0.1785
     15  C         17.0120  -31.6550  -31.4510 C.2    49  ASN49       0.2597
     16  O         16.0850  -30.8560  -31.5340 O.2    49  ASN49      -0.2718
     17  CB        16.3770  -31.9900  -29.0240 C.3    49  ASN49       0.1169
     18  CG        16.3580  -32.9560  -27.8560 C.2    49  ASN49       0.2627
     19  OD1       15.8940  -34.0880  -27.9860 O.2    49  ASN49      -0.2716
     20  ND2       16.8600  -32.5180  -26.7080 N.am   49  ASN49      -0.0877
     21  N         17.9210  -31.8240  -32.4120 N.am   50  GLY50      -0.1957
     22  CA        17.8810  -31.0880  -33.6760 C.3    50  GLY50       0.1869
     23  C         18.7190  -29.8210  -33.7250 C.2    50  GLY50       0.2309
     24  O         18.9730  -29.2900  -34.8090 O.2    50  GLY50      -0.2863
     25  N          7.8040  -25.3800  -29.9130 N.3    77  PHE77      -0.1241
     26  CA         8.3350  -26.5640  -29.2520 C.3    77  PHE77       0.1605
     27  C          9.5790  -27.1150  -29.9290 C.2    77  PHE77       0.2264
     28  O          9.7390  -27.0360  -31.1470 O.2    77  PHE77      -0.2867
     29  CB         7.2990  -27.6920  -29.2120 C.3    77  PHE77       0.0534
     30  CG         6.0490  -27.3640  -28.4670 C.ar   77  PHE77      -0.0203
     31  CD1        6.0710  -26.5280  -27.3410 C.ar   77  PHE77      -0.0042
     32  CD2        4.8510  -27.9500  -28.8520 C.ar   77  PHE77      -0.0042
     33  CE1        4.9100  -26.2590  -26.6380 C.ar   77  PHE77      -0.0003
     34  CE2        3.6890  -27.6920  -28.1560 C.ar   77  PHE77      -0.0003
     35  CZ         3.7090  -26.8400  -27.0520 C.ar   77  PHE77      -0.0000
     36  N         11.2000  -30.8690  -30.1930 N.3    79  PRO79      -0.2116
     37  CA        11.8770  -30.7200  -31.4780 C.3    79  PRO79       0.1372
     38  C         11.0030  -30.0090  -32.5230 C.2    79  PRO79       0.2244
     39  O          9.7790  -29.9030  -32.3630 O.2    79  PRO79      -0.2868
     40  CB        12.1360  -32.1700  -31.8900 C.3    79  PRO79       0.0268
     41  CG        10.9240  -32.9020  -31.3640 C.3    79  PRO79       0.0207
     42  CD        10.5960  -32.2110  -30.0490 C.3    79  PRO79       0.0892
     43  N          9.7840  -30.7090  -35.3790 N.3    81  GLU81      -0.1231
     44  CA         8.6240  -31.4250  -35.9200 C.3    81  GLU81       0.1699
     45  C          7.3620  -31.2700  -35.0550 C.2    81  GLU81       0.2592
     46  O          6.2680  -31.1000  -35.5980 O.2    81  GLU81      -0.2718
     47  CB         8.9420  -32.8980  -36.2210 C.3    81  GLU81       0.0402
     48  CG         9.1790  -33.7990  -35.0100 C.3    81  GLU81       0.1161
     49  CD         9.7030  -35.1690  -35.4080 C.2    81  GLU81       0.3649
     50  OE1        8.8920  -36.1190  -35.5120 O.co2  81  GLU81      -0.2457
     51  OE2       10.9290  -35.2910  -35.6260 O.co2  81  GLU81      -0.2457
     52  N          7.5140  -31.2950  -33.7270 N.am   82  ALA82      -0.1980
     53  CA         6.3750  -31.0560  -32.8330 C.3    82  ALA82       0.1597
     54  C          5.8990  -29.6020  -32.9040 C.2    82  ALA82       0.2287
     55  O          4.6980  -29.3340  -32.9730 O.2    82  ALA82      -0.2864
     56  CB         6.7230  -31.4260  -31.3920 C.3    82  ALA82       0.0319
     57  N          2.0560  -28.2370  -34.2150 N.3    86  TYR86      -0.1241
     58  CA         1.2600  -27.6710  -33.1340 C.3    86  TYR86       0.1605
     59  C          0.4690  -26.4640  -33.6160 C.2    86  TYR86       0.2264
     60  O          1.0560  -25.5140  -34.1340 O.2    86  TYR86      -0.2867
     61  CB         2.2210  -27.2540  -32.0520 C.3    86  TYR86       0.0534
     62  CG         1.6180  -26.6960  -30.8090 C.ar   86  TYR86      -0.0201
     63  CD1        1.7600  -25.3400  -30.5080 C.ar   86  TYR86      -0.0009
     64  CD2        0.9560  -27.5210  -29.8940 C.ar   86  TYR86      -0.0009
     65  CE1        1.2480  -24.8140  -29.3380 C.ar   86  TYR86       0.0417
     66  CE2        0.4370  -27.0040  -28.7100 C.ar   86  TYR86       0.0417
     67  CZ         0.5960  -25.6520  -28.4410 C.ar   86  TYR86       0.1957
     68  OH         0.1000  -25.1240  -27.2730 O.3    86  TYR86      -0.2866
     69  N         -2.4960  -25.1610  -31.6460 N.3    88  PHE88      -0.1241
     70  CA        -3.3840  -24.6940  -30.5910 C.3    88  PHE88       0.1605
     71  C         -3.4630  -23.1700  -30.5670 C.2    88  PHE88       0.2264
     72  O         -2.4820  -22.4750  -30.8750 O.2    88  PHE88      -0.2867
     73  CB        -2.8620  -25.1680  -29.2300 C.3    88  PHE88       0.0534
     74  CG        -3.2190  -26.5970  -28.8830 C.ar   88  PHE88      -0.0203
     75  CD1       -3.8250  -27.4400  -29.8010 C.ar   88  PHE88      -0.0042
     76  CD2       -2.9050  -27.1030  -27.6190 C.ar   88  PHE88      -0.0042
     77  CE1       -4.1300  -28.7770  -29.4630 C.ar   88  PHE88      -0.0003
     78  CE2       -3.2100  -28.4210  -27.2740 C.ar   88  PHE88      -0.0003
     79  CZ        -3.8270  -29.2560  -28.1880 C.ar   88  PHE88      -0.0000
     80  N         -1.6730  -20.2710  -28.3180 N.3    91  THR91      -0.1218
     81  CA        -0.2460  -20.5150  -28.0800 C.3    91  THR91       0.1862
     82  C          0.6320  -20.6220  -29.3360 C.2    91  THR91       0.2287
     83  O          1.8380  -20.4830  -29.2130 O.2    91  THR91      -0.2866
     84  CB        -0.0100  -21.7650  -27.2150 C.3    91  THR91       0.1770
     85  OG1       -0.8850  -22.8120  -27.6530 O.3    91  THR91      -0.2211
     86  CG2       -0.2560  -21.4660  -25.7290 C.3    91  THR91       0.0375
     87  N         -0.9940  -37.4900  -25.8760 N.3   174  MET174     -0.1230
     88  CA        -0.3450  -36.3340  -26.4790 C.3   174  MET174      0.1702
     89  C          0.8270  -35.7910  -25.6580 C.2   174  MET174      0.2593
     90  O          1.8710  -35.4360  -26.2120 O.2   174  MET174     -0.2718
     91  CB        -1.3800  -35.2290  -26.6800 C.3   174  MET174      0.0401
     92  CG        -0.7660  -33.9190  -27.1260 C.3   174  MET174      0.0596
     93  SD        -1.9690  -32.5830  -27.2540 S.3   174  MET174     -0.1393
     94  CE        -2.9680  -33.2180  -28.5760 C.3   174  MET174      0.0692
     95  N          0.6610  -35.7250  -24.3430 N.am  175  THR175     -0.1953
     96  CA         1.6220  -34.9810  -23.5050 C.3   175  THR175      0.1897
     97  C          2.6220  -35.8560  -22.7720 C.2   175  THR175      0.2313
     98  O          3.6230  -35.3620  -22.2400 O.2   175  THR175     -0.2863
     99  CB         0.9120  -34.0910  -22.4810 C.3   175  THR175      0.1794
    100  OG1        0.2090  -34.9100  -21.5490 O.3   175  THR175     -0.2208
    101  CG2       -0.0690  -33.1350  -23.1670 C.3   175  THR175      0.0378
    102  N          4.2470  -38.6900  -24.4010 N.3   177  PRO177     -0.2116
    103  CA         4.4500  -39.5840  -25.5420 C.3   177  PRO177      0.1372
    104  C          5.4110  -40.7220  -25.2090 C.2   177  PRO177      0.2244
    105  O          6.4020  -40.5130  -24.5000 O.2   177  PRO177     -0.2868
    106  CB         5.0460  -38.6650  -26.6210 C.3   177  PRO177      0.0268
    107  CG         5.6550  -37.5340  -25.8740 C.3   177  PRO177      0.0207
    108  CD         4.8280  -37.3510  -24.6360 C.3   177  PRO177      0.0892
    109  N          6.4070  -42.6550  -27.8560 N.3   179  GLY179     -0.1225
    110  CA         7.0310  -42.8510  -29.1680 C.3   179  GLY179      0.1811
    111  C          6.1920  -43.6410  -30.1570 C.2   179  GLY179      0.2280
    112  O          6.5790  -43.7860  -31.3250 O.2   179  GLY179     -0.2866
    113  N          3.1360  -39.9780  -33.4360 N.3   182  THR182     -0.1203
    114  CA         3.6570  -38.6240  -33.5970 C.3   182  THR182      0.1994
    115  C          2.7630  -37.6650  -32.8210 C.2   182  THR182      0.2617
    116  O          1.6110  -37.9980  -32.5110 O.2   182  THR182     -0.2717
    117  CB         3.6720  -38.1930  -35.0780 C.3   182  THR182      0.1784
    118  OG1        2.3250  -38.0940  -35.5620 O.3   182  THR182     -0.2211
    119  CG2        4.4670  -39.1840  -35.9390 C.3   182  THR182      0.0376
    120  N          3.2740  -36.4720  -32.5210 N.am  183  PHE183     -0.1975
    121  CA         2.4240  -35.4560  -31.9180 C.3   183  PHE183      0.1639
    122  C          1.1700  -35.2100  -32.7690 C.2   183  PHE183      0.2290
    123  O          0.0540  -35.1250  -32.2420 O.2   183  PHE183     -0.2864
    124  CB         3.1740  -34.1400  -31.6910 C.3   183  PHE183      0.0560
    125  CG         2.2750  -33.0170  -31.2660 C.ar  183  PHE183     -0.0200
    126  CD1        1.8830  -32.0410  -32.1760 C.ar  183  PHE183     -0.0042
    127  CD2        1.7770  -32.9630  -29.9680 C.ar  183  PHE183     -0.0042
    128  CE1        1.0240  -31.0100  -31.7890 C.ar  183  PHE183     -0.0003
    129  CE2        0.9210  -31.9310  -29.5700 C.ar  183  PHE183     -0.0003
    130  CZ         0.5430  -30.9570  -30.4830 C.ar  183  PHE183     -0.0000
    131  N         -6.3880  -26.4330  -26.3200 N.3   234  LEU234     -0.1245
    132  CA        -5.4850  -25.7910  -25.3640 C.3   234  LEU234      0.1561
    133  C         -6.1240  -25.6020  -23.9910 C.2   234  LEU234      0.2260
    134  O         -5.4820  -25.8240  -22.9670 O.2   234  LEU234     -0.2867
    135  CB        -4.9420  -24.4530  -25.9110 C.3   234  LEU234      0.0270
    136  CG        -4.0520  -23.7170  -24.9010 C.3   234  LEU234      0.0019
    137  CD1       -2.7180  -24.4930  -24.6740 C.3   234  LEU234      0.0001
    138  CD2       -3.7670  -22.2970  -25.2960 C.3   234  LEU234      0.0001
    139  N         -5.8540  -29.0040  -22.3240 N.3   237  VAL237     -0.1231
    140  CA        -4.5260  -29.5160  -21.9790 C.3   237  VAL237      0.1692
    141  C         -3.7020  -28.5920  -21.0880 C.2   237  VAL237      0.2592
    142  O         -2.8580  -29.0590  -20.3310 O.2   237  VAL237     -0.2718
    143  CB        -3.6640  -29.9010  -23.2190 C.3   237  VAL237      0.0266
    144  CG1       -4.4140  -30.8890  -24.1140 C.3   237  VAL237      0.0020
    145  CG2       -3.1740  -28.6680  -23.9580 C.3   237  VAL237      0.0020
    146  N         -3.9580  -27.2920  -21.1780 N.am  238  GLY238     -0.1957
    147  CA        -3.0660  -26.2860  -20.5920 C.3   238  GLY238      0.1869
    148  C         -3.0100  -26.3890  -19.0880 C.2   238  GLY238      0.2309
    149  O         -1.9880  -26.0880  -18.4680 O.2   238  GLY238     -0.2863
    150  N          0.6980  -29.3260  -16.1970 N.3   242  THR242     -0.1218
    151  CA         1.3040  -28.2660  -15.4020 C.3   242  THR242      0.1862
    152  C          0.8670  -28.3810  -13.9440 C.2   242  THR242      0.2287
    153  O          1.6900  -28.3750  -13.0410 O.2   242  THR242     -0.2866
    154  CB         0.9240  -26.8750  -15.9390 C.3   242  THR242      0.1770
    155  OG1       -0.4810  -26.8280  -16.1600 O.3   242  THR242     -0.2211
    156  CG2        1.6510  -26.5740  -17.2390 C.3   242  THR242      0.0375
    157  N          7.9830  -25.3330  -16.6350 N.3   285  VAL285     -0.1245
    158  CA         7.7120  -25.2330  -18.0850 C.3   285  VAL285      0.1561
    159  C          8.9370  -24.7330  -18.8400 C.2   285  VAL285      0.2260
    160  O          9.6860  -23.8810  -18.3440 O.2   285  VAL285     -0.2867
    161  CB         6.4810  -24.3310  -18.4020 C.3   285  VAL285      0.0252
    162  CG1        6.2050  -24.2460  -19.9440 C.3   285  VAL285      0.0019
    163  CG2        5.2190  -24.8440  -17.6560 C.3   285  VAL285      0.0019
    164  N          9.0780  -23.8540  -22.9010 N.3   287  ASP287     -0.1239
    165  CA         8.8880  -23.8140  -24.3580 C.3   287  ASP287      0.1674
    166  C          9.7430  -22.7080  -24.9570 C.2   287  ASP287      0.2266
    167  O         10.7230  -22.2650  -24.3340 O.2   287  ASP287     -0.2867
    168  CB         7.3950  -23.8980  -24.8070 C.3   287  ASP287      0.1410
    169  CG         6.6010  -22.6080  -24.6120 C.2   287  ASP287      0.3668
    170  OD1        5.4750  -22.5040  -25.1880 O.co2 287  ASP287     -0.2456
    171  OD2        7.0570  -21.7030  -23.9080 O.co2 287  ASP287     -0.2456
    172  N         10.9030  -21.0450  -19.0640 N.3   312  GLN312     -0.1245
    173  CA        10.2040  -20.3120  -18.0270 C.3   312  GLN312      0.1566
    174  C         10.7650  -20.6650  -16.6540 C.2   312  GLN312      0.2260
    175  O         10.8620  -19.8020  -15.7690 O.2   312  GLN312     -0.2867
    176  CB         8.7060  -20.6270  -18.0740 C.3   312  GLN312      0.0367
    177  CG         7.9540  -19.9080  -19.2030 C.3   312  GLN312      0.0905
    178  CD         7.9680  -20.6390  -20.5490 C.2   312  GLN312      0.2608
    179  OE1        8.6890  -21.6290  -20.7500 O.2   312  GLN312     -0.2717
    180  NE2        7.1540  -20.1440  -21.4880 N.am  312  GLN312     -0.0878
    181  N          9.0850  -30.3740  -21.9570 N.3   385  ILE385     -0.1231
    182  CA         8.4080  -29.0720  -22.0790 C.3   385  ILE385      0.1692
    183  C          7.6760  -28.7700  -20.7710 C.2   385  ILE385      0.2591
    184  O          7.6520  -27.6210  -20.3110 O.2   385  ILE385     -0.2718
    185  CB         7.4590  -29.0420  -23.2980 C.3   385  ILE385      0.0266
    186  CG1        8.2900  -29.1110  -24.5760 C.3   385  ILE385      0.0019
    187  CG2        6.6150  -27.7470  -23.3210 C.3   385  ILE385      0.0020
    188  CD1        7.4770  -29.4630  -25.8050 C.3   385  ILE385      0.0001
    189  N          7.0670  -29.7970  -20.1840 N.am  386  VAL386     -0.1980
    190  CA         6.5600  -29.6800  -18.8130 C.3   386  VAL386      0.1595
    191  C          7.2520  -30.7840  -18.0010 C.2   386  VAL386      0.2287
    192  O          6.9480  -31.9830  -18.1530 O.2   386  VAL386     -0.2864
    193  CB         5.0180  -29.8030  -18.7320 C.3   386  VAL386      0.0276
    194  CG1        4.5350  -29.5490  -17.3070 C.3   386  VAL386      0.0022
    195  CG2        4.3620  -28.7970  -19.6810 C.3   386  VAL386      0.0022
@<TRIPOS>BOND
     1    47    44    1
     2    47    48    1
     3   119   117    1
     4    44    43    1
     5    44    45    1
     6    51    49   ar
     7    46    45    2
     8   118   117    1
     9    50    49   ar
    10    49    48    1
    11   117   114    1
    12    45    52   am
    13    24    23    2
    14    57    58    1
    15    60    59    2
    16    52    53    1
    17    23    22    1
    18    22    21    1
    19    59    58    1
    20   114   113    1
    21   114   115    1
    22    58    61    1
    23    55    54    2
    24    54    53    1
    25    53    56    1
    26   115   120   am
    27   115   116    2
    28   122   123    2
    29   122   121    1
    30    38    39    2
    31    38    37    1
    32   120   121    1
    33    21    15   am
    34   126   128   ar
    35   126   125   ar
    36    61    62    1
    37   121   124    1
    38    40    37    1
    39    40    41    1
    40   128   130   ar
    41   124   125    1
    42    69    70    1
    43    16    15    2
    44    37    36    1
    45    15    14    1
    46    41    42    1
    47   112   111    2
    48   125   127   ar
    49    28    27    2
    50    72    71    2
    51    62    63   ar
    52    62    64   ar
    53    70    71    1
    54    70    73    1
    55    63    65   ar
    56   130   129   ar
    57    14    13    1
    58    14    17    1
    59    36    42    1
    60   111   110    1
    61   127   129   ar
    62    27    26    1
    63    25    26    1
    64    64    66   ar
    65    75    77   ar
    66    75    74   ar
    67    77    79   ar
    68    65    67   ar
    69    82    83    2
    70    82    81    1
    71    26    29    1
    72    73    74    1
    73    29    30    1
    74   110   109    1
    75    17    18    1
    76    74    76   ar
    77    32    30   ar
    78    32    34   ar
    79    66    67   ar
    80    94    93    1
    81    30    31   ar
    82    67    68    1
    83    80    81    1
    84    79    78   ar
    85    34    35   ar
    86    81    84    1
    87    19    18    2
    88    18    20   am
    89    85    84    1
    90    76    78   ar
    91    31    33   ar
    92    93    92    1
    93    84    86    1
    94    92    91    1
    95    35    33   ar
    96    91    88    1
    97   106   107    1
    98   106   103    1
    99    88    87    1
   100    88    89    1
   101   131   132    1
   102    12    11    1
   103    90    89    2
   104    10    11   ar
   105    10     8   ar
   106   135   132    1
   107   135   136    1
   108   107   108    1
   109   188   186    1
   110    89    95   am
   111    11     9   ar
   112   103   104    1
   113   103   102    1
   114     8     6   ar
   115   132   133    1
   116   138   136    1
   117   104   105    2
   118   170   169   ar
   119   166   165    1
   120   166   167    2
   121   136   137    1
   122   168   169    1
   123   168   165    1
   124   108   102    1
   125   169   171   ar
   126     9     7   ar
   127   186   185    1
   128     6     7   ar
   129     6     5    1
   130   165   164    1
   131    95    96    1
   132   144   143    1
   133   133   134    2
   134   145   143    1
   135     5     2    1
   136    96    97    1
   137    96    99    1
   138   187   185    1
   139   185   182    1
   140   143   140    1
   141   101    99    1
   142    97    98    2
   143     1     2    1
   144    99   100    1
   145     2     3    1
   146   139   140    1
   147   182   181    1
   148   182   183    1
   149   140   141    1
   150     3     4    2
   151   180   178   am
   152   146   141   am
   153   146   147    1
   154   141   142    2
   155   183   184    2
   156   183   189   am
   157   179   178    2
   158   147   148    1
   159   178   177    1
   160   189   190    1
   161   162   161    1
   162   195   193    1
   163   177   176    1
   164   148   149    2
   165   172   173    1
   166   159   160    2
   167   159   158    1
   168   190   193    1
   169   190   191    1
   170   193   194    1
   171   161   158    1
   172   161   163    1
   173   192   191    2
   174   158   157    1
   175   176   173    1
   176   173   174    1
   177   156   154    1
   178   174   175    2
   179   150   151    1
   180   155   154    1
   181   154   151    1
   182   151   152    1
   183   152   153    2
