@<TRIPOS>MOLECULE
tmp/3p6oA01.pdb
 197 185 0 0 0
SMALL
GASTEIGER

@<TRIPOS>ATOM
      1  N         15.3150  -33.2080  -22.9800 N.3    20  TYR20      -0.1241
      2  CA        14.4800  -34.3820  -22.7390 C.3    20  TYR20       0.1605
      3  C         15.1530  -35.4450  -21.8810 C.2    20  TYR20       0.2264
      4  O         14.4800  -36.3200  -21.3510 O.2    20  TYR20      -0.2867
      5  CB        13.9660  -34.9690  -24.0560 C.3    20  TYR20       0.0534
      6  CG        12.9440  -34.0790  -24.7100 C.ar   20  TYR20      -0.0201
      7  CD1       11.6390  -34.0310  -24.2330 C.ar   20  TYR20      -0.0009
      8  CD2       13.2840  -33.2690  -25.7960 C.ar   20  TYR20      -0.0009
      9  CE1       10.6980  -33.2190  -24.8150 C.ar   20  TYR20       0.0417
     10  CE2       12.3450  -32.4290  -26.3760 C.ar   20  TYR20       0.0417
     11  CZ        11.0550  -32.4170  -25.8800 C.ar   20  TYR20       0.1957
     12  OH        10.1140  -31.5980  -26.4360 O.3    20  TYR20      -0.2866
     13  N         18.6530  -32.6220  -29.9400 N.3    50  ASN50      -0.1225
     14  CA        17.2530  -32.4340  -30.3510 C.3    50  ASN50       0.1785
     15  C         17.0840  -31.5860  -31.6070 C.2    50  ASN50       0.2597
     16  O         16.1340  -30.8080  -31.6880 O.2    50  ASN50      -0.2718
     17  CB        16.4250  -31.8440  -29.1910 C.3    50  ASN50       0.1169
     18  CG        16.4040  -32.7490  -27.9690 C.2    50  ASN50       0.2627
     19  OD1       16.8430  -32.3660  -26.8800 O.2    50  ASN50      -0.2716
     20  ND2       15.9180  -33.9590  -28.1460 N.am   50  ASN50      -0.0877
     21  N         17.9980  -31.7480  -32.5710 N.am   51  GLY51      -0.1957
     22  CA        17.9730  -31.0130  -33.8550 C.3    51  GLY51       0.1869
     23  C         18.8280  -29.7510  -33.8840 C.2    51  GLY51       0.2309
     24  O         19.1120  -29.1970  -34.9500 O.2    51  GLY51      -0.2863
     25  N          7.8040  -25.3180  -29.9880 N.3    78  PHE78      -0.1241
     26  CA         8.3460  -26.5270  -29.3560 C.3    78  PHE78       0.1605
     27  C          9.5790  -27.1020  -30.0330 C.2    78  PHE78       0.2264
     28  O          9.7320  -27.0400  -31.2520 O.2    78  PHE78      -0.2867
     29  CB         7.2910  -27.6330  -29.2650 C.3    78  PHE78       0.0534
     30  CG         6.0600  -27.2460  -28.5140 C.ar   78  PHE78      -0.0203
     31  CD1        6.1240  -26.3850  -27.4130 C.ar   78  PHE78      -0.0042
     32  CD2        4.8330  -27.7690  -28.8800 C.ar   78  PHE78      -0.0042
     33  CE1        4.9880  -26.0410  -26.7170 C.ar   78  PHE78      -0.0003
     34  CE2        3.6900  -27.4290  -28.1780 C.ar   78  PHE78      -0.0003
     35  CZ         3.7680  -26.5570  -27.1020 C.ar   78  PHE78      -0.0000
     36  N         11.3840  -30.7820  -30.4440 N.3    80  PRO80      -0.2116
     37  CA        12.0390  -30.5210  -31.7310 C.3    80  PRO80       0.1372
     38  C         11.1240  -29.8440  -32.7320 C.2    80  PRO80       0.2244
     39  O          9.9000  -29.8120  -32.5450 O.2    80  PRO80      -0.2868
     40  CB        12.4050  -31.9210  -32.2300 C.3    80  PRO80       0.0268
     41  CG        11.2940  -32.7910  -31.6900 C.3    80  PRO80       0.0207
     42  CD        10.8820  -32.1690  -30.3550 C.3    80  PRO80       0.0892
     43  N          9.8380  -30.4660  -35.6020 N.3    82  GLU82      -0.1231
     44  CA         8.6990  -31.2190  -36.1770 C.3    82  GLU82       0.1699
     45  C          7.4530  -31.1550  -35.2840 C.2    82  GLU82       0.2592
     46  O          6.3350  -31.0100  -35.7850 O.2    82  GLU82      -0.2718
     47  CB         9.0810  -32.6800  -36.4610 C.3    82  GLU82       0.0402
     48  CG        10.0830  -32.8850  -37.6260 C.3    82  GLU82       0.1161
     49  CD        11.5030  -32.3440  -37.3470 C.2    82  GLU82       0.3649
     50  OE1       12.1080  -31.7850  -38.2960 O.co2  82  GLU82      -0.2457
     51  OE2       12.0020  -32.4700  -36.1950 O.co2  82  GLU82      -0.2457
     52  N          7.6550  -31.2440  -33.9700 N.am   83  ALA83      -0.1980
     53  CA         6.5870  -31.0090  -33.0030 C.3    83  ALA83       0.1597
     54  C          6.1110  -29.5540  -33.0460 C.2    83  ALA83       0.2287
     55  O          4.9140  -29.2890  -33.0650 O.2    83  ALA83      -0.2864
     56  CB         7.0400  -31.3870  -31.5920 C.3    83  ALA83       0.0319
     57  N          2.0890  -28.0970  -34.3730 N.3    87  TYR87      -0.1241
     58  CA         1.2840  -27.5720  -33.2720 C.3    87  TYR87       0.1605
     59  C          0.5130  -26.3160  -33.6720 C.2    87  TYR87       0.2264
     60  O          1.1070  -25.3230  -34.1070 O.2    87  TYR87      -0.2867
     61  CB         2.2150  -27.2800  -32.1160 C.3    87  TYR87       0.0534
     62  CG         1.5960  -26.6950  -30.8780 C.ar   87  TYR87      -0.0201
     63  CD1        1.7220  -25.3340  -30.5940 C.ar   87  TYR87      -0.0009
     64  CD2        0.9450  -27.5130  -29.9520 C.ar   87  TYR87      -0.0009
     65  CE1        1.1890  -24.7980  -29.4140 C.ar   87  TYR87       0.0417
     66  CE2        0.4150  -26.9960  -28.7890 C.ar   87  TYR87       0.0417
     67  CZ         0.5410  -25.6450  -28.5230 C.ar   87  TYR87       0.1957
     68  OH         0.0140  -25.1420  -27.3640 O.3    87  TYR87      -0.2866
     69  N         -2.4840  -25.1520  -31.6710 N.3    89  PHE89      -0.1241
     70  CA        -3.3900  -24.7080  -30.6030 C.3    89  PHE89       0.1605
     71  C         -3.4930  -23.1860  -30.5790 C.2    89  PHE89       0.2264
     72  O         -2.5460  -22.4900  -30.9250 O.2    89  PHE89      -0.2867
     73  CB        -2.9040  -25.1820  -29.2270 C.3    89  PHE89       0.0534
     74  CG        -3.3010  -26.5960  -28.8720 C.ar   89  PHE89      -0.0203
     75  CD1       -4.2320  -27.3000  -29.6300 C.ar   89  PHE89      -0.0042
     76  CD2       -2.7700  -27.2030  -27.7390 C.ar   89  PHE89      -0.0042
     77  CE1       -4.6070  -28.6040  -29.2830 C.ar   89  PHE89      -0.0003
     78  CE2       -3.1370  -28.4930  -27.3870 C.ar   89  PHE89      -0.0003
     79  CZ        -4.0540  -29.1970  -28.1650 C.ar   89  PHE89      -0.0000
     80  N         -1.6560  -20.2360  -28.2700 N.3    92  THR92      -0.1218
     81  CA        -0.2130  -20.4830  -28.0970 C.3    92  THR92       0.1862
     82  C          0.6360  -20.5680  -29.3790 C.2    92  THR92       0.2287
     83  O          1.8490  -20.3680  -29.3190 O.2    92  THR92      -0.2866
     84  CB         0.0780  -21.7350  -27.2190 C.3    92  THR92       0.1770
     85  OG1       -0.7920  -22.8110  -27.5910 O.3    92  THR92      -0.2211
     86  CG2       -0.1250  -21.4260  -25.7520 C.3    92  THR92       0.0375
     87  N         -0.9900  -37.7340  -26.0160 N.3   175  MET175     -0.1230
     88  CA        -0.3900  -36.5400  -26.5790 C.3   175  MET175      0.1702
     89  C          0.8600  -36.0650  -25.8220 C.2   175  MET175      0.2593
     90  O          1.8460  -35.6780  -26.4410 O.2   175  MET175     -0.2718
     91  CB        -1.4460  -35.4440  -26.6470 C.3   175  MET175      0.0401
     92  CG        -0.9810  -34.1680  -27.2890 C.3   175  MET175      0.0596
     93  SD        -2.3850  -33.1500  -27.7360 S.3   175  MET175     -0.1393
     94  CE        -1.8720  -31.6210  -26.9910 C.3   175  MET175      0.0692
     95  N          0.8220  -36.1130  -24.4930 N.am  176  THR176     -0.1953
     96  CA         1.8420  -35.4590  -23.6590 C.3   176  THR176      0.1897
     97  C          2.8040  -36.4250  -22.9850 C.2   176  THR176      0.2313
     98  O          3.8250  -36.0100  -22.4390 O.2   176  THR176     -0.2863
     99  CB         1.2100  -34.5930  -22.5530 C.3   176  THR176      0.1794
    100  OG1        0.3860  -35.4120  -21.7200 O.3   176  THR176     -0.2208
    101  CG2        0.3750  -33.4720  -23.1490 C.3   176  THR176      0.0378
    102  N          4.5280  -39.3180  -24.5570 N.3   178  PRO178     -0.2116
    103  CA         4.7640  -40.1570  -25.7250 C.3   178  PRO178      0.1372
    104  C          5.6740  -41.3430  -25.4030 C.2   178  PRO178      0.2244
    105  O          6.7530  -41.1710  -24.8320 O.2   178  PRO178     -0.2868
    106  CB         5.4380  -39.2030  -26.7170 C.3   178  PRO178      0.0268
    107  CG         6.1400  -38.1970  -25.8600 C.3   178  PRO178      0.0207
    108  CD         5.4300  -38.1470  -24.5230 C.3   178  PRO178      0.0892
    109  N          3.2710  -40.0120  -33.7700 N.3   183  THR183     -0.1203
    110  CA         3.8090  -38.6420  -33.8610 C.3   183  THR183      0.1994
    111  C          2.9270  -37.6550  -33.0930 C.2   183  THR183      0.2617
    112  O          1.7580  -37.9480  -32.8050 O.2   183  THR183     -0.2717
    113  CB         3.9810  -38.1370  -35.3350 C.3   183  THR183      0.1784
    114  OG1        2.7060  -38.0820  -35.9920 O.3   183  THR183     -0.2211
    115  CG2        4.9490  -39.0220  -36.1310 C.3   183  THR183      0.0376
    116  N          3.4910  -36.4940  -32.7670 N.am  184  PHE184     -0.1975
    117  CA         2.7480  -35.4260  -32.0970 C.3   184  PHE184      0.1639
    118  C          1.4570  -35.0800  -32.8540 C.2   184  PHE184      0.2290
    119  O          0.3710  -35.0160  -32.2550 O.2   184  PHE184     -0.2864
    120  CB         3.6200  -34.1780  -31.9190 C.3   184  PHE184      0.0560
    121  CG         2.9100  -33.0370  -31.2390 C.ar  184  PHE184     -0.0200
    122  CD1        2.2680  -32.0510  -31.9880 C.ar  184  PHE184     -0.0042
    123  CD2        2.8660  -32.9590  -29.8490 C.ar  184  PHE184     -0.0042
    124  CE1        1.6000  -31.0040  -31.3620 C.ar  184  PHE184     -0.0003
    125  CE2        2.2000  -31.9100  -29.2090 C.ar  184  PHE184     -0.0003
    126  CZ         1.5670  -30.9330  -29.9660 C.ar  184  PHE184     -0.0000
    127  N         -6.4110  -26.5450  -26.3830 N.3   235  LEU235     -0.1245
    128  CA        -5.4610  -25.9220  -25.4510 C.3   235  LEU235      0.1561
    129  C         -6.0430  -25.6620  -24.0450 C.2   235  LEU235      0.2260
    130  O         -5.3620  -25.8680  -23.0370 O.2   235  LEU235     -0.2867
    131  CB        -4.8630  -24.6360  -26.0340 C.3   235  LEU235      0.0270
    132  CG        -3.9960  -23.8200  -25.0540 C.3   235  LEU235      0.0019
    133  CD1       -2.6830  -24.5250  -24.7630 C.3   235  LEU235      0.0001
    134  CD2       -3.7340  -22.4450  -25.5770 C.3   235  LEU235      0.0001
    135  N         -5.6910  -29.1870  -22.3720 N.3   238  VAL238     -0.1231
    136  CA        -4.3780  -29.6850  -22.0030 C.3   238  VAL238      0.1692
    137  C         -3.5310  -28.7170  -21.1680 C.2   238  VAL238      0.2592
    138  O         -2.6690  -29.1590  -20.4060 O.2   238  VAL238     -0.2718
    139  CB        -3.5760  -30.1460  -23.2330 C.3   238  VAL238      0.0266
    140  CG1       -4.4410  -31.0580  -24.1190 C.3   238  VAL238      0.0020
    141  CG2       -3.0360  -28.9520  -23.9760 C.3   238  VAL238      0.0020
    142  N         -3.7800  -27.4140  -21.3190 N.am  239  GLY239     -0.1957
    143  CA        -2.9600  -26.3750  -20.6830 C.3   239  GLY239      0.1869
    144  C         -2.9020  -26.4990  -19.1750 C.2   239  GLY239      0.2309
    145  O         -1.8610  -26.2420  -18.5630 O.2   239  GLY239     -0.2863
    146  N          0.7790  -29.4890  -16.3630 N.3   243  THR243     -0.1218
    147  CA         1.3080  -28.3930  -15.5550 C.3   243  THR243      0.1862
    148  C          0.8690  -28.5110  -14.1000 C.2   243  THR243      0.2287
    149  O          1.7050  -28.5220  -13.2150 O.2   243  THR243     -0.2866
    150  CB         0.9260  -27.0050  -16.1120 C.3   243  THR243      0.1770
    151  OG1       -0.4920  -26.9250  -16.2860 O.3   243  THR243     -0.2211
    152  CG2        1.6540  -26.7310  -17.4340 C.3   243  THR243      0.0375
    153  N          7.9950  -25.4340  -16.6910 N.3   286  VAL286     -0.1245
    154  CA         7.7190  -25.3350  -18.1500 C.3   286  VAL286      0.1561
    155  C          8.9500  -24.8480  -18.9240 C.2   286  VAL286      0.2260
    156  O          9.6930  -23.9750  -18.4410 O.2   286  VAL286     -0.2867
    157  CB         6.4830  -24.4410  -18.4500 C.3   286  VAL286      0.0252
    158  CG1        6.1890  -24.3460  -19.9670 C.3   286  VAL286      0.0019
    159  CG2        5.2410  -24.9780  -17.7030 C.3   286  VAL286      0.0019
    160  N          9.0840  -23.9440  -23.0030 N.3   288  ASP288     -0.1239
    161  CA         8.9000  -23.9050  -24.4390 C.3   288  ASP288      0.1674
    162  C          9.7670  -22.8080  -25.0290 C.2   288  ASP288      0.2266
    163  O         10.7460  -22.3740  -24.4000 O.2   288  ASP288     -0.2867
    164  CB         7.4140  -23.9310  -24.8850 C.3   288  ASP288      0.1410
    165  CG         6.6690  -22.6340  -24.6340 C.2   288  ASP288      0.3668
    166  OD1        5.5580  -22.5190  -25.2010 O.co2 288  ASP288     -0.2456
    167  OD2        7.1490  -21.7400  -23.8960 O.co2 288  ASP288     -0.2456
    168  N         10.8720  -21.0480  -19.1130 N.3   313  GLN313     -0.1245
    169  CA        10.1590  -20.3470  -18.0630 C.3   313  GLN313      0.1566
    170  C         10.7150  -20.7540  -16.6790 C.2   313  GLN313      0.2260
    171  O         10.7810  -19.9340  -15.7700 O.2   313  GLN313     -0.2867
    172  CB         8.6510  -20.6330  -18.1330 C.3   313  GLN313      0.0367
    173  CG         7.9270  -19.9130  -19.2570 C.3   313  GLN313      0.0905
    174  CD         7.9700  -20.6580  -20.5880 C.2   313  GLN313      0.2608
    175  OE1        8.7020  -21.6480  -20.7540 O.2   313  GLN313     -0.2717
    176  NE2        7.1860  -20.1690  -21.5540 N.am  313  GLN313     -0.0878
    177  N          0.3890  -17.0230  -18.9150 N.3   348  CYS348     -0.1235
    178  CA        -0.6600  -18.0210  -18.6470 C.3   348  CYS348      0.1677
    179  C         -2.0070  -17.3710  -18.3440 C.2   348  CYS348      0.2270
    180  O         -2.1120  -16.5380  -17.4470 O.2   348  CYS348     -0.2867
    181  CB        -0.2500  -18.9320  -17.4920 C.3   348  CYS348      0.0956
    182  SG        -1.4470  -20.1940  -17.1370 S.3   348  CYS348     -0.0801
    183  N          9.1150  -30.3860  -22.0750 N.3   386  ILE386     -0.1231
    184  CA         8.4120  -29.1070  -22.2080 C.3   386  ILE386      0.1692
    185  C          7.6880  -28.8030  -20.9070 C.2   386  ILE386      0.2591
    186  O          7.6320  -27.6540  -20.4820 O.2   386  ILE386     -0.2718
    187  CB         7.4100  -29.0910  -23.3890 C.3   386  ILE386      0.0266
    188  CG1        8.1840  -29.1150  -24.7130 C.3   386  ILE386      0.0019
    189  CG2        6.5270  -27.8170  -23.3480 C.3   386  ILE386      0.0020
    190  CD1        7.3920  -29.5700  -25.8880 C.3   386  ILE386      0.0001
    191  N          7.1270  -29.8370  -20.2980 N.am  387  VAL387     -0.1980
    192  CA         6.5930  -29.7320  -18.9540 C.3   387  VAL387      0.1595
    193  C          7.2790  -30.8190  -18.1370 C.2   387  VAL387      0.2287
    194  O          6.9460  -32.0000  -18.2670 O.2   387  VAL387     -0.2864
    195  CB         5.0710  -29.9270  -18.9120 C.3   387  VAL387      0.0276
    196  CG1        4.5460  -29.6310  -17.5080 C.3   387  VAL387      0.0022
    197  CG2        4.3760  -29.0150  -19.9470 C.3   387  VAL387      0.0022
@<TRIPOS>BOND
     1    50    49   ar
     2    48    49    1
     3    48    47    1
     4    49    51   ar
     5    47    44    1
     6    44    43    1
     7    44    45    1
     8   115   113    1
     9   114   113    1
    10    46    45    2
    11   113   110    1
    12    45    52   am
    13    24    23    2
    14    57    58    1
    15    60    59    2
    16    52    53    1
    17    23    22    1
    18   110   109    1
    19   110   111    1
    20    22    21    1
    21    59    58    1
    22    58    61    1
    23   111   112    2
    24   111   116   am
    25    55    54    2
    26    54    53    1
    27    53    56    1
    28   118   119    2
    29   118   117    1
    30   116   117    1
    31    38    39    2
    32    38    37    1
    33    21    15   am
    34    40    37    1
    35    40    41    1
    36    61    62    1
    37   117   120    1
    38   122   124   ar
    39   122   121   ar
    40   120   121    1
    41    37    36    1
    42    41    42    1
    43    16    15    2
    44    69    70    1
    45    15    14    1
    46   124   126   ar
    47    28    27    2
    48   121   123   ar
    49    72    71    2
    50    62    63   ar
    51    62    64   ar
    52    70    71    1
    53    70    73    1
    54    63    65   ar
    55    36    42    1
    56    14    13    1
    57    14    17    1
    58    27    26    1
    59    25    26    1
    60   126   125   ar
    61    64    66   ar
    62   123   125   ar
    63    75    77   ar
    64    75    74   ar
    65    65    67   ar
    66    82    83    2
    67    82    81    1
    68    26    29    1
    69    77    79   ar
    70    29    30    1
    71    73    74    1
    72    17    18    1
    73    32    30   ar
    74    32    34   ar
    75    74    76   ar
    76    66    67   ar
    77    67    68    1
    78    30    31   ar
    79    80    81    1
    80    34    35   ar
    81    79    78   ar
    82    20    18   am
    83    81    84    1
    84    18    19    2
    85    76    78   ar
    86    93    92    1
    87    93    94    1
    88    85    84    1
    89    31    33   ar
    90    92    91    1
    91    84    86    1
    92    35    33   ar
    93   106   107    1
    94   106   103    1
    95    91    88    1
    96    88    87    1
    97    88    89    1
    98    90    89    2
    99    12    11    1
   100   127   128    1
   101    10    11   ar
   102    10     8   ar
   103   131   128    1
   104   131   132    1
   105   190   188    1
   106    11     9   ar
   107   107   108    1
   108    89    95   am
   109     8     6   ar
   110   103   104    1
   111   103   102    1
   112   134   132    1
   113   128   129    1
   114   104   105    2
   115   166   165   ar
   116   132   133    1
   117   162   161    1
   118   162   163    2
   119   164   165    1
   120   164   161    1
   121     9     7   ar
   122   188   187    1
   123     6     7   ar
   124     6     5    1
   125   165   167   ar
   126   102   108    1
   127    95    96    1
   128   161   160    1
   129   140   139    1
   130     5     2    1
   131   129   130    2
   132   141   139    1
   133    96    97    1
   134    96    99    1
   135   187   189    1
   136   187   184    1
   137   139   136    1
   138   101    99    1
   139    97    98    2
   140     1     2    1
   141     2     3    1
   142    99   100    1
   143   135   136    1
   144   184   183    1
   145   184   185    1
   146   136   137    1
   147     3     4    2
   148   176   174   am
   149   142   137   am
   150   142   143    1
   151   137   138    2
   152   185   186    2
   153   185   191   am
   154   175   174    2
   155   143   144    1
   156   174   173    1
   157   191   192    1
   158   158   157    1
   159   197   195    1
   160   173   172    1
   161   144   145    2
   162   168   169    1
   163   192   195    1
   164   192   193    1
   165   155   156    2
   166   155   154    1
   167   177   178    1
   168   195   196    1
   169   178   179    1
   170   178   181    1
   171   157   154    1
   172   157   159    1
   173   179   180    2
   174   194   193    2
   175   154   153    1
   176   172   169    1
   177   169   170    1
   178   181   182    1
   179   152   150    1
   180   170   171    2
   181   146   147    1
   182   151   150    1
   183   150   147    1
   184   147   148    1
   185   148   149    2
