@<TRIPOS>MOLECULE
tmp/3p6pA01.pdb
 179 169 0 0 0
SMALL
GASTEIGER

@<TRIPOS>ATOM
      1  N        -15.1960  -33.2520   23.0290 N.3    22  TYR22      -0.1241
      2  CA       -14.3810  -34.4540   22.7620 C.3    22  TYR22       0.1605
      3  C        -15.0830  -35.4960   21.9020 C.2    22  TYR22       0.2264
      4  O        -14.4470  -36.4180   21.4000 O.2    22  TYR22      -0.2867
      5  CB       -13.8450  -35.0830   24.0550 C.3    22  TYR22       0.0534
      6  CG       -12.8680  -34.1640   24.7480 C.ar   22  TYR22      -0.0201
      7  CD1      -11.5930  -33.9680   24.2250 C.ar   22  TYR22      -0.0009
      8  CD2      -13.2330  -33.4600   25.9010 C.ar   22  TYR22      -0.0009
      9  CE1      -10.6970  -33.0950   24.8330 C.ar   22  TYR22       0.0417
     10  CE2      -12.3490  -32.5830   26.5140 C.ar   22  TYR22       0.0417
     11  CZ       -11.0780  -32.4150   25.9640 C.ar   22  TYR22       0.1957
     12  OH       -10.1900  -31.5650   26.5610 O.3    22  TYR22      -0.2866
     13  N        -18.5760  -32.6780   30.1330 N.3    52  ASN52      -0.1240
     14  CA       -17.1920  -32.4700   30.5600 C.3    52  ASN52       0.1653
     15  C        -17.0920  -31.5700   31.7950 C.2    52  ASN52       0.2266
     16  O        -16.2070  -30.7260   31.8940 O.2    52  ASN52      -0.2867
     17  CB       -16.3710  -31.9120   29.3800 C.3    52  ASN52       0.1155
     18  CG       -16.3780  -32.8440   28.1660 C.2    52  ASN52       0.2627
     19  OD1      -16.9330  -32.5160   27.1000 O.2    52  ASN52      -0.2716
     20  ND2      -15.7770  -34.0090   28.3200 N.am   52  ASN52      -0.0877
     21  N         -7.8360  -25.3880   30.0440 N.3    80  PHE80      -0.1227
     22  CA        -8.4140  -26.5720   29.4310 C.3    80  PHE80       0.1736
     23  C         -9.6180  -27.0900   30.1750 C.2    80  PHE80       0.2595
     24  O         -9.7240  -26.9500   31.3870 O.2    80  PHE80      -0.2718
     25  CB        -7.4070  -27.7250   29.3600 C.3    80  PHE80       0.0547
     26  CG        -6.1920  -27.4360   28.5490 C.ar   80  PHE80      -0.0202
     27  CD1       -6.2110  -26.5040   27.5030 C.ar   80  PHE80      -0.0042
     28  CD2       -5.0250  -28.1230   28.8130 C.ar   80  PHE80      -0.0042
     29  CE1       -5.0810  -26.2600   26.7390 C.ar   80  PHE80      -0.0003
     30  CE2       -3.8900  -27.8950   28.0470 C.ar   80  PHE80      -0.0003
     31  CZ        -3.9150  -26.9510   27.0140 C.ar   80  PHE80      -0.0000
     32  N        -10.5100  -27.6910   29.4060 N.am   81  ILE81      -0.1966
     33  CA       -11.6240  -28.4640   29.8960 C.3    81  ILE81       0.1712
     34  C        -11.2320  -29.9350   29.6610 C.2    81  ILE81       0.2458
     35  O        -10.7150  -30.2620   28.5930 O.2    81  ILE81      -0.2730
     36  CB       -12.8860  -28.0760   29.1050 C.3    81  ILE81       0.0289
     37  CG1      -13.4680  -26.7950   29.7020 C.3    81  ILE81       0.0022
     38  CG2      -13.9360  -29.1740   29.1630 C.3    81  ILE81       0.0023
     39  CD1      -13.8610  -25.8030   28.6850 C.3    81  ILE81       0.0001
     40  N        -11.4540  -30.8250   30.6520 N.am   82  PRO82      -0.2727
     41  CA       -12.1230  -30.5990   31.9260 C.3    82  PRO82       0.1402
     42  C        -11.2200  -29.8870   32.9480 C.2    82  PRO82       0.2269
     43  O        -10.0020  -29.8020   32.7570 O.2    82  PRO82      -0.2865
     44  CB       -12.4720  -32.0160   32.3850 C.3    82  PRO82       0.0296
     45  CG       -11.3900  -32.8570   31.8290 C.3    82  PRO82       0.0237
     46  CD       -10.9040  -32.1970   30.5660 C.3    82  PRO82       0.0939
     47  N         -7.7380  -31.2090   34.1270 N.3    85  ALA85      -0.1245
     48  CA        -6.6690  -31.0360   33.1500 C.3    85  ALA85       0.1562
     49  C         -6.1600  -29.5790   33.1190 C.2    85  ALA85       0.2260
     50  O         -4.9570  -29.3330   33.0610 O.2    85  ALA85      -0.2867
     51  CB        -7.1450  -31.4850   31.7680 C.3    85  ALA85       0.0290
     52  N         -2.3110  -28.2210   34.2900 N.3    89  TYR89      -0.1241
     53  CA        -1.5340  -27.6240   33.2020 C.3    89  TYR89       0.1605
     54  C         -0.6720  -26.4560   33.6620 C.2    89  TYR89       0.2264
     55  O         -1.1930  -25.4410   34.1680 O.2    89  TYR89      -0.2867
     56  CB        -2.5040  -27.1470   32.1380 C.3    89  TYR89       0.0534
     57  CG        -1.8640  -26.6450   30.8820 C.ar   89  TYR89      -0.0201
     58  CD1       -1.8620  -25.2860   30.5800 C.ar   89  TYR89      -0.0009
     59  CD2       -1.2990  -27.5360   29.9630 C.ar   89  TYR89      -0.0009
     60  CE1       -1.3010  -24.8180   29.3940 C.ar   89  TYR89       0.0417
     61  CE2       -0.7300  -27.0830   28.7800 C.ar   89  TYR89       0.0417
     62  CZ        -0.7410  -25.7320   28.5030 C.ar   89  TYR89       0.1957
     63  OH        -0.1780  -25.2870   27.3380 O.3    89  TYR89      -0.2866
     64  N          2.3750  -25.3250   31.6450 N.3    91  PHE91      -0.1241
     65  CA         3.2740  -24.8040   30.5860 C.3    91  PHE91       0.1605
     66  C          3.3480  -23.2780   30.5570 C.2    91  PHE91       0.2264
     67  O          2.3720  -22.5850   30.8690 O.2    91  PHE91      -0.2867
     68  CB         2.8460  -25.2830   29.1870 C.3    91  PHE91       0.0534
     69  CG         3.2000  -26.7280   28.8760 C.ar   91  PHE91      -0.0203
     70  CD1        3.9930  -27.4790   29.7200 C.ar   91  PHE91      -0.0042
     71  CD2        2.7490  -27.3130   27.6990 C.ar   91  PHE91      -0.0042
     72  CE1        4.3090  -28.8140   29.4180 C.ar   91  PHE91      -0.0003
     73  CE2        3.0740  -28.6400   27.3830 C.ar   91  PHE91      -0.0003
     74  CZ         3.8520  -29.3860   28.2390 C.ar   91  PHE91      -0.0000
     75  N          1.6200  -20.2220   28.3060 N.3    94  THR94      -0.1218
     76  CA         0.1740  -20.4760   28.1190 C.3    94  THR94       0.1862
     77  C         -0.6560  -20.6220   29.4120 C.2    94  THR94       0.2287
     78  O         -1.8860  -20.4720   29.3720 O.2    94  THR94      -0.2866
     79  CB        -0.0690  -21.7360   27.2490 C.3    94  THR94       0.1770
     80  OG1        0.7810  -22.7980   27.7040 O.3    94  THR94      -0.2211
     81  CG2        0.2600  -21.4640   25.8040 C.3    94  THR94       0.0375
     82  N          0.9120  -37.6020   25.6690 N.3   177  MET177     -0.1230
     83  CA         0.2600  -36.4520   26.2650 C.3   177  MET177      0.1702
     84  C         -0.9110  -35.9840   25.4090 C.2   177  MET177      0.2593
     85  O         -2.0040  -35.7170   25.9170 O.2   177  MET177     -0.2718
     86  CB         1.2780  -35.3260   26.4550 C.3   177  MET177      0.0401
     87  CG         0.7940  -34.1990   27.3530 C.3   177  MET177      0.0596
     88  SD         2.0960  -32.9870   27.6540 S.3   177  MET177     -0.1393
     89  CE         1.4380  -32.1230   29.0730 C.3   177  MET177      0.0692
     90  N         -0.6830  -35.9270   24.1030 N.am  178  THR178     -0.1953
     91  CA        -1.5820  -35.2400   23.1790 C.3   178  THR178      0.1897
     92  C         -2.6300  -36.1470   22.5440 C.2   178  THR178      0.2313
     93  O         -3.6500  -35.6600   22.0470 O.2   178  THR178     -0.2863
     94  CB        -0.7880  -34.5210   22.0740 C.3   178  THR178      0.1794
     95  OG1       -0.1500  -35.4900   21.2320 O.3   178  THR178     -0.2208
     96  CG2        0.2590  -33.5960   22.6880 C.3   178  THR178      0.0378
     97  N         -4.2380  -39.0020   24.3810 N.3   180  PRO180     -0.2116
     98  CA        -4.3600  -39.9410   25.4930 C.3   180  PRO180      0.1372
     99  C         -5.3430  -41.0690   25.1620 C.2   180  PRO180      0.2244
    100  O         -6.4100  -40.8250   24.5690 O.2   180  PRO180     -0.2868
    101  CB        -4.8760  -39.0650   26.6450 C.3   180  PRO180      0.0268
    102  CG        -5.6310  -37.9480   25.9730 C.3   180  PRO180      0.0207
    103  CD        -4.9510  -37.7290   24.6370 C.3   180  PRO180      0.0892
    104  N         -3.3300  -36.8660   32.8240 N.3   186  PHE186     -0.1241
    105  CA        -2.6730  -35.7830   32.1050 C.3   186  PHE186      0.1605
    106  C         -1.3730  -35.3560   32.8020 C.2   186  PHE186      0.2264
    107  O         -0.3350  -35.1890   32.1440 O.2   186  PHE186     -0.2867
    108  CB        -3.6230  -34.5970   31.9010 C.3   186  PHE186      0.0534
    109  CG        -2.9530  -33.3830   31.3120 C.ar  186  PHE186     -0.0203
    110  CD1       -2.2770  -33.4640   30.0930 C.ar  186  PHE186     -0.0042
    111  CD2       -2.9900  -32.1640   31.9820 C.ar  186  PHE186     -0.0042
    112  CE1       -1.6540  -32.3470   29.5530 C.ar  186  PHE186     -0.0003
    113  CE2       -2.3730  -31.0420   31.4520 C.ar  186  PHE186     -0.0003
    114  CZ        -1.7000  -31.1310   30.2330 C.ar  186  PHE186     -0.0000
    115  N          6.3490  -26.5700   26.3610 N.3   237  LEU237     -0.1245
    116  CA         5.4250  -25.9290   25.4280 C.3   237  LEU237      0.1561
    117  C          6.0390  -25.7120   24.0440 C.2   237  LEU237      0.2260
    118  O          5.3860  -25.9270   23.0330 O.2   237  LEU237     -0.2867
    119  CB         4.9090  -24.6040   25.9900 C.3   237  LEU237      0.0270
    120  CG         4.0020  -23.8860   24.9900 C.3   237  LEU237      0.0019
    121  CD1        2.6100  -24.5350   24.9580 C.3   237  LEU237      0.0001
    122  CD2        3.9270  -22.4320   25.3100 C.3   237  LEU237      0.0001
    123  N          5.7560  -29.1770   22.3870 N.3   240  VAL240     -0.1231
    124  CA         4.4350  -29.6200   21.9870 C.3   240  VAL240      0.1692
    125  C          3.6010  -28.6420   21.1320 C.2   240  VAL240      0.2592
    126  O          2.7410  -29.0810   20.3660 O.2   240  VAL240     -0.2718
    127  CB         3.5990  -30.0940   23.1990 C.3   240  VAL240      0.0266
    128  CG1        4.4330  -31.0460   24.0910 C.3   240  VAL240      0.0020
    129  CG2        3.1090  -28.9290   23.9810 C.3   240  VAL240      0.0020
    130  N          3.8460  -27.3380   21.2710 N.am  241  GLY241     -0.1957
    131  CA         2.9900  -26.3050   20.6660 C.3   241  GLY241      0.1869
    132  C          3.0010  -26.3360   19.1530 C.2   241  GLY241      0.2309
    133  O          2.0220  -25.9620   18.4960 O.2   241  GLY241     -0.2863
    134  N         -0.6360  -29.4130   16.4250 N.3   245  THR245     -0.1218
    135  CA        -1.2430  -28.3510   15.5970 C.3   245  THR245      0.1862
    136  C         -0.8200  -28.4820   14.1360 C.2   245  THR245      0.2287
    137  O         -1.6580  -28.5440   13.2450 O.2   245  THR245     -0.2866
    138  CB        -0.9230  -26.9390   16.0750 C.3   245  THR245      0.1770
    139  OG1        0.4800  -26.8350   16.2590 O.3   245  THR245     -0.2211
    140  CG2       -1.6340  -26.6470   17.3990 C.3   245  THR245      0.0375
    141  N         -7.9740  -25.4270   16.7650 N.3   288  VAL288     -0.1245
    142  CA        -7.7340  -25.2830   18.2230 C.3   288  VAL288      0.1561
    143  C         -8.9810  -24.7630   18.9560 C.2   288  VAL288      0.2260
    144  O         -9.7350  -23.9350   18.4460 O.2   288  VAL288     -0.2867
    145  CB        -6.4980  -24.4010   18.5230 C.3   288  VAL288      0.0252
    146  CG1       -6.2380  -24.2390   20.0580 C.3   288  VAL288      0.0019
    147  CG2       -5.2550  -24.9530   17.7780 C.3   288  VAL288      0.0019
    148  N         -9.1210  -23.9510   22.9340 N.3   290  ASP290     -0.1239
    149  CA        -8.9200  -23.8850   24.3740 C.3   290  ASP290      0.1674
    150  C         -9.7640  -22.7940   25.0100 C.2   290  ASP290      0.2266
    151  O        -10.8120  -22.3880   24.4610 O.2   290  ASP290     -0.2867
    152  CB        -7.4340  -23.9400   24.8080 C.3   290  ASP290      0.1410
    153  CG        -6.6870  -22.6130   24.6450 C.2   290  ASP290      0.3668
    154  OD1       -5.5730  -22.5010   25.2200 O.co2 290  ASP290     -0.2456
    155  OD2       -7.1690  -21.6950   23.9490 O.co2 290  ASP290     -0.2456
    156  N        -10.8780  -21.1150   19.1490 N.3   315  GLN315     -0.1245
    157  CA       -10.1860  -20.4110   18.0620 C.3   315  GLN315      0.1566
    158  C        -10.7620  -20.7730   16.6780 C.2   315  GLN315      0.2260
    159  O        -10.8270  -19.9040   15.7860 O.2   315  GLN315     -0.2867
    160  CB        -8.6780  -20.6820   18.1050 C.3   315  GLN315      0.0367
    161  CG        -7.9280  -19.9620   19.2850 C.3   315  GLN315      0.0905
    162  CD        -7.9620  -20.7280   20.6170 C.2   315  GLN315      0.2608
    163  OE1       -8.7300  -21.6730   20.7920 O.2   315  GLN315     -0.2717
    164  NE2       -7.1200  -20.3100   21.5740 N.am  315  GLN315     -0.0878
    165  N         -9.0750  -30.4730   22.1390 N.3   388  ILE388     -0.1231
    166  CA        -8.3670  -29.1970   22.2680 C.3   388  ILE388      0.1692
    167  C         -7.6450  -28.8470   20.9840 C.2   388  ILE388      0.2591
    168  O         -7.6510  -27.6860   20.5530 O.2   388  ILE388     -0.2718
    169  CB        -7.3480  -29.2140   23.4370 C.3   388  ILE388      0.0266
    170  CG1       -8.1130  -29.3290   24.7710 C.3   388  ILE388      0.0019
    171  CG2       -6.5220  -27.9380   23.4100 C.3   388  ILE388      0.0020
    172  CD1       -7.2040  -29.7390   25.9530 C.3   388  ILE388      0.0001
    173  N         -6.9960  -29.8410   20.3950 N.am  389  VAL389     -0.1980
    174  CA        -6.5180  -29.7070   19.0260 C.3   389  VAL389      0.1595
    175  C         -7.2200  -30.8290   18.2330 C.2   389  VAL389      0.2287
    176  O         -6.9260  -32.0060   18.4300 O.2   389  VAL389     -0.2864
    177  CB        -4.9970  -29.8240   18.9170 C.3   389  VAL389      0.0276
    178  CG1       -4.5390  -29.5960   17.4610 C.3   389  VAL389      0.0022
    179  CG2       -4.3010  -28.8230   19.8740 C.3   389  VAL389      0.0022
@<TRIPOS>BOND
     1   137   136    2
     2   136   135    1
     3   135   138    1
     4   135   134    1
     5   159   158    2
     6   138   139    1
     7   138   140    1
     8   158   157    1
     9   141   142    1
    10   178   177    1
    11   147   145    1
    12   157   160    1
    13   157   156    1
    14   160   161    1
    15   142   145    1
    16   142   143    1
    17   175   176    2
    18   175   174    1
    19   144   143    2
    20   133   132    2
    21   145   146    1
    22   177   174    1
    23   177   179    1
    24   174   173    1
    25   132   131    1
    26   161   162    1
    27   126   125    2
    28   173   167   am
    29   168   167    2
    30   162   163    2
    31   162   164   am
    32   131   130    1
    33   167   166    1
    34   125   130   am
    35   125   124    1
    36    95    94    1
    37     4     3    2
    38     3     2    1
    39   124   123    1
    40   124   127    1
    41    93    92    2
    42    94    96    1
    43    94    91    1
    44   165   166    1
    45   166   169    1
    46    92    91    1
    47     2     1    1
    48     2     5    1
    49   148   149    1
    50   118   117    2
    51    91    90    1
    52   127   129    1
    53   127   128    1
    54   171   169    1
    55   169   170    1
    56   155   153   ar
    57   117   116    1
    58     5     6    1
    59    90    84   am
    60     7     6   ar
    61     7     9   ar
    62   149   152    1
    63   149   150    1
    64    97   103    1
    65    97    98    1
    66   151   150    2
    67   100    99    2
    68   103   102    1
    69   153   152    1
    70   153   154   ar
    71     6     8   ar
    72   170   172    1
    73     9    11   ar
    74   121   120    1
    75   120   122    1
    76   120   119    1
    77    99    98    1
    78    84    85    2
    79    84    83    1
    80   116   119    1
    81   116   115    1
    82    98   101    1
    83    82    83    1
    84    81    79    1
    85     8    10   ar
    86    11    10   ar
    87    11    12    1
    88   102   101    1
    89    83    86    1
    90    86    87    1
    91    29    31   ar
    92    29    27   ar
    93    31    30   ar
    94    19    18    2
    95    79    80    1
    96    79    76    1
    97    63    62    1
    98    87    88    1
    99    73    71   ar
   100    73    74   ar
   101    27    26   ar
   102    88    89    1
   103    71    69   ar
   104    30    28   ar
   105    76    75    1
   106    76    77    1
   107    18    20   am
   108    18    17    1
   109    74    72   ar
   110    62    61   ar
   111    62    60   ar
   112    26    28   ar
   113    26    25    1
   114    35    34    2
   115    39    37    1
   116    61    59   ar
   117    69    68    1
   118    69    70   ar
   119    36    38    1
   120    36    37    1
   121    36    33    1
   122    68    65    1
   123    25    22    1
   124    78    77    2
   125    17    14    1
   126    60    58   ar
   127    32    33    1
   128    32    23   am
   129    72    70   ar
   130    22    21    1
   131    22    23    1
   132   112   110   ar
   133   112   114   ar
   134    34    33    1
   135    34    40   am
   136    59    57   ar
   137   110   109   ar
   138    13    14    1
   139    23    24    2
   140   114   113   ar
   141    66    65    1
   142    66    67    2
   143    14    15    1
   144    46    40    1
   145    46    45    1
   146    58    57   ar
   147    65    64    1
   148    40    41    1
   149    57    56    1
   150   109   108    1
   151   109   111   ar
   152   113   111   ar
   153    51    48    1
   154    15    16    2
   155    45    44    1
   156   108   105    1
   157    41    44    1
   158    41    42    1
   159   105   106    1
   160   105   104    1
   161    56    53    1
   162   107   106    2
   163    43    42    2
   164    50    49    2
   165    49    48    1
   166    48    47    1
   167    53    54    1
   168    53    52    1
   169    54    55    2
