@<TRIPOS>MOLECULE
tmp/3p6tA01.pdb
 178 167 0 0 0
SMALL
GASTEIGER

@<TRIPOS>ATOM
      1  N         15.2330  -33.1990  -22.7070 N.3    20  TYR20      -0.1241
      2  CA        14.3810  -34.3390  -22.3760 C.3    20  TYR20       0.1605
      3  C         15.0960  -35.3580  -21.5350 C.2    20  TYR20       0.2264
      4  O         14.4700  -36.2710  -21.0280 O.2    20  TYR20      -0.2867
      5  CB        13.8220  -35.0200  -23.6260 C.3    20  TYR20       0.0534
      6  CG        12.8540  -34.1210  -24.3340 C.ar   20  TYR20      -0.0201
      7  CD1       11.5430  -33.9790  -23.8710 C.ar   20  TYR20      -0.0009
      8  CD2       13.2400  -33.4120  -25.4750 C.ar   20  TYR20      -0.0009
      9  CE1       10.6500  -33.1310  -24.5140 C.ar   20  TYR20       0.0417
     10  CE2       12.3540  -32.5590  -26.1110 C.ar   20  TYR20       0.0417
     11  CZ        11.0700  -32.4290  -25.6150 C.ar   20  TYR20       0.1957
     12  OH        10.2020  -31.6020  -26.2540 O.3    20  TYR20      -0.2866
     13  N         18.5870  -32.7180  -29.7660 N.3    50  ASN50      -0.1240
     14  CA        17.2000  -32.5000  -30.1410 C.3    50  ASN50       0.1653
     15  C         17.0150  -31.6290  -31.3870 C.2    50  ASN50       0.2266
     16  O         16.0680  -30.8320  -31.4540 O.2    50  ASN50      -0.2867
     17  CB        16.4120  -31.9460  -28.9500 C.3    50  ASN50       0.1155
     18  CG        16.3540  -32.9290  -27.8080 C.2    50  ASN50       0.2627
     19  OD1       15.8470  -34.0610  -27.9650 O.2    50  ASN50      -0.2716
     20  ND2       16.8990  -32.5350  -26.6540 N.am   50  ASN50      -0.0877
     21  N          7.9080  -25.2950  -29.9210 N.3    78  PHE78      -0.1241
     22  CA         8.3790  -26.4950  -29.2450 C.3    78  PHE78       0.1605
     23  C          9.6270  -27.0610  -29.8980 C.2    78  PHE78       0.2264
     24  O          9.7860  -27.0230  -31.1130 O.2    78  PHE78      -0.2867
     25  CB         7.2960  -27.5840  -29.1790 C.3    78  PHE78       0.0534
     26  CG         6.0680  -27.1950  -28.4020 C.ar   78  PHE78      -0.0203
     27  CD1        6.1360  -26.2820  -27.3420 C.ar   78  PHE78      -0.0042
     28  CD2        4.8450  -27.7890  -28.6940 C.ar   78  PHE78      -0.0042
     29  CE1        4.9990  -25.9410  -26.6030 C.ar   78  PHE78      -0.0003
     30  CE2        3.7060  -27.4560  -27.9590 C.ar   78  PHE78      -0.0003
     31  CZ         3.7850  -26.5210  -26.9130 C.ar   78  PHE78      -0.0000
     32  N         11.4890  -30.6870  -30.1050 N.3    80  PRO80      -0.2116
     33  CA        12.1080  -30.4570  -31.4070 C.3    80  PRO80       0.1372
     34  C         11.1310  -29.8860  -32.4470 C.2    80  PRO80       0.2244
     35  O          9.9150  -29.8710  -32.2270 O.2    80  PRO80      -0.2868
     36  CB        12.5680  -31.8540  -31.8130 C.3    80  PRO80       0.0268
     37  CG        11.5710  -32.7830  -31.1680 C.3    80  PRO80       0.0207
     38  CD        10.8980  -32.0380  -30.0260 C.3    80  PRO80       0.0892
     39  N          9.7670  -30.6520  -35.2570 N.3    82  GLU82      -0.1231
     40  CA         8.6230  -31.3750  -35.7930 C.3    82  GLU82       0.1699
     41  C          7.3900  -31.2510  -34.8730 C.2    82  GLU82       0.2592
     42  O          6.2680  -31.0940  -35.3650 O.2    82  GLU82      -0.2718
     43  CB         8.9930  -32.8240  -36.1260 C.3    82  GLU82       0.0402
     44  CG         9.3870  -33.0650  -37.6060 C.3    82  GLU82       0.1161
     45  CD        10.4070  -32.0630  -38.1890 C.2    82  GLU82       0.3649
     46  OE1       11.5300  -31.9140  -37.6410 O.co2  82  GLU82      -0.2457
     47  OE2       10.0930  -31.4320  -39.2250 O.co2  82  GLU82      -0.2457
     48  N          7.6060  -31.2780  -33.5570 N.am   83  ALA83      -0.1980
     49  CA         6.5320  -31.0430  -32.5920 C.3    83  ALA83       0.1597
     50  C          6.0030  -29.6120  -32.7450 C.2    83  ALA83       0.2287
     51  O          4.7920  -29.4000  -32.8870 O.2    83  ALA83      -0.2864
     52  CB         7.0340  -31.2770  -31.1560 C.3    83  ALA83       0.0319
     53  N          2.0450  -28.3070  -34.0660 N.3    87  TYR87      -0.1241
     54  CA         1.2900  -27.6970  -32.9670 C.3    87  TYR87       0.1605
     55  C          0.4810  -26.4900  -33.4510 C.2    87  TYR87       0.2264
     56  O          1.0510  -25.5100  -33.9740 O.2    87  TYR87      -0.2867
     57  CB         2.2690  -27.2700  -31.8900 C.3    87  TYR87       0.0534
     58  CG         1.6210  -26.8110  -30.6220 C.ar   87  TYR87      -0.0201
     59  CD1        1.8240  -25.5140  -30.1750 C.ar   87  TYR87      -0.0009
     60  CD2        0.8160  -27.6770  -29.8510 C.ar   87  TYR87      -0.0009
     61  CE1        1.2620  -25.0720  -29.0140 C.ar   87  TYR87       0.0417
     62  CE2        0.2330  -27.2330  -28.6710 C.ar   87  TYR87       0.0417
     63  CZ         0.4670  -25.9200  -28.2690 C.ar   87  TYR87       0.1957
     64  OH        -0.0590  -25.3940  -27.1240 O.3    87  TYR87      -0.2866
     65  N         -2.6940  -25.3580  -31.5280 N.3    89  PHE89      -0.1241
     66  CA        -3.6240  -24.8190  -30.5200 C.3    89  PHE89       0.1605
     67  C         -3.6160  -23.2970  -30.5250 C.2    89  PHE89       0.2264
     68  O         -2.6040  -22.6710  -30.8180 O.2    89  PHE89      -0.2867
     69  CB        -3.2830  -25.3110  -29.0980 C.3    89  PHE89       0.0534
     70  CG        -3.7060  -26.7350  -28.8000 C.ar   89  PHE89      -0.0203
     71  CD1       -4.7320  -27.3520  -29.5000 C.ar   89  PHE89      -0.0042
     72  CD2       -3.1150  -27.4270  -27.7520 C.ar   89  PHE89      -0.0042
     73  CE1       -5.1250  -28.6630  -29.1970 C.ar   89  PHE89      -0.0003
     74  CE2       -3.4980  -28.7380  -27.4410 C.ar   89  PHE89      -0.0003
     75  CZ        -4.4890  -29.3550  -28.1600 C.ar   89  PHE89      -0.0000
     76  N         -1.6130  -20.3360  -28.3570 N.3    92  THR92      -0.1218
     77  CA        -0.1840  -20.6340  -28.0800 C.3    92  THR92       0.1862
     78  C          0.7130  -20.5920  -29.3260 C.2    92  THR92       0.2287
     79  O          1.9050  -20.3160  -29.2240 O.2    92  THR92      -0.2866
     80  CB         0.0690  -21.9760  -27.2480 C.3    92  THR92       0.1770
     81  OG1       -0.9730  -22.9380  -27.4680 O.3    92  THR92      -0.2211
     82  CG2        0.1590  -21.7030  -25.7200 C.3    92  THR92       0.0375
     83  N         -1.4170  -37.3020  -25.7340 N.3   175  MET175     -0.1230
     84  CA        -0.7420  -36.1270  -26.3000 C.3   175  MET175      0.1702
     85  C          0.5700  -35.8240  -25.5670 C.2   175  MET175      0.2593
     86  O          1.5470  -35.3980  -26.1730 O.2   175  MET175     -0.2718
     87  CB        -1.6700  -34.9040  -26.2530 C.3   175  MET175      0.0401
     88  CG        -2.9220  -34.9860  -27.1540 C.3   175  MET175      0.0596
     89  SD        -4.1980  -33.7600  -26.7160 S.3   175  MET175     -0.1393
     90  CE        -5.5170  -34.1600  -27.8680 C.3   175  MET175      0.0692
     91  N          0.5820  -36.0520  -24.2600 N.am  176  THR176     -0.1953
     92  CA         1.7480  -35.8010  -23.4150 C.3   176  THR176      0.1897
     93  C          2.4750  -37.0690  -22.8860 C.2   176  THR176      0.2313
     94  O          3.5860  -36.9730  -22.4150 O.2   176  THR176     -0.2863
     95  CB         1.3560  -34.8490  -22.2650 C.3   176  THR176      0.1794
     96  OG1        0.1710  -35.3320  -21.6160 O.3   176  THR176     -0.2208
     97  CG2        1.0340  -33.4790  -22.8220 C.3   176  THR176      0.0378
     98  N         -0.4410  -38.3910  -31.9400 N.3   184  PHE184     -0.1241
     99  CA        -0.8590  -37.0870  -31.4370 C.3   184  PHE184      0.1605
    100  C         -2.0790  -36.5810  -32.1940 C.2   184  PHE184      0.2264
    101  O         -2.9940  -35.9940  -31.5860 O.2   184  PHE184     -0.2867
    102  CB         0.2930  -36.0570  -31.5480 C.3   184  PHE184      0.0534
    103  CG        -0.0440  -34.7080  -30.9660 C.ar  184  PHE184     -0.0203
    104  CD1        0.2280  -34.4250  -29.6260 C.ar  184  PHE184     -0.0042
    105  CD2       -0.6660  -33.7300  -31.7440 C.ar  184  PHE184     -0.0042
    106  CE1       -0.1130  -33.1730  -29.0630 C.ar  184  PHE184     -0.0003
    107  CE2       -1.0170  -32.4670  -31.1950 C.ar  184  PHE184     -0.0003
    108  CZ        -0.7430  -32.1930  -29.8550 C.ar  184  PHE184     -0.0000
    109  N         -6.8120  -26.1490  -26.1220 N.3   235  LEU235     -0.1245
    110  CA        -5.7240  -25.6130  -25.2970 C.3   235  LEU235      0.1561
    111  C         -6.2450  -25.4190  -23.9000 C.2   235  LEU235      0.2260
    112  O         -5.5370  -25.6490  -22.9260 O.2   235  LEU235     -0.2867
    113  CB        -5.2150  -24.2580  -25.8170 C.3   235  LEU235      0.0270
    114  CG        -4.0870  -23.6310  -24.9850 C.3   235  LEU235      0.0019
    115  CD1       -2.8450  -24.5350  -24.9230 C.3   235  LEU235      0.0001
    116  CD2       -3.6900  -22.2990  -25.5350 C.3   235  LEU235      0.0001
    117  N         -6.0380  -28.9040  -22.3230 N.3   238  VAL238     -0.1231
    118  CA        -4.7330  -29.4760  -21.9950 C.3   238  VAL238      0.1692
    119  C         -3.8120  -28.5370  -21.1870 C.2   238  VAL238      0.2592
    120  O         -2.9420  -29.0140  -20.4490 O.2   238  VAL238     -0.2718
    121  CB        -3.9610  -30.0390  -23.2400 C.3   238  VAL238      0.0266
    122  CG1       -4.9020  -30.8820  -24.1320 C.3   238  VAL238      0.0020
    123  CG2       -3.3310  -28.9350  -24.0010 C.3   238  VAL238      0.0020
    124  N         -4.0190  -27.2190  -21.3200 N.am  239  GLY239     -0.1957
    125  CA        -3.1190  -26.2470  -20.7110 C.3   239  GLY239      0.1869
    126  C         -3.0290  -26.3400  -19.1890 C.2   239  GLY239      0.2309
    127  O         -1.9930  -26.0480  -18.5760 O.2   239  GLY239     -0.2863
    128  N         -1.2650  -31.0790  -17.1790 N.3   242  ASP242     -0.1225
    129  CA         0.1000  -31.5220  -16.8280 C.3   242  ASP242      0.1805
    130  C          0.8630  -30.5290  -15.9870 C.2   242  ASP242      0.2598
    131  O          1.5340  -30.9380  -15.0530 O.2   242  ASP242     -0.2718
    132  CB         0.8930  -31.8800  -18.0760 C.3   242  ASP242      0.1424
    133  CG         0.6540  -33.3350  -18.5130 C.2   242  ASP242      0.3668
    134  OD1        1.4430  -33.8320  -19.3410 O.co2 242  ASP242     -0.2456
    135  OD2       -0.3270  -33.9730  -18.0240 O.co2 242  ASP242     -0.2456
    136  N          0.7820  -29.2380  -16.3160 N.am  243  THR243     -0.1953
    137  CA         1.3300  -28.1620  -15.4300 C.3   243  THR243      0.1897
    138  C          0.8290  -28.2600  -13.9760 C.2   243  THR243      0.2313
    139  O          1.6060  -28.2710  -13.0440 O.2   243  THR243     -0.2863
    140  CB         0.9260  -26.7450  -15.9310 C.3   243  THR243      0.1794
    141  OG1       -0.5040  -26.6730  -16.0770 O.3   243  THR243     -0.2208
    142  CG2        1.6020  -26.4490  -17.2490 C.3   243  THR243      0.0378
    143  N          8.0360  -25.2840  -16.6320 N.3   286  VAL286     -0.1245
    144  CA         7.7830  -25.1640  -18.0780 C.3   286  VAL286      0.1561
    145  C          9.0520  -24.6610  -18.7970 C.2   286  VAL286      0.2260
    146  O          9.8240  -23.8280  -18.2680 O.2   286  VAL286     -0.2867
    147  CB         6.5530  -24.2030  -18.3710 C.3   286  VAL286      0.0252
    148  CG1        6.2640  -24.0580  -19.8670 C.3   286  VAL286      0.0019
    149  CG2        5.3010  -24.6640  -17.6100 C.3   286  VAL286      0.0019
    150  N          9.2900  -23.6900  -22.7600 N.3   288  ASP288     -0.1239
    151  CA         9.0550  -23.6410  -24.1710 C.3   288  ASP288      0.1674
    152  C          9.9620  -22.6580  -24.8900 C.2   288  ASP288      0.2266
    153  O         11.0240  -22.2600  -24.3760 O.2   288  ASP288     -0.2867
    154  CB         7.5670  -23.7040  -24.5780 C.3   288  ASP288      0.1410
    155  CG         6.8250  -22.4140  -24.3900 C.2   288  ASP288      0.3668
    156  OD1        7.3690  -21.4990  -23.7260 O.co2 288  ASP288     -0.2456
    157  OD2        5.6760  -22.3130  -24.9380 O.co2 288  ASP288     -0.2456
    158  N          0.5180  -16.8250  -19.0070 N.3   348  CYS348     -0.1235
    159  CA        -0.5260  -17.8030  -18.7110 C.3   348  CYS348      0.1677
    160  C         -1.8560  -17.1610  -18.3710 C.2   348  CYS348      0.2270
    161  O         -1.9520  -16.3650  -17.4240 O.2   348  CYS348     -0.2867
    162  CB        -0.1080  -18.7000  -17.5270 C.3   348  CYS348      0.0956
    163  SG        -1.3850  -19.9670  -17.2180 S.3   348  CYS348     -0.0801
    164  N          9.0450  -30.3110  -21.8170 N.3   386  ILE386     -0.1231
    165  CA         8.4720  -28.9900  -21.9940 C.3   386  ILE386      0.1692
    166  C          7.7700  -28.6500  -20.6980 C.2   386  ILE386      0.2591
    167  O          7.8070  -27.5000  -20.2540 O.2   386  ILE386     -0.2718
    168  CB         7.4990  -28.9800  -23.1870 C.3   386  ILE386      0.0266
    169  CG1        8.2960  -29.1740  -24.4950 C.3   386  ILE386      0.0019
    170  CG2        6.6740  -27.6380  -23.2290 C.3   386  ILE386      0.0020
    171  CD1        7.4170  -29.5280  -25.6710 C.3   386  ILE386      0.0001
    172  N          7.0940  -29.6470  -20.1230 N.am  387  VAL387     -0.1980
    173  CA         6.6390  -29.5810  -18.7480 C.3   387  VAL387      0.1595
    174  C          7.3730  -30.6740  -17.9790 C.2   387  VAL387      0.2287
    175  O          7.1130  -31.8760  -18.1630 O.2   387  VAL387     -0.2864
    176  CB         5.1250  -29.7980  -18.6040 C.3   387  VAL387      0.0276
    177  CG1        4.6910  -29.5500  -17.1140 C.3   387  VAL387      0.0022
    178  CG2        4.3700  -28.8610  -19.5730 C.3   387  VAL387      0.0022
@<TRIPOS>BOND
     1    47    45   ar
     2    45    46   ar
     3    45    44    1
     4    44    43    1
     5    43    40    1
     6    40    39    1
     7    40    41    1
     8    42    41    2
     9    41    48   am
    10    53    54    1
    11    56    55    2
    12    48    49    1
    13    55    54    1
    14    54    57    1
    15    51    50    2
    16    50    49    1
    17    49    52    1
    18    34    35    2
    19    34    33    1
    20   100   101    2
    21   100    99    1
    22    98    99    1
    23    57    58    1
    24    36    33    1
    25    36    37    1
    26   105   107   ar
    27   105   103   ar
    28   102    99    1
    29   102   103    1
    30    65    66    1
    31    16    15    2
    32    33    32    1
    33    15    14    1
    34   107   108   ar
    35    37    38    1
    36    24    23    2
    37   103   104   ar
    38    68    67    2
    39    58    59   ar
    40    58    60   ar
    41    67    66    1
    42    66    69    1
    43    59    61   ar
    44    14    13    1
    45    14    17    1
    46    32    38    1
    47    21    22    1
    48    23    22    1
    49   108   106   ar
    50    60    62   ar
    51   104   106   ar
    52    71    73   ar
    53    71    70   ar
    54    78    79    2
    55    78    77    1
    56    22    25    1
    57    73    75   ar
    58    25    26    1
    59    69    70    1
    60    61    63   ar
    61    17    18    1
    62    70    72   ar
    63    28    26   ar
    64    28    30   ar
    65    62    63   ar
    66    26    27   ar
    67    76    77    1
    68    63    64    1
    69    75    74   ar
    70    77    80    1
    71    19    18    2
    72    30    31   ar
    73    90    89    1
    74    18    20   am
    75    72    74   ar
    76    81    80    1
    77    27    29   ar
    78    80    82    1
    79    88    89    1
    80    88    87    1
    81    31    29   ar
    82    84    87    1
    83    84    83    1
    84    84    85    1
    85    12    11    1
    86    86    85    2
    87   109   110    1
    88    10    11   ar
    89    10     8   ar
    90   113   110    1
    91   113   114    1
    92   171   169    1
    93    11     9   ar
    94    85    91   am
    95   116   114    1
    96     8     6   ar
    97   110   111    1
    98   114   115    1
    99   157   155   ar
   100   152   153    2
   101   152   151    1
   102   154   155    1
   103   154   151    1
   104     9     7   ar
   105   169   168    1
   106   155   156   ar
   107     6     7   ar
   108     6     5    1
   109    91    92    1
   110   151   150    1
   111   122   121    1
   112   123   121    1
   113   111   112    2
   114     5     2    1
   115    92    93    1
   116    92    95    1
   117   121   118    1
   118   170   168    1
   119   168   165    1
   120    93    94    2
   121    97    95    1
   122     1     2    1
   123     2     3    1
   124   117   118    1
   125    95    96    1
   126   118   119    1
   127   165   164    1
   128   165   166    1
   129     3     4    2
   130   124   119   am
   131   124   125    1
   132   119   120    2
   133   125   126    1
   134   166   167    2
   135   166   172   am
   136   172   173    1
   137   148   147    1
   138   178   176    1
   139   134   133   ar
   140   126   127    2
   141   158   159    1
   142   145   146    2
   143   145   144    1
   144   173   176    1
   145   173   174    1
   146   159   160    1
   147   159   162    1
   148   176   177    1
   149   133   132    1
   150   133   135   ar
   151   147   144    1
   152   147   149    1
   153   160   161    2
   154   175   174    2
   155   144   143    1
   156   132   129    1
   157   162   163    1
   158   142   140    1
   159   128   129    1
   160   129   130    1
   161   136   130   am
   162   136   137    1
   163   141   140    1
   164   130   131    2
   165   140   137    1
   166   137   138    1
   167   138   139    2
