@<TRIPOS>MOLECULE
tmp/3p6xA01.pdb
 120 112 0 0 0
SMALL
GASTEIGER

@<TRIPOS>ATOM
      1  N          8.1630  -11.9900   30.0390 N.3    78  PHE78      -0.1241
      2  CA         8.6680  -10.7940   29.3790 C.3    78  PHE78       0.1605
      3  C          9.9390  -10.2720   30.0210 C.2    78  PHE78       0.2264
      4  O         10.0990  -10.2910   31.2410 O.2    78  PHE78      -0.2867
      5  CB         7.5920   -9.6980   29.3170 C.3    78  PHE78       0.0534
      6  CG         6.2620  -10.1860   28.8100 C.ar   78  PHE78      -0.0203
      7  CD1        6.1480  -10.7540   27.5390 C.ar   78  PHE78      -0.0042
      8  CD2        5.1260  -10.0970   29.6080 C.ar   78  PHE78      -0.0042
      9  CE1        4.9210  -11.2210   27.0640 C.ar   78  PHE78      -0.0003
     10  CE2        3.8910  -10.5590   29.1480 C.ar   78  PHE78      -0.0003
     11  CZ         3.7870  -11.1180   27.8710 C.ar   78  PHE78      -0.0000
     12  N          0.2410   -7.1250   34.2850 N.3    82  TYR82      -0.1241
     13  CA        -0.1630   -8.0700   33.2450 C.3    82  TYR82       0.1605
     14  C         -0.8030   -9.3200   33.8520 C.2    82  TYR82       0.2264
     15  O         -0.2170   -9.9560   34.7340 O.2    82  TYR82      -0.2867
     16  CB         1.0420   -8.4440   32.3810 C.3    82  TYR82       0.0534
     17  CG         0.6770   -9.1930   31.1250 C.ar   82  TYR82      -0.0201
     18  CD1        0.5240  -10.5810   31.1420 C.ar   82  TYR82      -0.0009
     19  CD2        0.4880   -8.5160   29.9160 C.ar   82  TYR82      -0.0009
     20  CE1        0.1830  -11.2820   29.9840 C.ar   82  TYR82       0.0417
     21  CE2        0.1530   -9.2130   28.7450 C.ar   82  TYR82       0.0417
     22  CZ         0.0030  -10.5930   28.7900 C.ar   82  TYR82       0.1957
     23  OH        -0.3370  -11.2960   27.6570 O.3    82  TYR82      -0.2866
     24  N         -1.5070  -16.8120   28.9930 N.3    87  THR87      -0.1218
     25  CA        -0.0930  -16.4480   28.7970 C.3    87  THR87       0.1862
     26  C          0.8310  -16.8990   29.9140 C.2    87  THR87       0.2287
     27  O          1.8510  -17.5500   29.6620 O.2    87  THR87      -0.2866
     28  CB         0.0670  -14.9120   28.6890 C.3    87  THR87       0.1770
     29  OG1       -0.7310  -14.4220   27.6110 O.3    87  THR87      -0.2211
     30  CG2        1.5380  -14.5030   28.4650 C.3    87  THR87       0.0375
     31  N         -1.8280    0.1570   25.8640 N.3   169  MET169     -0.1230
     32  CA        -1.1240   -0.9670   26.4640 C.3   169  MET169      0.1702
     33  C          0.2410   -1.2270   25.8270 C.2   169  MET169      0.2593
     34  O          1.1640   -1.6680   26.5110 O.2   169  MET169     -0.2718
     35  CB        -2.0080   -2.2180   26.4680 C.3   169  MET169      0.0401
     36  CG        -3.0700   -2.1750   27.5790 C.3   169  MET169      0.0596
     37  SD        -4.2940   -3.5060   27.4650 S.3   169  MET169     -0.1393
     38  CE        -4.2160   -3.7470   25.7230 C.3   169  MET169      0.0692
     39  N          0.3890   -0.9040   24.5490 N.am  170  THR170     -0.1953
     40  CA         1.6400   -1.1600   23.8350 C.3   170  THR170      0.1897
     41  C          2.4260    0.0910   23.4200 C.2   170  THR170      0.2313
     42  O          3.6630    0.0320   23.2530 O.2   170  THR170     -0.2863
     43  CB         1.3720   -2.0030   22.5880 C.3   170  THR170      0.1794
     44  OG1        0.4280   -1.3210   21.7540 O.3   170  THR170     -0.2208
     45  CG2        0.8190   -3.3780   22.9780 C.3   170  THR170      0.0378
     46  N         -0.4920    1.3650   32.0440 N.3   178  PHE178     -0.1241
     47  CA        -0.8760    0.0450   31.5740 C.3   178  PHE178      0.1605
     48  C         -2.0480   -0.4920   32.4060 C.2   178  PHE178      0.2264
     49  O         -3.0350   -1.0160   31.8470 O.2   178  PHE178     -0.2867
     50  CB         0.3050   -0.9440   31.5880 C.3   178  PHE178      0.0534
     51  CG        -0.0730   -2.3260   31.1180 C.ar  178  PHE178     -0.0203
     52  CD1       -0.0060   -2.6570   29.7710 C.ar  178  PHE178     -0.0042
     53  CD2       -0.5200   -3.2900   32.0220 C.ar  178  PHE178     -0.0042
     54  CE1       -0.3760   -3.9320   29.3190 C.ar  178  PHE178     -0.0003
     55  CE2       -0.8920   -4.5610   31.5810 C.ar  178  PHE178     -0.0003
     56  CZ        -0.8170   -4.8830   30.2310 C.ar  178  PHE178     -0.0000
     57  N         -6.8750  -11.2370   26.1080 N.3   229  LEU229     -0.1245
     58  CA        -5.7600  -11.7760   25.3290 C.3   229  LEU229      0.1561
     59  C         -6.1470  -12.0560   23.8850 C.2   229  LEU229      0.2260
     60  O         -5.3580  -11.8120   22.9640 O.2   229  LEU229     -0.2867
     61  CB        -5.1650  -13.0300   25.9820 C.3   229  LEU229      0.0270
     62  CG        -3.8140  -13.4120   25.3640 C.3   229  LEU229      0.0019
     63  CD1       -2.7790  -12.2940   25.4750 C.3   229  LEU229      0.0001
     64  CD2       -3.2940  -14.6850   25.9900 C.3   229  LEU229      0.0001
     65  N         -5.8790   -8.5240   22.3200 N.3   232  VAL232     -0.1231
     66  CA        -4.5550   -7.9050   22.1240 C.3   232  VAL232      0.1692
     67  C         -3.5810   -8.7800   21.3430 C.2   232  VAL232      0.2592
     68  O         -2.7150   -8.2530   20.6360 O.2   232  VAL232     -0.2718
     69  CB        -3.9250   -7.3440   23.4140 C.3   232  VAL232      0.0266
     70  CG1       -4.9190   -6.4400   24.1370 C.3   232  VAL232      0.0020
     71  CG2       -3.3810   -8.4160   24.2980 C.3   232  VAL232      0.0020
     72  N         -3.7450  -10.0960   21.4300 N.am  233  GLY233     -0.1957
     73  CA        -2.7920  -11.0340   20.8020 C.3   233  GLY233      0.1869
     74  C         -2.7220  -10.9010   19.2980 C.2   233  GLY233      0.2309
     75  O         -1.6900  -11.1910   18.6910 O.2   233  GLY233     -0.2863
     76  N         -0.9430   -6.0170   17.3110 N.3   236  ASP236     -0.1225
     77  CA         0.3930   -5.5620   16.8740 C.3   236  ASP236      0.1805
     78  C          1.1360   -6.6070   16.0690 C.2   236  ASP236      0.2598
     79  O          1.8520   -6.2440   15.1390 O.2   236  ASP236     -0.2718
     80  CB         1.2620   -5.1010   18.0410 C.3   236  ASP236      0.1424
     81  CG         0.7640   -3.8210   18.6710 C.2   236  ASP236      0.3668
     82  OD1        1.2990   -3.5010   19.7430 O.co2 236  ASP236     -0.2456
     83  OD2       -0.1200   -3.1300   18.0960 O.co2 236  ASP236     -0.2456
     84  N          0.9660   -7.8880   16.4060 N.am  237  THR237     -0.1953
     85  CA         1.5890   -8.9570   15.6020 C.3   237  THR237      0.1897
     86  C          1.1480   -8.8710   14.1380 C.2   237  THR237      0.2313
     87  O          1.9830   -8.8360   13.2490 O.2   237  THR237     -0.2863
     88  CB         1.2470  -10.3580   16.1270 C.3   237  THR237      0.1794
     89  OG1       -0.1660  -10.4530   16.3090 O.3   237  THR237     -0.2208
     90  CG2        1.9720  -10.5870   17.4300 C.3   237  THR237      0.0378
     91  N          8.3540  -11.9890   16.7590 N.3   280  VAL280     -0.1245
     92  CA         8.1290  -12.0710   18.2060 C.3   280  VAL280      0.1561
     93  C          9.3610  -12.6090   18.9390 C.2   280  VAL280      0.2260
     94  O         10.0560  -13.5200   18.4540 O.2   280  VAL280     -0.2867
     95  CB         6.9190  -12.9680   18.5310 C.3   280  VAL280      0.0252
     96  CG1        6.7060  -13.0680   20.0570 C.3   280  VAL280      0.0019
     97  CG2        5.6460  -12.4440   17.8620 C.3   280  VAL280      0.0019
     98  N          9.6970  -13.6590   22.8520 N.3   282  ASP282     -0.1239
     99  CA         9.2430  -13.9340   24.2150 C.3   282  ASP282      0.1674
    100  C         10.3120  -14.6640   25.0090 C.2   282  ASP282      0.2266
    101  O         11.3890  -15.0260   24.5040 O.2   282  ASP282     -0.2867
    102  CB         7.9720  -14.8370   24.1660 C.3   282  ASP282      0.1410
    103  CG         6.6900  -14.0480   24.3170 C.2   282  ASP282      0.3668
    104  OD1        6.6510  -12.8840   23.8550 O.co2 282  ASP282     -0.2456
    105  OD2        5.7280  -14.5880   24.9280 O.co2 282  ASP282     -0.2456
    106  N          9.6690   -6.9950   22.1660 N.3   380  ILE380     -0.1231
    107  CA         8.9160   -8.2570   22.2200 C.3   380  ILE380      0.1692
    108  C          8.1600   -8.5410   20.9120 C.2   380  ILE380      0.2591
    109  O          8.1780   -9.6890   20.4230 O.2   380  ILE380     -0.2718
    110  CB         7.9710   -8.3100   23.4340 C.3   380  ILE380      0.0266
    111  CG1        8.7730   -8.0940   24.7150 C.3   380  ILE380      0.0019
    112  CG2        7.2770   -9.6960   23.4880 C.3   380  ILE380      0.0020
    113  CD1        7.8880   -7.6720   25.9360 C.3   380  ILE380      0.0001
    114  N          7.4920   -7.5310   20.3490 N.am  381  VAL381     -0.1980
    115  CA         6.9510   -7.6300   18.9930 C.3   381  VAL381      0.1595
    116  C          7.6600   -6.5450   18.1760 C.2   381  VAL381      0.2287
    117  O          7.4350   -5.3460   18.3940 O.2   381  VAL381     -0.2864
    118  CB         5.4030   -7.4770   18.9320 C.3   381  VAL381      0.0276
    119  CG1        4.8900   -7.5790   17.4910 C.3   381  VAL381      0.0022
    120  CG2        4.7160   -8.5380   19.7880 C.3   381  VAL381      0.0022
@<TRIPOS>BOND
     1    87    86    2
     2    86    85    1
     3    79    78    2
     4    85    88    1
     5    85    84    1
     6    78    84   am
     7    78    77    1
     8    88    89    1
     9    88    90    1
    10    91    92    1
    11    77    76    1
    12    77    80    1
    13   119   118    1
    14    97    95    1
    15    80    81    1
    16    83    81   ar
    17   116   117    2
    18   116   115    1
    19    92    95    1
    20    92    93    1
    21    94    93    2
    22    95    96    1
    23    81    82   ar
    24    75    74    2
    25   118   115    1
    26   118   120    1
    27   115   114    1
    28    74    73    1
    29   114   108   am
    30   109   108    2
    31    68    67    2
    32    73    72    1
    33   108   107    1
    34    67    72   am
    35    67    66    1
    36    44    43    1
    37    66    65    1
    38    66    69    1
    39   106   107    1
    40   107   110    1
    41    43    45    1
    42    43    40    1
    43    98    99    1
    44    60    59    2
    45    42    41    2
    46    69    70    1
    47    69    71    1
    48    41    40    1
    49   110   112    1
    50   110   111    1
    51    40    39    1
    52   104   103   ar
    53    59    58    1
    54   102    99    1
    55   102   103    1
    56    99   100    1
    57   103   105   ar
    58   101   100    2
    59    39    33   am
    60   111   113    1
    61    58    61    1
    62    58    57    1
    63    62    63    1
    64    62    61    1
    65    62    64    1
    66    38    37    1
    67    33    32    1
    68    33    34    2
    69    31    32    1
    70    32    35    1
    71    35    36    1
    72     9     7   ar
    73     9    11   ar
    74    37    36    1
    75     7     6   ar
    76    29    28    1
    77    23    22    1
    78    11    10   ar
    79    30    28    1
    80    28    25    1
    81    21    22   ar
    82    21    19   ar
    83    22    20   ar
    84    25    24    1
    85    25    26    1
    86     6     5    1
    87     6     8   ar
    88    10     8   ar
    89     5     2    1
    90    54    52   ar
    91    54    56   ar
    92     2     3    1
    93     2     1    1
    94    27    26    2
    95    52    51   ar
    96    19    17   ar
    97    20    18   ar
    98     3     4    2
    99    56    55   ar
   100    51    50    1
   101    51    53   ar
   102    17    18   ar
   103    17    16    1
   104    47    50    1
   105    47    46    1
   106    47    48    1
   107    55    53   ar
   108    49    48    2
   109    16    13    1
   110    13    14    1
   111    13    12    1
   112    14    15    2
