@<TRIPOS>MOLECULE
tmp/3p6yB00.pdb
 156 153 0 0 0
SMALL
GASTEIGER

@<TRIPOS>ATOM
      1  N          2.1080    0.1360   26.3670 N.3    22  GLU22      -0.1245
      2  CA         2.9450   -0.5390   25.3800 C.3    22  GLU22       0.1567
      3  C          3.3100   -1.9470   25.8440 C.2    22  GLU22       0.2260
      4  O          3.4640   -2.1950   27.0450 O.2    22  GLU22      -0.2867
      5  CB         4.2220    0.2670   25.1090 C.3    22  GLU22       0.0388
      6  CG         3.9940    1.7330   24.7420 C.3    22  GLU22       0.1160
      7  CD         5.2050    2.3710   24.0710 C.2    22  GLU22       0.3649
      8  OE1        5.3400    2.2440   22.8340 O.co2  22  GLU22      -0.2457
      9  OE2        6.0140    3.0120   24.7790 O.co2  22  GLU22      -0.2457
     10  N          5.9960   -3.3180   25.7190 N.3    24  ASP24      -0.1225
     11  CA         7.3570   -3.3010   26.2340 C.3    24  ASP24       0.1805
     12  C          7.5110   -2.2410   27.3240 C.2    24  ASP24       0.2598
     13  O          6.9730   -1.1360   27.2070 O.2    24  ASP24      -0.2718
     14  CB         8.3460   -3.0510   25.0890 C.3    24  ASP24       0.1424
     15  CG         8.1210   -3.9850   23.8990 C.2    24  ASP24       0.3668
     16  OD1        8.1830   -5.2220   24.0790 O.co2  24  ASP24      -0.2456
     17  OD2        7.8890   -3.4760   22.7800 O.co2  24  ASP24      -0.2456
     18  N          8.2440   -2.5900   28.3820 N.am   25  SER25      -0.1938
     19  CA         8.4420   -1.7070   29.5360 C.3    25  SER25       0.2055
     20  C          9.7500   -0.9130   29.4710 C.2    25  SER25       0.2644
     21  O          9.8750    0.1330   30.1110 O.2    25  SER25      -0.2714
     22  CB         8.3820   -2.5120   30.8370 C.3    25  SER25       0.2130
     23  OG         9.4540   -3.3770   30.9970 O.3    25  SER25      -0.2179
     24  N         10.7150   -1.4170   28.7000 N.am   26  SER26      -0.1935
     25  CA        12.0190   -0.7650   28.5290 C.3    26  SER26       0.2055
     26  C         12.5180   -0.8610   27.0850 C.2    26  SER26       0.2642
     27  O         11.9440   -1.5850   26.2670 O.2    26  SER26      -0.2714
     28  CB        13.0510   -1.3750   29.4810 C.3    26  SER26       0.2130
     29  OG        13.4360   -2.6720   29.0570 O.3    26  SER26      -0.2179
     30  N         13.5900   -0.1310   26.7820 N.am   27  VAL27      -0.1977
     31  CA        14.1920   -0.1450   25.4480 C.3    27  VAL27       0.1596
     32  C         14.8700   -1.4860   25.1860 C.2    27  VAL27       0.2287
     33  O         14.8130   -2.0030   24.0710 O.2    27  VAL27      -0.2864
     34  CB        15.2030    1.0150   25.2470 C.3    27  VAL27       0.0276
     35  CG1       15.6950    1.0700   23.8060 C.3    27  VAL27       0.0022
     36  CG2       14.5760    2.3490   25.6290 C.3    27  VAL27       0.0022
     37  N         12.2690   -4.0910   24.4650 N.3    30  ARG30      -0.1245
     38  CA        11.6860   -3.8100   23.1540 C.3    30  ARG30       0.1563
     39  C         12.4570   -4.5330   22.0490 C.2    30  ARG30       0.2260
     40  O         11.8560   -5.1350   21.1550 O.2    30  ARG30      -0.2867
     41  CB        11.6570   -2.2990   22.8960 C.3    30  ARG30       0.0307
     42  CG        10.7710   -1.8590   21.7290 C.3    30  ARG30       0.0489
     43  CD        10.4160   -0.3750   21.8130 C.3    30  ARG30       0.2205
     44  NE         9.4750   -0.0930   22.8990 N.pl3  30  ARG30      -0.0865
     45  CZ         9.8010    0.4580   24.0680 C.cat  30  ARG30       0.5346
     46  NH1       11.0570    0.8100   24.3220 N.pl3  30  ARG30       0.1354
     47  NH2        8.8630    0.6640   24.9850 N.pl3  30  ARG30       0.1354
     48  N          4.4910   11.3080   25.3910 N.3    66  LEU66      -0.1245
     49  CA         4.6600   10.4600   26.5650 C.3    66  LEU66       0.1561
     50  C          5.7350   11.0210   27.4920 C.2    66  LEU66       0.2260
     51  O          6.9060   10.6370   27.4180 O.2    66  LEU66      -0.2867
     52  CB         5.0050    9.0280   26.1510 C.3    66  LEU66       0.0270
     53  CG         3.9190    7.9690   26.3370 C.3    66  LEU66       0.0019
     54  CD1        4.2440    6.7250   25.5190 C.3    66  LEU66       0.0001
     55  CD2        3.7360    7.6270   27.8230 C.3    66  LEU66       0.0001
     56  N          7.8630   14.2370   28.6750 N.3    68  THR68      -0.1203
     57  CA         8.3470   15.5800   28.3740 C.3    68  THR68       0.1994
     58  C          9.1120   15.6150   27.0590 C.2    68  THR68       0.2619
     59  O          9.1830   16.6570   26.3970 O.2    68  THR68      -0.2717
     60  CB         9.2780   16.0920   29.4890 C.3    68  THR68       0.1784
     61  OG1        8.8510   15.5660   30.7520 O.3    68  THR68      -0.2211
     62  CG2        9.2700   17.6180   29.5370 C.3    68  THR68       0.0376
     63  N          9.6850   14.4720   26.6900 N.am   69  THR69      -0.1938
     64  CA        10.6280   14.4110   25.5770 C.3    69  THR69       0.2028
     65  C         10.2760   13.3980   24.4900 C.2    69  THR69       0.2642
     66  O         10.7700   13.5140   23.3640 O.2    69  THR69      -0.2714
     67  CB        12.0830   14.1620   26.0630 C.3    69  THR69       0.1808
     68  OG1       12.1250   13.0050   26.9090 O.3    69  THR69      -0.2208
     69  CG2       12.6200   15.3740   26.8200 C.3    69  THR69       0.0379
     70  N          9.4390   12.4100   24.8110 N.am   70  PHE70      -0.1959
     71  CA         9.0950   11.3830   23.8200 C.3    70  PHE70       0.1771
     72  C          7.7790   11.6290   23.0760 C.2    70  PHE70       0.2620
     73  O          6.7140   11.7440   23.6840 O.2    70  PHE70      -0.2715
     74  CB         9.1390    9.9670   24.4080 C.3    70  PHE70       0.0574
     75  CG         9.1260    8.8860   23.3590 C.ar   70  PHE70      -0.0200
     76  CD1       10.2650    8.6280   22.5910 C.ar   70  PHE70      -0.0042
     77  CD2        7.9710    8.1420   23.1190 C.ar   70  PHE70      -0.0042
     78  CE1       10.2580    7.6390   21.6070 C.ar   70  PHE70      -0.0003
     79  CE2        7.9520    7.1470   22.1370 C.ar   70  PHE70      -0.0003
     80  CZ         9.1000    6.8950   21.3800 C.ar   70  PHE70      -0.0000
     81  N          7.8880   11.6880   21.7500 N.am   71  PHE71      -0.1960
     82  CA         6.7590   11.8840   20.8400 C.3    71  PHE71       0.1771
     83  C          6.6380   10.7060   19.8840 C.2    71  PHE71       0.2619
     84  O          7.6400   10.0970   19.5090 O.2    71  PHE71      -0.2715
     85  CB         6.9610   13.1560   20.0110 C.3    71  PHE71       0.0574
     86  CG         6.9840   14.4130   20.8190 C.ar   71  PHE71      -0.0200
     87  CD1        5.8230   15.1590   20.9950 C.ar   71  PHE71      -0.0042
     88  CD2        8.1630   14.8580   21.3990 C.ar   71  PHE71      -0.0042
     89  CE1        5.8330   16.3310   21.7430 C.ar   71  PHE71      -0.0003
     90  CE2        8.1840   16.0270   22.1520 C.ar   71  PHE71      -0.0003
     91  CZ         7.0140   16.7670   22.3220 C.ar   71  PHE71      -0.0000
     92  N          5.4120   10.3880   19.4850 N.am   72  LYS72      -0.1977
     93  CA         5.1950    9.3870   18.4430 C.3    72  LYS72       0.1596
     94  C          3.9450    9.6780   17.6150 C.2    72  LYS72       0.2287
     95  O          3.0510   10.3970   18.0480 O.2    72  LYS72      -0.2864
     96  CB         5.1700    7.9620   19.0270 C.3    72  LYS72       0.0298
     97  CG         3.8470    7.5040   19.6320 C.3    72  LYS72       0.0038
     98  CD         3.9560    6.0640   20.1190 C.3    72  LYS72       0.0206
     99  CE         2.5840    5.4390   20.3680 C.3    72  LYS72       0.1093
    100  NZ         2.6760    4.1310   21.0830 N.3    72  LYS72      -0.1314
    101  N          8.7290   -0.0530    8.3760 N.3   139  LYS139     -0.1245
    102  CA         7.7070    0.9020    8.7870 C.3   139  LYS139      0.1561
    103  C          7.0620    1.5200    7.5580 C.2   139  LYS139      0.2260
    104  O          7.6850    1.5920    6.4990 O.2   139  LYS139     -0.2867
    105  CB         8.3270    1.9890    9.6690 C.3   139  LYS139      0.0271
    106  CG         7.3120    2.8460   10.4150 C.3   139  LYS139      0.0035
    107  CD         7.9820    3.9000   11.2780 C.3   139  LYS139      0.0206
    108  CE         8.3770    3.3450   12.6400 C.3   139  LYS139      0.1093
    109  NZ         8.5420    4.4440   13.6330 N.3   139  LYS139     -0.1314
    110  N         16.0620   16.6860   14.4110 N.3   172  ALA172     -0.1231
    111  CA        16.1840   15.2760   14.7750 C.3   172  ALA172      0.1679
    112  C         16.4530   15.0510   16.2730 C.2   172  ALA172      0.2434
    113  O         15.8470   14.1600   16.8660 O.2   172  ALA172     -0.2733
    114  CB        17.2350   14.5820   13.9140 C.3   172  ALA172      0.0304
    115  N         17.3490   15.8550   16.8940 N.am  173  PRO173     -0.2718
    116  CA        17.5150   15.7370   18.3500 C.3   173  PRO173      0.1535
    117  C         16.2010   15.9060   19.1260 C.2   173  PRO173      0.2599
    118  O         16.0440   15.3340   20.2110 O.2   173  PRO173     -0.2715
    119  CB        18.4690   16.8870   18.6880 C.3   173  PRO173      0.0310
    120  CG        19.2490   17.1040   17.4480 C.3   173  PRO173      0.0237
    121  CD        18.3160   16.8100   16.3120 C.3   173  PRO173      0.0939
    122  N         15.2710   16.6790   18.5710 N.am  174  GLY174     -0.1941
    123  CA        13.9800   16.8960   19.2030 C.3   174  GLY174      0.2014
    124  C         12.9980   15.7570   18.9990 C.2   174  GLY174      0.2639
    125  O         12.3810   15.2900   19.9560 O.2   174  GLY174     -0.2714
    126  N         12.8540   15.2990   17.7570 N.am  175  TYR175     -0.1959
    127  CA        11.7550   14.3930   17.4030 C.3   175  TYR175      0.1771
    128  C         12.1730   13.0640   16.7580 C.2   175  TYR175      0.2620
    129  O         11.3370   12.1800   16.5510 O.2   175  TYR175     -0.2715
    130  CB        10.7360   15.1330   16.5230 C.3   175  TYR175      0.0574
    131  CG        10.0670   16.2870   17.2370 C.ar  175  TYR175     -0.0198
    132  CD1        8.9230   16.0850   18.0120 C.ar  175  TYR175     -0.0009
    133  CD2       10.5830   17.5790   17.1520 C.ar  175  TYR175     -0.0009
    134  CE1        8.3040   17.1460   18.6810 C.ar  175  TYR175      0.0417
    135  CE2        9.9730   18.6440   17.8200 C.ar  175  TYR175      0.0417
    136  CZ         8.8370   18.4190   18.5820 C.ar  175  TYR175      0.1957
    137  OH         8.2360   19.4650   19.2400 O.3   175  TYR175     -0.2866
    138  N         13.4600   12.9220   16.4540 N.am  176  GLY176     -0.1940
    139  CA        13.9600   11.7370   15.7610 C.3   176  GLY176      0.1998
    140  C         14.0360   11.9620   14.2580 C.2   176  GLY176      0.2480
    141  O         13.4600   12.9260   13.7480 O.2   176  GLY176     -0.2729
    142  N         14.7350   11.0650   13.5370 N.am  177  PRO177     -0.2726
    143  CA        14.9490   11.1960   12.0990 C.3   177  PRO177      0.1402
    144  C         13.6650   11.1420   11.2670 C.2   177  PRO177      0.2269
    145  O         13.5690   11.8500   10.2610 O.2   177  PRO177     -0.2865
    146  CB        15.8470   10.0020   11.7700 C.3   177  PRO177      0.0296
    147  CG        15.5760    9.0190   12.8470 C.3   177  PRO177      0.0237
    148  CD        15.3510    9.8370   14.0690 C.3   177  PRO177      0.0939
    149  N         10.1060   11.6310   12.2370 N.3   179  ILE179     -0.1245
    150  CA         9.1870   12.7280   12.5000 C.3   179  ILE179      0.1561
    151  C          9.7670   14.0720   12.0340 C.2   179  ILE179      0.2260
    152  O          9.0660   14.8560   11.3910 O.2   179  ILE179     -0.2867
    153  CB         8.7460   12.7350   13.9790 C.3   179  ILE179      0.0252
    154  CG1        7.9380   11.4660   14.2680 C.3   179  ILE179      0.0019
    155  CG2        7.9110   13.9620   14.2900 C.3   179  ILE179      0.0019
    156  CD1        7.7270   11.1610   15.7350 C.3   179  ILE179      0.0001
@<TRIPOS>BOND
     1   104   103    2
     2   103   102    1
     3   101   102    1
     4   102   105    1
     5   105   106    1
     6   145   144    2
     7   106   107    1
     8   144   143    1
     9   107   108    1
    10   152   151    2
    11   146   143    1
    12   146   147    1
    13   151   150    1
    14   143   142    1
    15   149   150    1
    16   150   153    1
    17   108   109    1
    18   147   148    1
    19   142   148    1
    20   142   140   am
    21   141   140    2
    22   114   111    1
    23   153   154    1
    24   153   155    1
    25   140   139    1
    26   154   156    1
    27   110   111    1
    28   111   112    1
    29   139   138    1
    30   112   113    2
    31   112   115   am
    32   121   115    1
    33   121   120    1
    34   138   128   am
    35   130   131    1
    36   130   127    1
    37   129   128    2
    38   128   127    1
    39   115   116    1
    40   133   131   ar
    41   133   135   ar
    42   131   132   ar
    43   127   126    1
    44   120   119    1
    45    94    95    2
    46    94    93    1
    47   126   124   am
    48   135   136   ar
    49   132   134   ar
    50   116   119    1
    51   116   117    1
    52    93    96    1
    53    93    92    1
    54   122   117   am
    55   122   123    1
    56   136   134   ar
    57   136   137    1
    58   124   123    1
    59   124   125    2
    60    96    97    1
    61   117   118    2
    62    92    83   am
    63    84    83    2
    64    97    98    1
    65    83    82    1
    66    85    86    1
    67    85    82    1
    68    98    99    1
    69    99   100    1
    70    86    87   ar
    71    86    88   ar
    72    82    81    1
    73    87    89   ar
    74    40    39    2
    75    80    78   ar
    76    80    79   ar
    77    88    90   ar
    78    78    76   ar
    79    42    43    1
    80    42    41    1
    81    89    91   ar
    82    81    72   am
    83    43    44    1
    84    39    38    1
    85    79    77   ar
    86    90    91   ar
    87    76    75   ar
    88    17    15   ar
    89     8     7   ar
    90    41    38    1
    91    44    45    2
    92    72    73    2
    93    72    71    1
    94    77    75   ar
    95    38    37    1
    96    75    74    1
    97    66    65    2
    98    35    34    1
    99    71    74    1
   100    71    70    1
   101    15    16   ar
   102    15    14    1
   103    45    46    1
   104    45    47    1
   105    33    32    2
   106     7     6    1
   107     7     9   ar
   108    65    70   am
   109    65    64    1
   110     6     5    1
   111    14    11    1
   112     5     2    1
   113    32    31    1
   114    34    31    1
   115    34    36    1
   116     2     3    1
   117     2     1    1
   118    48    49    1
   119    31    30    1
   120    54    53    1
   121    64    67    1
   122    64    63    1
   123    10    11    1
   124     3     4    2
   125    67    69    1
   126    67    68    1
   127    52    53    1
   128    52    49    1
   129    11    12    1
   130    27    26    2
   131    53    55    1
   132    59    58    2
   133    49    50    1
   134    63    58   am
   135    30    26   am
   136    58    57    1
   137    26    25    1
   138    13    12    2
   139    12    18   am
   140    51    50    2
   141    57    56    1
   142    57    60    1
   143    18    19    1
   144    25    24    1
   145    25    28    1
   146    24    20   am
   147    29    28    1
   148    20    19    1
   149    20    21    2
   150    60    62    1
   151    60    61    1
   152    19    22    1
   153    22    23    1
