@<TRIPOS>MOLECULE
tmp/3p6yF00.pdb
 102 104 0 0 0
SMALL
GASTEIGER

@<TRIPOS>ATOM
      1  N         38.6360  -11.5600   28.9310 N.3    69  THR69      -0.1203
      2  CA        37.8350  -11.6320   30.1560 C.3    69  THR69       0.1994
      3  C         38.3440  -12.6070   31.2170 C.2    69  THR69       0.2618
      4  O         38.1520  -12.3590   32.4070 O.2    69  THR69      -0.2717
      5  CB        36.3310  -11.9080   29.8640 C.3    69  THR69       0.1784
      6  OG1       36.1910  -13.1360   29.1370 O.3    69  THR69      -0.2211
      7  CG2       35.7090  -10.7650   29.0640 C.3    69  THR69       0.0376
      8  N         38.9960  -13.6940   30.8010 N.am   70  PHE70      -0.1961
      9  CA        39.3620  -14.7790   31.7290 C.3    70  PHE70       0.1771
     10  C         40.6990  -14.6070   32.4680 C.2    70  PHE70       0.2620
     11  O         41.7720  -14.7240   31.8690 O.2    70  PHE70      -0.2715
     12  CB        39.3230  -16.1370   31.0150 C.3    70  PHE70       0.0574
     13  CG        39.6040  -17.3080   31.9200 C.ar   70  PHE70      -0.0200
     14  CD1       38.6000  -17.8370   32.7300 C.ar   70  PHE70      -0.0042
     15  CD2       40.8720  -17.8860   31.9610 C.ar   70  PHE70      -0.0042
     16  CE1       38.8560  -18.9240   33.5720 C.ar   70  PHE70      -0.0003
     17  CE2       41.1410  -18.9720   32.7990 C.ar   70  PHE70      -0.0003
     18  CZ        40.1300  -19.4920   33.6060 C.ar   70  PHE70      -0.0000
     19  N         40.6140  -14.3540   33.7740 N.am   71  PHE71      -0.1960
     20  CA        41.7860  -14.2160   34.6460 C.3    71  PHE71       0.1771
     21  C         41.9420  -15.4530   35.5340 C.2    71  PHE71       0.2619
     22  O         40.9590  -16.0380   35.9690 O.2    71  PHE71      -0.2715
     23  CB        41.6500  -12.9750   35.5390 C.3    71  PHE71       0.0574
     24  CG        41.5900  -11.6740   34.7840 C.ar   71  PHE71      -0.0200
     25  CD1       42.7510  -10.9520   34.5300 C.ar   71  PHE71      -0.0042
     26  CD2       40.3780  -11.1620   34.3410 C.ar   71  PHE71      -0.0042
     27  CE1       42.7060   -9.7460   33.8370 C.ar   71  PHE71      -0.0003
     28  CE2       40.3240   -9.9550   33.6450 C.ar   71  PHE71      -0.0003
     29  CZ        41.4920   -9.2470   33.3940 C.ar   71  PHE71      -0.0000
     30  N         43.1790  -15.8540   35.8070 N.am   72  LYS72      -0.1977
     31  CA        43.4250  -16.9600   36.7400 C.3    72  LYS72       0.1596
     32  C         44.7070  -16.7870   37.5590 C.2    72  LYS72       0.2287
     33  O         45.6610  -16.1470   37.1130 O.2    72  LYS72      -0.2864
     34  CB        43.4110  -18.3180   36.0210 C.3    72  LYS72       0.0298
     35  CG        44.5850  -18.5670   35.0980 C.3    72  LYS72       0.0038
     36  CD        44.8560  -20.0560   34.9520 C.3    72  LYS72       0.0206
     37  CE        46.2130  -20.3070   34.3040 C.3    72  LYS72       0.1093
     38  NZ        46.5340  -21.7550   34.2040 N.3    72  LYS72      -0.1314
     39  N         40.1220  -27.0370   46.3590 N.3   139  LYS139     -0.1245
     40  CA        41.1140  -26.0250   45.9970 C.3   139  LYS139      0.1561
     41  C         41.6420  -25.2970   47.2290 C.2   139  LYS139      0.2260
     42  O         40.8700  -24.9190   48.1130 O.2   139  LYS139     -0.2867
     43  CB        40.5130  -25.0200   45.0160 C.3   139  LYS139      0.0271
     44  CG        41.4530  -23.9010   44.6070 C.3   139  LYS139      0.0035
     45  CD        40.7840  -22.9390   43.6460 C.3   139  LYS139      0.0206
     46  CE        40.7000  -23.5280   42.2480 C.3   139  LYS139      0.1093
     47  NZ        40.0370  -22.5860   41.3120 N.3   139  LYS139     -0.1314
     48  N         32.5160  -10.0610   41.1610 N.3   172  ALA172     -0.1231
     49  CA        32.4100  -11.4410   40.6770 C.3   172  ALA172      0.1679
     50  C         32.1410  -11.5370   39.1640 C.2   172  ALA172      0.2434
     51  O         32.7100  -12.4060   38.5030 O.2   172  ALA172     -0.2733
     52  CB        31.3560  -12.2170   41.4720 C.3   172  ALA172      0.0304
     53  N         31.2780  -10.6530   38.6080 N.am  173  PRO173     -0.2718
     54  CA        31.1640  -10.6080   37.1420 C.3   173  PRO173      0.1535
     55  C         32.5210  -10.4510   36.4560 C.2   173  PRO173      0.2599
     56  O         32.7610  -11.0660   35.4150 O.2   173  PRO173     -0.2715
     57  CB        30.3080   -9.3650   36.8940 C.3   173  PRO173      0.0310
     58  CG        29.4530   -9.2640   38.0990 C.3   173  PRO173      0.0237
     59  CD        30.2780   -9.7760   39.2540 C.3   173  PRO173      0.0939
     60  N         33.4000   -9.6480   37.0490 N.am  174  GLY174     -0.1941
     61  CA        34.7400   -9.4540   36.5220 C.3   174  GLY174      0.2014
     62  C         35.6450  -10.6640   36.6680 C.2   174  GLY174      0.2639
     63  O         36.2410  -11.1170   35.6870 O.2   174  GLY174     -0.2714
     64  N         35.7370  -11.2030   37.8830 N.am  175  TYR175     -0.1959
     65  CA        36.8130  -12.1420   38.2130 C.3   175  TYR175      0.1771
     66  C         36.3970  -13.5130   38.7670 C.2   175  TYR175      0.2620
     67  O         37.2460  -14.3860   38.9490 O.2   175  TYR175     -0.2715
     68  CB        37.8160  -11.4690   39.1610 C.3   175  TYR175      0.0574
     69  CG        38.4570  -10.2210   38.5910 C.ar  175  TYR175     -0.0198
     70  CD1       39.5590  -10.3060   37.7380 C.ar  175  TYR175     -0.0009
     71  CD2       37.9620   -8.9550   38.9010 C.ar  175  TYR175     -0.0009
     72  CE1       40.1510   -9.1600   37.2060 C.ar  175  TYR175      0.0417
     73  CE2       38.5480   -7.8020   38.3710 C.ar  175  TYR175      0.0417
     74  CZ        39.6390   -7.9150   37.5250 C.ar  175  TYR175      0.1957
     75  OH        40.2210   -6.7850   36.9990 O.3   175  TYR175     -0.2866
     76  N         35.1070  -13.7080   39.0180 N.am  176  GLY176     -0.1940
     77  CA        34.6240  -14.9520   39.6210 C.3   176  GLY176      0.1998
     78  C         34.5830  -14.8450   41.1370 C.2   176  GLY176      0.2481
     79  O         35.1740  -13.9270   41.7050 O.2   176  GLY176     -0.2729
     80  N         33.8930  -15.7880   41.8100 N.am  177  PRO177     -0.2715
     81  CA        33.6810  -15.6980   43.2610 C.3   177  PRO177      0.1536
     82  C         34.9360  -15.8620   44.1250 C.2   177  PRO177      0.2598
     83  O         34.9420  -15.4020   45.2690 O.2   177  PRO177     -0.2715
     84  CB        32.7010  -16.8410   43.5430 C.3   177  PRO177      0.0310
     85  CG        32.9260  -17.8130   42.4400 C.3   177  PRO177      0.0237
     86  CD        33.2380  -16.9780   41.2340 C.3   177  PRO177      0.0939
     87  N         35.9760  -16.5110   43.6000 N.am  178  ILE178     -0.1964
     88  CA        37.1980  -16.7640   44.3790 C.3   178  ILE178      0.1727
     89  C         38.1280  -15.5470   44.3680 C.2   178  ILE178      0.2616
     90  O         38.3910  -14.9460   45.4100 O.2   178  ILE178     -0.2715
     91  CB        37.9530  -18.0470   43.9010 C.3   178  ILE178      0.0290
     92  CG1       37.0510  -19.2820   44.0220 C.3   178  ILE178      0.0022
     93  CG2       39.2420  -18.2530   44.6950 C.3   178  ILE178      0.0023
     94  CD1       37.4900  -20.4740   43.1780 C.3   178  ILE178      0.0001
     95  N         38.6150  -15.1890   43.1850 N.am  179  ILE179     -0.1977
     96  CA        39.4940  -14.0370   43.0240 C.3   179  ILE179      0.1596
     97  C         38.8640  -12.7440   43.5660 C.2   179  ILE179      0.2287
     98  O         39.5050  -12.0150   44.3180 O.2   179  ILE179     -0.2864
     99  CB        39.9460  -13.8700   41.5460 C.3   179  ILE179      0.0276
    100  CG1       40.8370  -15.0490   41.1380 C.3   179  ILE179      0.0022
    101  CG2       40.6710  -12.5300   41.3410 C.3   179  ILE179      0.0022
    102  CD1       41.0950  -15.1650   39.6430 C.3   179  ILE179      0.0001
@<TRIPOS>BOND
     1     1     2    1
     2     7     5    1
     3     6     5    1
     4     5     2    1
     5     2     3    1
     6     8     3   am
     7     8     9    1
     8    12     9    1
     9    12    13    1
    10     3     4    2
    11     9    10    1
    12    11    10    2
    13    13    15   ar
    14    13    14   ar
    15    15    17   ar
    16    10    19   am
    17    14    16   ar
    18    17    18   ar
    19    29    28   ar
    20    29    27   ar
    21    16    18   ar
    22    28    26   ar
    23    19    20    1
    24    27    25   ar
    25    38    37    1
    26    37    36    1
    27    26    24   ar
    28    25    24   ar
    29    20    21    1
    30    20    23    1
    31    24    23    1
    32    36    35    1
    33    35    34    1
    34    56    55    2
    35    21    30   am
    36    21    22    2
    37    63    62    2
    38    30    31    1
    39    34    31    1
    40    55    60   am
    41    55    54    1
    42    61    62    1
    43    61    60    1
    44    62    64   am
    45    31    32    1
    46    57    54    1
    47    57    58    1
    48    75    74    1
    49    33    32    2
    50    54    53    1
    51    72    74   ar
    52    72    70   ar
    53    74    73   ar
    54    70    69   ar
    55    64    65    1
    56    58    59    1
    57    65    66    1
    58    65    68    1
    59    73    71   ar
    60    51    50    2
    61    69    71   ar
    62    69    68    1
    63    53    50   am
    64    53    59    1
    65    66    67    2
    66    66    76   am
    67    76    77    1
    68    50    49    1
    69    77    78    1
    70   102   100    1
    71    49    48    1
    72    49    52    1
    73    78    79    2
    74    78    80   am
    75   100    99    1
    76    86    80    1
    77    86    85    1
    78    47    46    1
    79   101    99    1
    80    99    96    1
    81    80    81    1
    82    46    45    1
    83    85    84    1
    84    96    95    1
    85    96    97    1
    86    94    92    1
    87    95    89   am
    88    81    84    1
    89    81    82    1
    90    97    98    2
    91    87    82   am
    92    87    88    1
    93    45    44    1
    94    91    92    1
    95    91    88    1
    96    91    93    1
    97    82    83    2
    98    89    88    1
    99    89    90    2
   100    44    43    1
   101    43    40    1
   102    40    39    1
   103    40    41    1
   104    41    42    2
