@<TRIPOS>MOLECULE
tmp/3p6yA00.pdb
 85 87 0 0 0
SMALL
GASTEIGER

@<TRIPOS>ATOM
      1  N         32.7500   21.1730   -5.2670 N.3    69  THR69      -0.1203
      2  CA        32.0010   21.5050   -4.0670 C.3    69  THR69       0.1994
      3  C         30.5190   21.6900   -4.3600 C.2    69  THR69       0.2618
      4  O         29.6770   21.4040   -3.5040 O.2    69  THR69      -0.2717
      5  CB        32.5380   22.8050   -3.4260 C.3    69  THR69       0.1784
      6  OG1       32.7820   23.7790   -4.4510 O.3    69  THR69      -0.2211
      7  CG2       33.8350   22.5430   -2.6620 C.3    69  THR69       0.0376
      8  N         30.2010   22.1660   -5.5630 N.am   70  PHE70      -0.1961
      9  CA        28.8200   22.4900   -5.9010 C.3    70  PHE70       0.1771
     10  C         28.1400   21.4660   -6.8180 C.2    70  PHE70       0.2620
     11  O         28.6250   21.1720   -7.9080 O.2    70  PHE70      -0.2715
     12  CB        28.7200   23.9060   -6.4830 C.3    70  PHE70       0.0574
     13  CG        27.3200   24.4500   -6.4980 C.ar   70  PHE70      -0.0200
     14  CD1       26.6940   24.8250   -5.3080 C.ar   70  PHE70      -0.0042
     15  CD2       26.6180   24.5730   -7.6940 C.ar   70  PHE70      -0.0042
     16  CE1       25.3910   25.3160   -5.3100 C.ar   70  PHE70      -0.0003
     17  CE2       25.3140   25.0650   -7.7080 C.ar   70  PHE70      -0.0003
     18  CZ        24.6990   25.4370   -6.5140 C.ar   70  PHE70      -0.0000
     19  N         27.0130   20.9340   -6.3480 N.am   71  PHE71      -0.1960
     20  CA        26.1700   20.0090   -7.1090 C.3    71  PHE71       0.1771
     21  C         24.7770   20.5930   -7.3070 C.2    71  PHE71       0.2619
     22  O         24.2740   21.3120   -6.4470 O.2    71  PHE71      -0.2715
     23  CB        26.0240   18.6760   -6.3710 C.3    71  PHE71       0.0574
     24  CG        27.3150   17.9470   -6.1590 C.ar   71  PHE71      -0.0200
     25  CD1       27.8450   17.1420   -7.1600 C.ar   71  PHE71      -0.0042
     26  CD2       27.9940   18.0480   -4.9500 C.ar   71  PHE71      -0.0042
     27  CE1       29.0390   16.4560   -6.9630 C.ar   71  PHE71      -0.0003
     28  CE2       29.1880   17.3660   -4.7450 C.ar   71  PHE71      -0.0003
     29  CZ        29.7110   16.5690   -5.7540 C.ar   71  PHE71      -0.0000
     30  N         24.1480   20.2780   -8.4320 N.am   72  LYS72      -0.1977
     31  CA        22.7460   20.6410   -8.6350 C.3    72  LYS72       0.1596
     32  C         21.9880   19.6150   -9.4770 C.2    72  LYS72       0.2287
     33  O         22.5900   18.7400  -10.1010 O.2    72  LYS72      -0.2864
     34  CB        22.6110   22.0500   -9.2280 C.3    72  LYS72       0.0298
     35  CG        22.9790   22.1920  -10.7040 C.3    72  LYS72       0.0038
     36  CD        22.6130   23.5910  -11.1850 C.3    72  LYS72       0.0206
     37  CE        23.1840   23.9130  -12.5580 C.3    72  LYS72       0.1093
     38  NZ        22.3440   23.4280  -13.6990 N.3    72  LYS72      -0.1314
     39  N         23.7690   17.5620    4.3750 N.3   172  ALA172     -0.1231
     40  CA        23.5360   18.9290    3.8990 C.3   172  ALA172      0.1679
     41  C         24.8230   19.7370    3.6510 C.2   172  ALA172      0.2434
     42  O         24.8630   20.5380    2.7150 O.2   172  ALA172     -0.2733
     43  CB        22.5930   19.6780    4.8330 C.3   172  ALA172      0.0304
     44  N         25.8800   19.5390    4.4760 N.am  173  PRO173     -0.2718
     45  CA        27.1290   20.2580    4.1840 C.3   173  PRO173      0.1535
     46  C         27.7780   19.8360    2.8670 C.2   173  PRO173      0.2599
     47  O         28.6070   20.5690    2.3340 O.2   173  PRO173     -0.2715
     48  CB        28.0430   19.8740    5.3520 C.3   173  PRO173      0.0310
     49  CG        27.1350   19.4030    6.4230 C.3   173  PRO173      0.0237
     50  CD        25.9950   18.7490    5.7180 C.3   173  PRO173      0.0939
     51  N         27.4000   18.6660    2.3560 N.am  174  GLY174     -0.1941
     52  CA        27.9650   18.1310    1.1230 C.3   174  GLY174      0.2014
     53  C         27.1320   18.3810   -0.1230 C.2   174  GLY174      0.2639
     54  O         27.6690   18.3610   -1.2350 O.2   174  GLY174     -0.2714
     55  N         25.8280   18.6170    0.0500 N.am  175  TYR175     -0.1959
     56  CA        24.8980   18.7140   -1.0860 C.3   175  TYR175      0.1771
     57  C         23.8240   19.8100   -0.9900 C.2   175  TYR175      0.2620
     58  O         23.0540   20.0200   -1.9360 O.2   175  TYR175     -0.2715
     59  CB        24.2310   17.3540   -1.3340 C.3   175  TYR175      0.0574
     60  CG        25.2000   16.2790   -1.7700 C.ar  175  TYR175     -0.0198
     61  CD1       25.5520   16.1330   -3.1130 C.ar  175  TYR175     -0.0009
     62  CD2       25.7750   15.4150   -0.8370 C.ar  175  TYR175     -0.0009
     63  CE1       26.4520   15.1520   -3.5150 C.ar  175  TYR175      0.0417
     64  CE2       26.6750   14.4320   -1.2270 C.ar  175  TYR175      0.0417
     65  CZ        27.0100   14.3040   -2.5630 C.ar  175  TYR175      0.1957
     66  OH        27.9060   13.3300   -2.9510 O.3   175  TYR175     -0.2866
     67  N         23.7770   20.5070    0.1400 N.am  176  GLY176     -0.1940
     68  CA        22.7020   21.4650    0.4040 C.3   176  GLY176      0.1998
     69  C         21.4950   20.7770    1.0230 C.2   176  GLY176      0.2480
     70  O         21.4500   19.5500    1.0930 O.2   176  GLY176     -0.2729
     71  N         20.5010   21.5600    1.4740 N.am  177  PRO177     -0.2726
     72  CA        19.3630   20.9620    2.1700 C.3   177  PRO177      0.1402
     73  C         18.3170   20.3250    1.2440 C.2   177  PRO177      0.2269
     74  O         17.4700   19.5610    1.7150 O.2   177  PRO177     -0.2865
     75  CB        18.7540   22.1510    2.9130 C.3   177  PRO177      0.0296
     76  CG        19.0650   23.3190    2.0500 C.3   177  PRO177      0.0237
     77  CD        20.3910   23.0280    1.3940 C.3   177  PRO177      0.0939
     78  N         18.9610   18.6380   -2.0980 N.3   179  ILE179     -0.1245
     79  CA        19.5060   17.3560   -2.5620 C.3   179  ILE179      0.1561
     80  C         19.6930   16.3490   -1.4140 C.2   179  ILE179      0.2260
     81  O         19.4030   15.1690   -1.5790 O.2   179  ILE179     -0.2867
     82  CB        20.8190   17.5370   -3.3730 C.3   179  ILE179      0.0252
     83  CG1       20.5570   18.3890   -4.6200 C.3   179  ILE179      0.0019
     84  CG2       21.3890   16.1860   -3.7890 C.3   179  ILE179      0.0019
     85  CD1       21.7970   19.0150   -5.2300 C.3   179  ILE179      0.0001
@<TRIPOS>BOND
     1    38    37    1
     2    37    36    1
     3    36    35    1
     4    35    34    1
     5    33    32    2
     6    32    31    1
     7    34    31    1
     8    31    30    1
     9    30    21   am
    10    11    10    2
    11    17    15   ar
    12    17    18   ar
    13    15    13   ar
    14    21    20    1
    15    21    22    2
    16    25    27   ar
    17    25    24   ar
    18    20    23    1
    19    20    19    1
    20    27    29   ar
    21    10    19   am
    22    10     9    1
    23    18    16   ar
    24    13    12    1
    25    13    14   ar
    26    12     9    1
    27    23    24    1
    28    24    26   ar
    29     9     8    1
    30    29    28   ar
    31     8     3   am
    32    16    14   ar
    33     1     2    1
    34    85    83    1
    35    26    28   ar
    36    83    82    1
    37     6     5    1
    38     3     2    1
    39     3     4    2
    40     2     5    1
    41    84    82    1
    42    63    61   ar
    43    63    65   ar
    44     5     7    1
    45    82    79    1
    46    61    60   ar
    47    66    65    1
    48    65    64   ar
    49    79    78    1
    50    79    80    1
    51    58    57    2
    52    60    59    1
    53    60    62   ar
    54    81    80    2
    55    59    56    1
    56    54    53    2
    57    64    62   ar
    58    56    57    1
    59    56    55    1
    60    57    67   am
    61    53    55   am
    62    53    52    1
    63    67    68    1
    64    68    69    1
    65    69    70    2
    66    69    71   am
    67    52    51    1
    68    73    74    2
    69    73    72    1
    70    77    71    1
    71    77    76    1
    72    71    72    1
    73    76    75    1
    74    72    75    1
    75    47    46    2
    76    51    46   am
    77    42    41    2
    78    46    45    1
    79    41    40    1
    80    41    44   am
    81    40    39    1
    82    40    43    1
    83    45    44    1
    84    45    48    1
    85    44    50    1
    86    48    49    1
    87    50    49    1
