@<TRIPOS>MOLECULE
tmp/3p6yM00.pdb
 132 130 0 0 0
SMALL
GASTEIGER

@<TRIPOS>ATOM
      1  N         77.9980  -11.2330   16.1140 N.3    22  GLU22      -0.1245
      2  CA        76.8230  -11.7810   15.4320 C.3    22  GLU22       0.1567
      3  C         76.7210  -13.2850   15.6780 C.2    22  GLU22       0.2260
      4  O         77.7410  -13.9590   15.8510 O.2    22  GLU22      -0.2867
      5  CB        76.8820  -11.4870   13.9300 C.3    22  GLU22       0.0388
      6  CG        76.7440  -10.0600   13.5550 C.3    22  GLU22       0.1160
      7  CD        77.0880   -9.7510   12.1100 C.2    22  GLU22       0.3649
      8  OE1       77.5670  -10.6430   11.3670 O.co2  22  GLU22      -0.2457
      9  OE2       76.9960   -8.6200   11.6910 O.co2  22  GLU22      -0.2457
     10  N         79.7300  -16.5730   12.5110 N.3    25  SER25      -0.1202
     11  CA        80.9780  -15.9390   12.0810 C.3    25  SER25       0.2020
     12  C         81.1810  -15.9260   10.5650 C.2    25  SER25       0.2619
     13  O         81.5310  -14.8930    9.9930 O.2    25  SER25      -0.2717
     14  CB        82.1750  -16.5980   12.7710 C.3    25  SER25       0.2103
     15  OG        82.4000  -17.9010   12.3530 O.3    25  SER25      -0.2182
     16  N         80.9680  -17.0700    9.9210 N.am   26  SER26      -0.1937
     17  CA        81.1750  -17.1810    8.4820 C.3    26  SER26       0.2055
     18  C         79.9950  -16.6170    7.6900 C.2    26  SER26       0.2642
     19  O         78.9800  -16.2110    8.2640 O.2    26  SER26      -0.2714
     20  CB        81.4040  -18.6400    8.0960 C.3    26  SER26       0.2130
     21  OG        80.2280  -19.4030    8.2420 O.3    26  SER26      -0.2179
     22  N         80.1510  -16.5930    6.3690 N.am   27  VAL27      -0.1977
     23  CA        79.0500  -16.3110    5.4560 C.3    27  VAL27       0.1596
     24  C         78.2690  -17.6100    5.2260 C.2    27  VAL27       0.2287
     25  O         77.0420  -17.5970    5.1300 O.2    27  VAL27      -0.2864
     26  CB        79.5570  -15.7160    4.1190 C.3    27  VAL27       0.0276
     27  CG1       78.3990  -15.4300    3.1700 C.3    27  VAL27       0.0022
     28  CG2       80.3600  -14.4410    4.3710 C.3    27  VAL27       0.0022
     29  N         75.9840  -18.2890    8.3580 N.3    30  ARG30      -0.1245
     30  CA        74.7640  -17.4860    8.4540 C.3    30  ARG30       0.1563
     31  C         73.6970  -17.9320    7.4540 C.2    30  ARG30       0.2260
     32  O         72.5020  -17.8100    7.7260 O.2    30  ARG30      -0.2867
     33  CB        75.0560  -15.9810    8.3430 C.3    30  ARG30       0.0307
     34  CG        75.0370  -15.3940    6.9330 C.3    30  ARG30       0.0489
     35  CD        75.0070  -13.8680    6.9550 C.3    30  ARG30       0.2205
     36  NE        76.3230  -13.2930    7.2390 N.pl3  30  ARG30      -0.0865
     37  CZ        76.7210  -12.8540    8.4310 C.cat  30  ARG30       0.5346
     38  NH1       75.9100  -12.9070    9.4810 N.pl3  30  ARG30       0.1354
     39  NH2       77.9410  -12.3570    8.5780 N.pl3  30  ARG30       0.1354
     40  N         82.0200   -2.8760   10.3310 N.3    66  LEU66      -0.1245
     41  CA        82.7250   -4.0050   10.9400 C.3    66  LEU66       0.1561
     42  C         84.1470   -4.1900   10.4420 C.2    66  LEU66       0.2260
     43  O         85.0910   -4.1220   11.2300 O.2    66  LEU66      -0.2867
     44  CB        81.9370   -5.3090   10.7940 C.3    66  LEU66       0.0270
     45  CG        81.2350   -5.7570   12.0750 C.3    66  LEU66       0.0019
     46  CD1       80.2690   -4.6880   12.4860 C.3    66  LEU66       0.0001
     47  CD2       80.5090   -7.0770   11.8750 C.3    66  LEU66       0.0001
     48  N         85.4000   -2.6290    5.0370 N.3    69  THR69      -0.1203
     49  CA        84.6250   -2.6750    3.8070 C.3    69  THR69       0.1994
     50  C         83.1360   -2.9310    4.0370 C.2    69  THR69       0.2618
     51  O         82.3250   -2.6960    3.1360 O.2    69  THR69      -0.2717
     52  CB        85.1910   -3.7500    2.8420 C.3    69  THR69       0.1784
     53  OG1       85.6630   -4.8750    3.5960 O.3    69  THR69      -0.2211
     54  CG2       86.3450   -3.1840    2.0180 C.3    69  THR69       0.0376
     55  N         82.7770   -3.4020    5.2330 N.am   70  PHE70      -0.1961
     56  CA        81.3920   -3.8060    5.5050 C.3    70  PHE70       0.1771
     57  C         80.5860   -2.8620    6.4120 C.2    70  PHE70       0.2620
     58  O         80.9940   -2.5560    7.5350 O.2    70  PHE70      -0.2715
     59  CB        81.3370   -5.2390    6.0400 C.3    70  PHE70       0.0574
     60  CG        79.9570   -5.8200    6.0430 C.ar   70  PHE70      -0.0200
     61  CD1       79.3720   -6.2570    4.8560 C.ar   70  PHE70      -0.0042
     62  CD2       79.2300   -5.9140    7.2270 C.ar   70  PHE70      -0.0042
     63  CE1       78.0810   -6.7870    4.8480 C.ar   70  PHE70      -0.0003
     64  CE2       77.9400   -6.4440    7.2330 C.ar   70  PHE70      -0.0003
     65  CZ        77.3650   -6.8810    6.0410 C.ar   70  PHE70      -0.0000
     66  N         79.4290   -2.4290    5.9100 N.am   71  PHE71      -0.1960
     67  CA        78.5350   -1.5120    6.6200 C.3    71  PHE71       0.1771
     68  C         77.1530   -2.1270    6.8310 C.2    71  PHE71       0.2619
     69  O         76.6990   -2.9340    6.0210 O.2    71  PHE71      -0.2715
     70  CB        78.3750   -0.2080    5.8370 C.3    71  PHE71       0.0574
     71  CG        79.6550    0.5430    5.6290 C.ar   71  PHE71      -0.0200
     72  CD1       80.0710    1.4970    6.5520 C.ar   71  PHE71      -0.0042
     73  CD2       80.4350    0.3140    4.5020 C.ar   71  PHE71      -0.0042
     74  CE1       81.2530    2.2020    6.3620 C.ar   71  PHE71      -0.0003
     75  CE2       81.6190    1.0120    4.3020 C.ar   71  PHE71      -0.0003
     76  CZ        82.0300    1.9570    5.2350 C.ar   71  PHE71      -0.0000
     77  N         76.4890   -1.7370    7.9180 N.am   72  LYS72      -0.1977
     78  CA        75.0940   -2.1240    8.1540 C.3    72  LYS72       0.1596
     79  C         74.3670   -1.1720    9.1060 C.2    72  LYS72       0.2287
     80  O         74.9980   -0.3770    9.8060 O.2    72  LYS72      -0.2864
     81  CB        74.9820   -3.5780    8.6430 C.3    72  LYS72       0.0298
     82  CG        75.3240   -3.8190   10.1110 C.3    72  LYS72       0.0038
     83  CD        74.8960   -5.2270   10.5160 C.3    72  LYS72       0.0206
     84  CE        75.3870   -5.6130   11.9090 C.3    72  LYS72       0.1093
     85  NZ        74.6640   -4.9160   13.0190 N.3    72  LYS72      -0.1314
     86  N         76.0670    1.1410   -4.8870 N.3   172  ALA172     -0.1231
     87  CA        75.8530   -0.2490   -4.4860 C.3   172  ALA172      0.1679
     88  C         77.1700   -0.9920   -4.2150 C.2   172  ALA172      0.2434
     89  O         77.2510   -1.7330   -3.2340 O.2   172  ALA172     -0.2733
     90  CB        75.0010   -0.9910   -5.5190 C.3   172  ALA172      0.0304
     91  N         78.2100   -0.7880   -5.0630 N.am  173  PRO173     -0.2718
     92  CA        79.4740   -1.4950   -4.8030 C.3   173  PRO173      0.1535
     93  C         80.1430   -1.1130   -3.4830 C.2   173  PRO173      0.2599
     94  O         81.0160   -1.8380   -3.0110 O.2   173  PRO173     -0.2715
     95  CB        80.3630   -1.0790   -5.9820 C.3   173  PRO173      0.0310
     96  CG        79.4140   -0.6910   -7.0540 C.3   173  PRO173      0.0237
     97  CD        78.2730   -0.0410   -6.3350 C.3   173  PRO173      0.0939
     98  N         79.7310    0.0040   -2.8930 N.am  174  GLY174     -0.1941
     99  CA        80.3290    0.4690   -1.6460 C.3   174  GLY174      0.2014
    100  C         79.5120    0.1870   -0.3990 C.2   174  GLY174      0.2639
    101  O         80.0610    0.1700    0.7100 O.2   174  GLY174     -0.2714
    102  N         78.2060   -0.0360   -0.5720 N.am  175  TYR175     -0.1959
    103  CA        77.2770   -0.0990    0.5610 C.3   175  TYR175      0.1771
    104  C         76.1320   -1.1140    0.4250 C.2   175  TYR175      0.2620
    105  O         75.3230   -1.2690    1.3530 O.2   175  TYR175     -0.2715
    106  CB        76.6980    1.2950    0.8350 C.3   175  TYR175      0.0574
    107  CG        77.7020    2.3020    1.3550 C.ar  175  TYR175     -0.0198
    108  CD1       77.9690    2.4050    2.7180 C.ar  175  TYR175     -0.0009
    109  CD2       78.3770    3.1610    0.4820 C.ar  175  TYR175     -0.0009
    110  CE1       78.8880    3.3370    3.2010 C.ar  175  TYR175      0.0417
    111  CE2       79.3010    4.0900    0.9520 C.ar  175  TYR175      0.0417
    112  CZ        79.5500    4.1770    2.3120 C.ar  175  TYR175      0.1957
    113  OH        80.4630    5.0900    2.7950 O.3   175  TYR175     -0.2866
    114  N         76.0590   -1.8010   -0.7130 N.am  176  GLY176     -0.1940
    115  CA        74.9840   -2.7690   -0.9560 C.3   176  GLY176      0.1998
    116  C         73.7030   -2.1040   -1.4290 C.2   176  GLY176      0.2480
    117  O         73.4990   -0.9140   -1.1850 O.2   176  GLY176     -0.2729
    118  N         72.8180   -2.8710   -2.0970 N.am  177  PRO177     -0.2726
    119  CA        71.6400   -2.2890   -2.7490 C.3   177  PRO177      0.1402
    120  C         70.6190   -1.6750   -1.7920 C.2   177  PRO177      0.2269
    121  O         69.8650   -0.7950   -2.1980 O.2   177  PRO177     -0.2865
    122  CB        71.0260   -3.4770   -3.4920 C.3   177  PRO177      0.0296
    123  CG        71.4910   -4.6690   -2.7510 C.3   177  PRO177      0.0237
    124  CD        72.8660   -4.3350   -2.2620 C.3   177  PRO177      0.0939
    125  N         71.2680   -0.1510    1.5430 N.3   179  ILE179     -0.1245
    126  CA        71.7690    1.1150    2.0860 C.3   179  ILE179      0.1561
    127  C         71.9370    2.1790    0.9900 C.2   179  ILE179      0.2260
    128  O         71.5250    3.3230    1.1680 O.2   179  ILE179     -0.2867
    129  CB        73.0730    0.9230    2.9050 C.3   179  ILE179      0.0252
    130  CG1       72.7890    0.0810    4.1550 C.3   179  ILE179      0.0019
    131  CG2       73.6650    2.2720    3.3050 C.3   179  ILE179      0.0019
    132  CD1       74.0150   -0.2990    4.9560 C.3   179  ILE179      0.0001
@<TRIPOS>BOND
     1    96    97    1
     2    96    95    1
     3    97    91    1
     4    95    92    1
     5    90    87    1
     6    91    92    1
     7    91    88   am
     8    86    87    1
     9    92    93    1
    10    87    88    1
    11    88    89    2
    12   122   123    1
    13   122   119    1
    14    93    94    2
    15    93    98   am
    16    98    99    1
    17   123   124    1
    18   119   118    1
    19   119   120    1
    20   124   118    1
    21   121   120    2
    22   118   116   am
    23    99   100    1
    24   116   117    2
    25   116   115    1
    26   115   114    1
    27   114   104   am
    28   102   100   am
    29   102   103    1
    30   100   101    2
    31   104   103    1
    32   104   105    2
    33   109   111   ar
    34   109   107   ar
    35   103   106    1
    36   106   107    1
    37   111   112   ar
    38   127   128    2
    39   127   126    1
    40   107   108   ar
    41   125   126    1
    42    54    52    1
    43   126   129    1
    44   112   113    1
    45   112   110   ar
    46   108   110   ar
    47    52    53    1
    48    52    49    1
    49   129   131    1
    50   129   130    1
    51    51    50    2
    52    27    26    1
    53    49    50    1
    54    49    48    1
    55    50    55   am
    56    26    28    1
    57    26    23    1
    58   130   132    1
    59    75    73   ar
    60    75    76   ar
    61    73    71   ar
    62    63    61   ar
    63    63    65   ar
    64    61    60   ar
    65    25    24    2
    66    24    23    1
    67    55    56    1
    68    76    74   ar
    69    23    22    1
    70    56    59    1
    71    56    57    1
    72    71    70    1
    73    71    72   ar
    74    70    67    1
    75    66    57   am
    76    66    67    1
    77    69    68    2
    78    59    60    1
    79    65    64   ar
    80    60    62   ar
    81    74    72   ar
    82    22    18   am
    83    57    58    2
    84    67    68    1
    85    68    77   am
    86    34    35    1
    87    34    33    1
    88    35    36    1
    89    62    64   ar
    90    36    37    2
    91    31    32    2
    92    31    30    1
    93    18    19    2
    94    18    17    1
    95    77    78    1
    96    20    21    1
    97    20    17    1
    98    78    81    1
    99    78    79    1
   100    33    30    1
   101    29    30    1
   102    37    39    1
   103    37    38    1
   104    17    16    1
   105    81    82    1
   106    79    80    2
   107    16    12   am
   108    13    12    2
   109    82    83    1
   110    40    41    1
   111    42    41    1
   112    42    43    2
   113    83    84    1
   114    12    11    1
   115    44    41    1
   116    44    45    1
   117     8     7   ar
   118     9     7   ar
   119    47    45    1
   120    84    85    1
   121    45    46    1
   122    11    10    1
   123    11    14    1
   124     7     6    1
   125    15    14    1
   126     6     5    1
   127     5     2    1
   128     2     3    1
   129     2     1    1
   130     3     4    2
