@<TRIPOS>MOLECULE
tmp/3p6zB00.pdb
 125 119 0 0 0
SMALL
GASTEIGER

@<TRIPOS>ATOM
      1  N         16.6790   35.9540  -15.7120 N.3    17  MET17      -0.1245
      2  CA        17.3140   37.0110  -14.9510 C.3    17  MET17       0.1570
      3  C         17.3280   36.6310  -13.5290 C.2    17  MET17       0.2261
      4  O         16.2670   36.3550  -12.9380 O.2    17  MET17      -0.2867
      5  CB        16.5250   38.3600  -15.1710 C.3    17  MET17       0.0387
      6  CG        17.1560   39.5130  -14.4620 C.3    17  MET17       0.0595
      7  SD        16.1770   41.0270  -14.7000 S.3    17  MET17      -0.1393
      8  CE        16.4810   41.4470  -16.4430 C.3    17  MET17       0.0692
      9  N         17.5840   38.0890   -9.9260 N.3    19  PHE19      -0.1241
     10  CA        17.2550   39.4080   -9.3990 C.3    19  PHE19       0.1605
     11  C         17.3320   39.4060   -7.8660 C.2    19  PHE19       0.2264
     12  O         16.7400   38.5630   -7.1960 O.2    19  PHE19      -0.2867
     13  CB        15.8760   39.7520   -9.9790 C.3    19  PHE19       0.0534
     14  CG        15.4120   41.1850   -9.7670 C.ar   19  PHE19      -0.0203
     15  CD1       15.8510   42.2130  -10.6010 C.ar   19  PHE19      -0.0042
     16  CD2       14.5210   41.4640   -8.7500 C.ar   19  PHE19      -0.0042
     17  CE1       15.3880   43.5280  -10.3860 C.ar   19  PHE19      -0.0003
     18  CE2       14.0070   42.7380   -8.5640 C.ar   19  PHE19      -0.0003
     19  CZ        14.4410   43.7680   -9.3860 C.ar   19  PHE19      -0.0000
     20  N         16.8740   46.0560   -4.7710 N.3    24  GLN24      -0.1231
     21  CA        16.4980   45.4990   -6.1010 C.3    24  GLN24       0.1698
     22  C         17.7070   45.6520   -7.0190 C.2    24  GLN24       0.2592
     23  O         18.2420   46.7460   -7.1550 O.2    24  GLN24      -0.2718
     24  CB        15.1850   46.1560   -6.6460 C.3    24  GLN24       0.0381
     25  CG        15.3000   47.6350   -7.1120 C.3    24  GLN24       0.0905
     26  CD        13.9460   48.3020   -7.4770 C.2    24  GLN24       0.2608
     27  OE1       12.8960   47.6500   -7.4690 O.2    24  GLN24      -0.2717
     28  NE2       13.9900   49.5980   -7.8390 N.am   24  GLN24      -0.0878
     29  N         18.1650   44.5480   -7.6130 N.am   25  GLU25      -0.1966
     30  CA        19.3800   44.5650   -8.4220 C.3    25  GLU25       0.1733
     31  C         19.3970   43.3960   -9.3860 C.2    25  GLU25       0.2616
     32  O         19.0790   42.2700   -8.9870 O.2    25  GLU25      -0.2715
     33  CB        20.5870   44.4450   -7.4680 C.3    25  GLU25       0.0429
     34  CG        21.9390   44.4540   -8.1680 C.3    25  GLU25       0.1163
     35  CD        23.1390   44.4430   -7.2110 C.2    25  GLU25       0.3649
     36  OE1       22.9640   44.3450   -5.9920 O.co2  25  GLU25      -0.2457
     37  OE2       24.2870   44.5010   -7.7110 O.co2  25  GLU25      -0.2457
     38  N         19.8350   43.6370  -10.6240 N.am   26  LEU26      -0.1977
     39  CA        20.0730   42.5160  -11.5640 C.3    26  LEU26       0.1596
     40  C         21.4030   41.9100  -11.1580 C.2    26  LEU26       0.2287
     41  O         22.4050   42.6120  -11.0480 O.2    26  LEU26      -0.2864
     42  CB        20.0560   42.9840  -13.0370 C.3    26  LEU26       0.0297
     43  CG        20.0410   41.8860  -14.1310 C.3    26  LEU26       0.0022
     44  CD1       19.4870   42.5160  -15.4040 C.3    26  LEU26       0.0001
     45  CD2       21.4320   41.3420  -14.4510 C.3    26  LEU26       0.0001
     46  N         13.4490   35.9300  -12.8770 N.3    62  ARG62      -0.1245
     47  CA        12.4890   36.5920  -13.7770 C.3    62  ARG62       0.1563
     48  C         12.6520   35.9370  -15.1700 C.2    62  ARG62       0.2260
     49  O         13.7160   35.9650  -15.8170 O.2    62  ARG62      -0.2867
     50  CB        12.8260   38.0920  -13.7760 C.3    62  ARG62       0.0307
     51  CG        12.6090   38.6850  -12.4230 C.3    62  ARG62       0.0489
     52  CD        12.7190   40.2820  -12.3760 C.3    62  ARG62       0.2205
     53  NE        11.7220   40.9540  -13.2210 N.pl3  62  ARG62      -0.0865
     54  CZ        11.7460   42.2710  -13.3030 C.cat  62  ARG62       0.5346
     55  NH1       12.6240   42.8740  -12.5300 N.pl3  62  ARG62       0.1354
     56  NH2       10.8660   42.9930  -14.0200 N.pl3  62  ARG62       0.1354
     57  N         15.3380   45.1920  -19.8670 N.3    68  ARG68      -0.1231
     58  CA        16.1330   45.0020  -18.6410 C.3    68  ARG68       0.1694
     59  C         15.3920   45.4930  -17.3940 C.2    68  ARG68       0.2593
     60  O         15.4450   44.8530  -16.3430 O.2    68  ARG68      -0.2718
     61  CB        17.4950   45.7270  -18.7290 C.3    68  ARG68       0.0321
     62  CG        18.4630   45.4380  -17.5150 C.3    68  ARG68       0.0489
     63  CD        19.8020   46.1620  -17.6640 C.3    68  ARG68       0.2205
     64  NE        19.5960   47.5920  -17.8740 N.pl3  68  ARG68      -0.0865
     65  CZ        19.6580   48.5480  -16.9300 C.cat  68  ARG68       0.5346
     66  NH1       19.9370   48.2650  -15.6680 N.pl3  68  ARG68       0.1354
     67  NH2       19.4550   49.8120  -17.2630 N.pl3  68  ARG68       0.1354
     68  N         14.6910   46.6390  -17.4840 N.am   69  THR69      -0.1939
     69  CA        14.1580   47.2680  -16.2890 C.3    69  THR69       0.2028
     70  C         12.6160   47.3000  -16.2100 C.2    69  THR69       0.2642
     71  O         12.0750   47.4610  -15.1370 O.2    69  THR69      -0.2714
     72  CB        14.7060   48.7130  -16.0870 C.3    69  THR69       0.1808
     73  OG1       14.3030   49.5070  -17.2090 O.3    69  THR69      -0.2208
     74  CG2       16.2050   48.7420  -15.9810 C.3    69  THR69       0.0379
     75  N         11.9070   47.1110  -17.3140 N.am   70  ARG70      -0.1963
     76  CA        10.4230   47.2660  -17.2840 C.3    70  ARG70       0.1729
     77  C          9.8180   46.0170  -16.6700 C.2    70  ARG70       0.2616
     78  O         10.4450   44.9450  -16.7350 O.2    70  ARG70      -0.2715
     79  CB         9.8820   47.4300  -18.7160 C.3    70  ARG70       0.0348
     80  CG        10.1810   48.8370  -19.3490 C.3    70  ARG70       0.0492
     81  CD         9.3780   49.9180  -18.6390 C.3    70  ARG70       0.2205
     82  NE         7.9200   49.6700  -18.6860 N.pl3  70  ARG70      -0.0865
     83  CZ         7.1140   49.9020  -19.7230 C.cat  70  ARG70       0.5346
     84  NH1        7.5790   50.4930  -20.8240 N.pl3  70  ARG70       0.1354
     85  NH2        5.8120   49.5520  -19.6380 N.pl3  70  ARG70       0.1354
     86  N          8.6150   46.1360  -16.1140 N.am   71  TYR71      -0.1974
     87  CA         7.9140   44.9180  -15.6830 C.3    71  TYR71       0.1639
     88  C          7.0490   44.5450  -16.8520 C.2    71  TYR71       0.2290
     89  O          6.0950   45.2930  -17.2190 O.2    71  TYR71      -0.2864
     90  CB         7.1020   45.1140  -14.3720 C.3    71  TYR71       0.0560
     91  CG         6.2740   43.8870  -14.0420 C.ar   71  TYR71      -0.0198
     92  CD1        6.8820   42.7090  -13.5780 C.ar   71  TYR71      -0.0009
     93  CD2        4.9170   43.8780  -14.2530 C.ar   71  TYR71      -0.0009
     94  CE1        6.1070   41.5530  -13.3320 C.ar   71  TYR71       0.0417
     95  CE2        4.1600   42.7540  -14.0130 C.ar   71  TYR71       0.0417
     96  CZ         4.7550   41.6010  -13.5730 C.ar   71  TYR71       0.1957
     97  OH         3.9400   40.5050  -13.3470 O.3    71  TYR71      -0.2866
     98  N          4.2670   42.9750  -18.1400 N.3    73  ARG73      -0.1245
     99  CA         3.0310   42.3540  -17.6540 C.3    73  ARG73       0.1563
    100  C          2.5650   41.2740  -18.6290 C.2    73  ARG73       0.2260
    101  O          2.5380   41.5320  -19.8460 O.2    73  ARG73      -0.2867
    102  CB         1.8780   43.3790  -17.5670 C.3    73  ARG73       0.0307
    103  CG         2.0250   44.4660  -16.5750 C.3    73  ARG73       0.0489
    104  CD         0.6200   45.1330  -16.4300 C.3    73  ARG73       0.2205
    105  NE         0.6300   46.3820  -15.6550 N.pl3  73  ARG73      -0.0865
    106  CZ         1.7150   47.0400  -15.2190 C.cat  73  ARG73       0.5346
    107  NH1        2.9530   46.5940  -15.4570 N.pl3  73  ARG73       0.1354
    108  NH2        1.5520   48.1720  -14.5280 N.pl3  73  ARG73       0.1354
    109  N          7.6250   35.7380  -12.5530 N.3    78  ILE78      -0.1245
    110  CA         8.5140   35.7940  -11.4030 C.3    78  ILE78       0.1561
    111  C          8.4360   34.4890  -10.5880 C.2    78  ILE78       0.2260
    112  O          7.3480   34.0750  -10.1210 O.2    78  ILE78      -0.2867
    113  CB         8.2000   37.0660  -10.5900 C.3    78  ILE78       0.0252
    114  CG1        8.5560   38.2850  -11.4710 C.3    78  ILE78       0.0019
    115  CG2        8.9490   37.0780   -9.2540 C.3    78  ILE78       0.0019
    116  CD1        7.7800   39.5010  -11.0950 C.3    78  ILE78       0.0001
    117  N         24.5910   50.2460  -19.7030 N.3   152  GLN152     -0.1245
    118  CA        23.6420   49.1230  -19.5340 C.3   152  GLN152      0.1566
    119  C         22.6840   49.1280  -20.7080 C.2   152  GLN152      0.2260
    120  O         22.2720   50.2190  -21.1270 O.2   152  GLN152     -0.2867
    121  CB        22.8100   49.3000  -18.2530 C.3   152  GLN152      0.0367
    122  CG        23.5830   49.8340  -17.0500 C.3   152  GLN152      0.0905
    123  CD        24.6860   48.8940  -16.7220 C.2   152  GLN152      0.2608
    124  OE1       24.4490   47.6990  -16.5820 O.2   152  GLN152     -0.2717
    125  NE2       25.9160   49.4020  -16.6580 N.am  152  GLN152     -0.0878
@<TRIPOS>BOND
     1   120   119    2
     2    84    83    1
     3   119   118    1
     4    57    58    1
     5   101   100    2
     6    83    85    1
     7    83    82    2
     8   117   118    1
     9   118   121    1
    10    80    79    1
    11    80    81    1
    12    61    58    1
    13    61    62    1
    14    79    76    1
    15    82    81    1
    16    58    59    1
    17   100    99    1
    18   121   122    1
    19    98    99    1
    20    64    63    1
    21    64    65    2
    22    63    62    1
    23    99   102    1
    24   102   103    1
    25    68    59   am
    26    68    69    1
    27    59    60    2
    28    75    76    1
    29    75    70   am
    30    76    77    1
    31    67    65    1
    32    89    88    2
    33    73    72    1
    34   122   123    1
    35    65    66    1
    36    88    87    1
    37    78    77    2
    38   123   125   am
    39   123   124    2
    40    77    86   am
    41   103   104    1
    42     8     7    1
    43   104   105    1
    44    69    70    1
    45    69    72    1
    46    70    71    2
    47    86    87    1
    48    72    74    1
    49    49    48    2
    50     1     2    1
    51    87    90    1
    52   105   106    2
    53   107   106    1
    54    44    43    1
    55   106   108    1
    56     5     2    1
    57     5     6    1
    58    48    47    1
    59     2     3    1
    60     7     6    1
    61    45    43    1
    62    90    91    1
    63    93    91   ar
    64    93    95   ar
    65    43    42    1
    66    91    92   ar
    67    56    54    1
    68    95    96   ar
    69    47    50    1
    70    47    46    1
    71    50    51    1
    72    92    94   ar
    73    96    97    1
    74    96    94   ar
    75     3     4    2
    76    54    53    2
    77    54    55    1
    78    53    52    1
    79    42    39    1
    80   109   110    1
    81    51    52    1
    82    39    40    1
    83    39    38    1
    84   114   116    1
    85   114   113    1
    86   110   113    1
    87   110   111    1
    88    40    41    2
    89    38    31   am
    90    15    17   ar
    91    15    14   ar
    92   113   115    1
    93   111   112    2
    94    17    19   ar
    95    13    14    1
    96    13    10    1
    97     9    10    1
    98    14    16   ar
    99    10    11    1
   100    31    32    2
   101    31    30    1
   102    19    18   ar
   103    16    18   ar
   104    30    29    1
   105    30    33    1
   106    34    33    1
   107    34    35    1
   108    11    12    2
   109    28    26   am
   110    37    35   ar
   111    29    22   am
   112    26    27    2
   113    26    25    1
   114    35    36   ar
   115    23    22    2
   116    25    24    1
   117    22    21    1
   118    24    21    1
   119    21    20    1
