@<TRIPOS>MOLECULE
tmp/3p70B01.pdb
 124 125 0 0 0
SMALL
GASTEIGER

@<TRIPOS>ATOM
      1  N         11.6990   21.0060   85.5830 N.3    43  HIS43      -0.1241
      2  CA        12.8950   20.6870   84.7850 C.3    43  HIS43       0.1621
      3  C         13.9910   20.2400   85.7730 C.2    43  HIS43       0.2264
      4  O         15.0910   19.8590   85.3990 O.2    43  HIS43      -0.2867
      5  CB        13.3560   21.8970   83.9950 C.3    43  HIS43       0.0745
      6  CG        14.0360   22.9010   84.8540 C.ar   43  HIS43       0.0817
      7  ND1       13.4370   24.0850   85.2340 N.ar   43  HIS43      -0.2268
      8  CD2       15.2300   22.8520   85.4910 C.ar   43  HIS43       0.1154
      9  CE1       14.2580   24.7410   86.0370 C.ar   43  HIS43       0.1986
     10  NE2       15.3540   24.0140   86.2070 N.ar   43  HIS43      -0.2212
     11  N         20.2700   38.3470   90.1110 N.3   192  ASP192     -0.1225
     12  CA        19.5650   37.2930   89.3760 C.3   192  ASP192      0.1805
     13  C         19.7250   35.9280   90.0240 C.2   192  ASP192      0.2598
     14  O         20.6770   35.6920   90.7880 O.2   192  ASP192     -0.2718
     15  CB        20.0800   37.2280   87.9150 C.3   192  ASP192      0.1424
     16  CG        19.1830   36.3600   86.9940 C.2   192  ASP192      0.3668
     17  OD1       18.0310   36.0360   87.3860 O.co2 192  ASP192     -0.2456
     18  OD2       19.6430   35.9990   85.8870 O.co2 192  ASP192     -0.2456
     19  N         18.8020   35.0270   89.7000 N.am  193  ALA193     -0.1966
     20  CA        18.8970   33.6310   90.1090 C.3   193  ALA193      0.1728
     21  C         19.8570   33.0030   89.1330 C.2   193  ALA193      0.2616
     22  O         20.1200   33.5740   88.0870 O.2   193  ALA193     -0.2715
     23  CB        17.5830   32.9830   90.0140 C.3   193  ALA193      0.0334
     24  N         20.3970   31.8280   89.4620 N.am  194  CYS194     -0.1954
     25  CA        21.3620   31.1860   88.5680 C.3   194  CYS194      0.1843
     26  C         21.2530   29.6610   88.5970 C.2   194  CYS194      0.2625
     27  O         20.3270   29.1200   89.2300 O.2   194  CYS194     -0.2714
     28  CB        22.7560   31.6600   88.9380 C.3   194  CYS194      0.0997
     29  SG        23.8810   31.6800   87.5950 S.3   194  CYS194     -0.0797
     30  N         22.1610   28.9470   87.9210 N.am  195  GLU195     -0.1977
     31  CA        22.1020   27.4690   87.9960 C.3   195  GLU195      0.1602
     32  C         22.2640   26.9420   89.4410 C.2   195  GLU195      0.2287
     33  O         23.1530   27.3800   90.1930 O.2   195  GLU195     -0.2864
     34  CB        23.0700   26.7780   87.0140 C.3   195  GLU195      0.0415
     35  CG        22.3850   26.2760   85.6850 C.3   195  GLU195      0.1163
     36  CD        22.6500   27.2230   84.4670 C.2   195  GLU195      0.3649
     37  OE1       23.8580   27.4790   84.1590 O.co2 195  GLU195     -0.2457
     38  OE2       21.6640   27.6900   83.8080 O.co2 195  GLU195     -0.2457
     39  N         17.3750   26.8370   90.4100 N.3   198  SER198     -0.1217
     40  CA        16.1450   26.3930   89.7200 C.3   198  SER198      0.1889
     41  C         15.2370   25.7360   90.7230 C.2   198  SER198      0.2288
     42  O         15.6910   24.9630   91.5590 O.2   198  SER198     -0.2866
     43  CB        16.4180   25.3830   88.6200 C.3   198  SER198      0.2089
     44  OG        17.5620   25.6870   87.8690 O.3   198  SER198     -0.2183
     45  N         11.6680   29.5220   90.4880 N.3   218  VAL218     -0.1231
     46  CA        12.7280   29.8050   89.5210 C.3   218  VAL218      0.1692
     47  C         12.6690   28.7710   88.4160 C.2   218  VAL218      0.2593
     48  O         12.7550   27.5700   88.6990 O.2   218  VAL218     -0.2718
     49  CB        14.0660   29.7320   90.2080 C.3   218  VAL218      0.0266
     50  CG1       15.1920   30.0670   89.2750 C.3   218  VAL218      0.0020
     51  CG2       14.0500   30.6250   91.4830 C.3   218  VAL218      0.0020
     52  N         12.5490   29.2250   87.1700 N.am  219  SER219     -0.1938
     53  CA        12.3380   28.3310   86.0410 C.3   219  SER219      0.2055
     54  C         13.4980   28.3310   85.0150 C.2   219  SER219      0.2643
     55  O         13.9980   27.2480   84.6130 O.2   219  SER219     -0.2714
     56  CB        10.9770   28.6400   85.3630 C.3   219  SER219      0.2130
     57  OG        10.6780   27.7930   84.2470 O.3   219  SER219     -0.2179
     58  N         13.9200   29.5160   84.5790 N.am  220  TRP220     -0.1959
     59  CA        14.9820   29.5920   83.5790 C.3   220  TRP220      0.1771
     60  C         15.4040   31.0040   83.2730 C.2   220  TRP220      0.2620
     61  O         14.6840   31.9510   83.5970 O.2   220  TRP220     -0.2715
     62  CB        14.5380   28.9470   82.2710 C.3   220  TRP220      0.0590
     63  CG        13.3500   29.6100   81.6560 C.ar  220  TRP220      0.0006
     64  CD1       12.0490   29.4510   82.0350 C.ar  220  TRP220      0.0946
     65  CD2       13.3330   30.5460   80.5500 C.ar  220  TRP220      0.0152
     66  NE1       11.2250   30.2080   81.2250 N.ar  220  TRP220     -0.2442
     67  CE2       11.9920   30.8800   80.3050 C.ar  220  TRP220      0.0810
     68  CE3       14.3210   31.1380   79.7580 C.ar  220  TRP220      0.0012
     69  CZ2       11.6190   31.7850   79.3000 C.ar  220  TRP220      0.0191
     70  CZ3       13.9440   32.0300   78.7710 C.ar  220  TRP220      0.0001
     71  CH2       12.6100   32.3380   78.5490 C.ar  220  TRP220      0.0015
     72  N         16.5550   31.1350   82.6180 N.am  221  GLY221     -0.1954
     73  CA        16.9810   32.4080   82.0910 C.3   221  GLY221      0.1869
     74  C         18.0730   32.1640   81.0860 C.2   221  GLY221      0.2309
     75  O         18.5230   31.0330   80.9540 O.2   221  GLY221     -0.2863
     76  N         21.9300   32.8360   80.3260 N.3   223  GLY223     -0.1210
     77  CA        22.9810   33.1950   81.2820 C.3   223  GLY223      0.1956
     78  C         22.3800   33.6270   82.6300 C.2   223  GLY223      0.2612
     79  O         21.2440   33.2130   82.9980 O.2   223  GLY223     -0.2717
     80  N         23.1300   34.4750   83.3400 N.am  224  CYS224     -0.1970
     81  CA        22.8160   34.9190   84.6800 C.3   224  CYS224      0.1712
     82  C         23.2530   36.3200   84.8540 C.2   224  CYS224      0.2296
     83  O         24.4380   36.6220   84.7390 O.2   224  CYS224     -0.2864
     84  CB        23.5920   34.0950   85.7040 C.3   224  CYS224      0.0983
     85  SG        22.8720   32.4750   85.9750 S.3   224  CYS224     -0.0798
     86  N         16.5650   38.8210   81.8340 N.3   230  TYR230     -0.1227
     87  CA        15.7070   38.7000   83.0280 C.3   230  TYR230      0.1736
     88  C         15.4600   37.2620   83.4780 C.2   230  TYR230      0.2596
     89  O         15.4610   36.3090   82.6780 O.2   230  TYR230     -0.2718
     90  CB        14.3630   39.4420   82.7850 C.3   230  TYR230      0.0548
     91  CG        14.5550   40.8950   82.3980 C.ar  230  TYR230     -0.0200
     92  CD1       14.7170   41.8640   83.3670 C.ar  230  TYR230     -0.0009
     93  CD2       14.6250   41.2770   81.0710 C.ar  230  TYR230     -0.0009
     94  CE1       14.9180   43.1710   83.0340 C.ar  230  TYR230      0.0417
     95  CE2       14.8620   42.6140   80.7010 C.ar  230  TYR230      0.0417
     96  CZ        15.0160   43.5320   81.7030 C.ar  230  TYR230      0.1957
     97  OH        15.2160   44.8190   81.4030 O.3   230  TYR230     -0.2866
     98  N         15.2290   37.0840   84.7530 N.am  231  GLY231     -0.1942
     99  CA        14.9350   35.7350   85.2350 C.3   231  GLY231      0.2014
    100  C         13.4950   35.4390   84.8950 C.2   231  GLY231      0.2639
    101  O         12.6380   36.3040   85.0520 O.2   231  GLY231     -0.2714
    102  N         13.2130   34.2350   84.4110 N.am  232  PHE232     -0.1959
    103  CA        11.8250   33.8220   84.2510 C.3   232  PHE232      0.1771
    104  C         11.3400   32.9550   85.3950 C.2   232  PHE232      0.2619
    105  O         12.0800   32.1220   85.9310 O.2   232  PHE232     -0.2715
    106  CB        11.6080   33.1890   82.8870 C.3   232  PHE232      0.0574
    107  CG        11.5280   34.2090   81.7740 C.ar  232  PHE232     -0.0200
    108  CD1       12.6860   34.7490   81.2300 C.ar  232  PHE232     -0.0042
    109  CD2       10.2770   34.6930   81.3510 C.ar  232  PHE232     -0.0042
    110  CE1       12.6070   35.7310   80.2440 C.ar  232  PHE232     -0.0003
    111  CE2       10.1830   35.6670   80.3660 C.ar  232  PHE232     -0.0003
    112  CZ        11.3540   36.1930   79.8060 C.ar  232  PHE232     -0.0000
    113  N         10.1060   33.1710   85.8150 N.am  233  TYR233     -0.1974
    114  CA         9.5660   32.4670   86.9780 C.3   233  TYR233      0.1639
    115  C          8.2210   31.9480   86.6290 C.2   233  TYR233      0.2290
    116  O          7.4800   32.5650   85.8480 O.2   233  TYR233     -0.2864
    117  CB         9.4170   33.4050   88.1750 C.3   233  TYR233      0.0560
    118  CG        10.7190   33.9880   88.6440 C.ar  233  TYR233     -0.0198
    119  CD1       11.3340   35.0390   87.9240 C.ar  233  TYR233     -0.0009
    120  CD2       11.3670   33.4550   89.7520 C.ar  233  TYR233     -0.0009
    121  CE1       12.5290   35.5520   88.3260 C.ar  233  TYR233      0.0417
    122  CE2       12.5810   33.9480   90.1470 C.ar  233  TYR233      0.0417
    123  CZ        13.1540   34.9940   89.4400 C.ar  233  TYR233      0.1957
    124  OH        14.3600   35.4740   89.8210 O.3   233  TYR233     -0.2866
@<TRIPOS>BOND
     1    71    70   ar
     2    71    69   ar
     3    70    68   ar
     4    69    67   ar
     5    68    65   ar
     6   112   110   ar
     7   112   111   ar
     8   110   108   ar
     9    67    65   ar
    10    67    66   ar
    11    76    77    1
    12   111   109   ar
    13    65    63   ar
    14    95    93   ar
    15    95    96   ar
    16    75    74    2
    17    93    91   ar
    18    74    73    1
    19    66    64   ar
    20   108   107   ar
    21    77    78    1
    22   109   107   ar
    23    97    96    1
    24    63    64   ar
    25    63    62    1
    26    96    94   ar
    27   107   106    1
    28    86    87    1
    29    73    72    1
    30    62    59    1
    31    91    90    1
    32    91    92   ar
    33    72    60   am
    34    78    79    2
    35    78    80   am
    36    89    88    2
    37    90    87    1
    38   106   103    1
    39    87    88    1
    40    94    92   ar
    41    60    59    1
    42    60    61    2
    43    80    81    1
    44    88    98   am
    45    59    58    1
    46    38    36   ar
    47     5     2    1
    48     5     6    1
    49    37    36   ar
    50    57    56    1
    51   103   102    1
    52   103   104    1
    53   102   100   am
    54    36    35    1
    55    58    54   am
    56    55    54    2
    57    81    82    1
    58    81    84    1
    59    83    82    2
    60    98    99    1
    61     2     1    1
    62     2     3    1
    63     6     7   ar
    64     6     8   ar
    65   100   101    2
    66   100    99    1
    67    54    53    1
    68     7     9   ar
    69    56    53    1
    70   104   113   am
    71   104   105    2
    72     4     3    2
    73     8    10   ar
    74    35    34    1
    75    84    85    1
    76   113   114    1
    77   116   115    2
    78    18    16   ar
    79    85    29    1
    80     9    10   ar
    81    53    52    1
    82   115   114    1
    83   114   117    1
    84    16    17   ar
    85    16    15    1
    86    34    31    1
    87    52    47   am
    88    29    28    1
    89    44    43    1
    90    15    12    1
    91    30    31    1
    92    30    26   am
    93   119   121   ar
    94   119   118   ar
    95    31    32    1
    96    22    21    2
    97   117   118    1
    98   121   123   ar
    99    47    48    2
   100    47    46    1
   101    25    26    1
   102    25    28    1
   103    25    24    1
   104    26    27    2
   105    43    40    1
   106   118   120   ar
   107    21    24   am
   108    21    20    1
   109    50    49    1
   110    12    13    1
   111    12    11    1
   112   123   124    1
   113   123   122   ar
   114    32    33    2
   115    46    49    1
   116    46    45    1
   117    19    13   am
   118    19    20    1
   119    40    39    1
   120    40    41    1
   121   120   122   ar
   122    23    20    1
   123    13    14    2
   124    49    51    1
   125    41    42    2
