@<TRIPOS>MOLECULE
tmp/3p70F01.pdb
 113 108 0 0 0
SMALL
GASTEIGER

@<TRIPOS>ATOM
      1  N         37.0890   20.3120   71.5250 N.3    17  MET17      -0.1245
      2  CA        36.1000   21.3570   71.2470 C.3    17  MET17       0.1570
      3  C         36.4810   22.6960   71.8720 C.2    17  MET17       0.2261
      4  O         36.5510   22.7970   73.0780 O.2    17  MET17      -0.2867
      5  CB        34.7230   20.9540   71.7590 C.3    17  MET17       0.0387
      6  CG        33.5960   21.8930   71.3700 C.3    17  MET17       0.0595
      7  SD        32.1590   21.3820   72.2850 S.3    17  MET17      -0.1393
      8  CE        31.5760   19.9120   71.4390 C.3    17  MET17       0.0692
      9  N         35.4050   26.4400   72.9430 N.3    19  PHE19      -0.1241
     10  CA        34.0800   26.7530   73.5230 C.3    19  PHE19       0.1605
     11  C         33.9620   28.0790   74.2490 C.2    19  PHE19       0.2264
     12  O         34.5030   28.2520   75.3340 O.2    19  PHE19      -0.2867
     13  CB        33.6770   25.6530   74.5000 C.3    19  PHE19       0.0534
     14  CG        32.1970   25.6090   74.8270 C.ar   19  PHE19      -0.0203
     15  CD1       31.2860   25.0400   73.9440 C.ar   19  PHE19      -0.0042
     16  CD2       31.7250   26.0710   76.0490 C.ar   19  PHE19      -0.0042
     17  CE1       29.9120   24.9640   74.2610 C.ar   19  PHE19      -0.0003
     18  CE2       30.3510   25.9900   76.3860 C.ar   19  PHE19      -0.0003
     19  CZ        29.4510   25.4300   75.4830 C.ar   19  PHE19      -0.0000
     20  N         27.1210   30.7860   75.6130 N.3    24  GLN24      -0.1231
     21  CA        27.6650   29.4230   75.4470 C.3    24  GLN24       0.1698
     22  C         27.5010   28.9270   73.9960 C.2    24  GLN24       0.2592
     23  O         26.3760   28.7250   73.5530 O.2    24  GLN24      -0.2718
     24  CB        26.9860   28.4310   76.4060 C.3    24  GLN24       0.0381
     25  CG        27.1170   28.7060   77.9160 C.3    24  GLN24       0.0905
     26  CD        26.3540   29.9380   78.3820 C.2    24  GLN24       0.2608
     27  OE1       25.2200   30.1650   77.9810 O.2    24  GLN24      -0.2717
     28  NE2       26.9810   30.7470   79.2250 N.am   24  GLN24      -0.0878
     29  N         28.6150   28.7400   73.2670 N.am   25  GLU25      -0.1966
     30  CA        28.5950   28.3200   71.8500 C.3    25  GLU25       0.1733
     31  C         29.8900   27.5930   71.4080 C.2    25  GLU25       0.2616
     32  O         30.9850   27.9430   71.8410 O.2    25  GLU25      -0.2715
     33  CB        28.2910   29.5320   70.9240 C.3    25  GLU25       0.0429
     34  CG        29.5370   30.2900   70.3640 C.3    25  GLU25       0.1163
     35  CD        29.2010   31.5530   69.5570 C.2    25  GLU25       0.3649
     36  OE1       28.9190   32.6200   70.1440 O.co2  25  GLU25      -0.2457
     37  OE2       29.2340   31.4950   68.3190 O.co2  25  GLU25      -0.2457
     38  N         29.7490   26.5890   70.5440 N.am   26  LEU26      -0.1977
     39  CA        30.8780   25.9220   69.9080 C.3    26  LEU26       0.1596
     40  C         31.5420   26.8690   68.9360 C.2    26  LEU26       0.2287
     41  O         30.8770   27.4090   68.0540 O.2    26  LEU26      -0.2864
     42  CB        30.4100   24.6770   69.1250 C.3    26  LEU26       0.0297
     43  CG        31.4720   23.7900   68.4140 C.3    26  LEU26       0.0022
     44  CD1       30.9080   22.4240   68.0360 C.3    26  LEU26       0.0001
     45  CD2       32.0910   24.4320   67.1680 C.3    26  LEU26       0.0001
     46  N         36.7610   28.4740   76.9050 N.3    60  LEU60      -0.1245
     47  CA        37.2730   27.2360   77.5060 C.3    60  LEU60       0.1561
     48  C         37.5320   26.2440   76.3740 C.2    60  LEU60       0.2260
     49  O         37.1910   26.5260   75.2270 O.2    60  LEU60      -0.2867
     50  CB        36.2730   26.6070   78.5100 C.3    60  LEU60       0.0270
     51  CG        35.4680   27.3950   79.5630 C.3    60  LEU60       0.0019
     52  CD1       34.1960   26.6500   79.9540 C.3    60  LEU60       0.0001
     53  CD2       36.2770   27.7840   80.8270 C.3    60  LEU60       0.0001
     54  N         37.1780   21.8810   75.7380 N.3    62  ARG62      -0.1245
     55  CA        36.6460   20.6720   76.3390 C.3    62  ARG62       0.1563
     56  C         37.2710   19.4940   75.6250 C.2    62  ARG62       0.2260
     57  O         37.2780   19.4500   74.4140 O.2    62  ARG62      -0.2867
     58  CB        35.1240   20.6450   76.2850 C.3    62  ARG62       0.0307
     59  CG        34.5390   21.8660   76.9570 C.3    62  ARG62       0.0489
     60  CD        33.1160   22.1290   76.5590 C.3    62  ARG62       0.2205
     61  NE        32.2350   21.1460   77.1640 N.pl3  62  ARG62      -0.0865
     62  CZ        30.9270   21.1010   76.9640 C.cat  62  ARG62       0.5346
     63  NH1       30.3530   21.9960   76.1710 N.pl3  62  ARG62       0.1354
     64  NH2       30.1940   20.1690   77.5700 N.pl3  62  ARG62       0.1354
     65  N         28.0500   16.5040   70.8360 N.3    68  ARG68      -0.1231
     66  CA        28.2730   17.9140   70.5670 C.3    68  ARG68       0.1694
     67  C         27.8640   18.7290   71.7880 C.2    68  ARG68       0.2593
     68  O         28.4710   19.7500   72.0790 O.2    68  ARG68      -0.2718
     69  CB        27.4790   18.4130   69.3410 C.3    68  ARG68       0.0321
     70  CG        27.9840   19.7820   68.8050 C.3    68  ARG68       0.0489
     71  CD        27.2420   20.2820   67.5700 C.3    68  ARG68       0.2205
     72  NE        26.2740   21.3360   67.9010 N.pl3  68  ARG68      -0.0865
     73  CZ        24.9800   21.1100   68.1910 C.cat  68  ARG68       0.5346
     74  NH1       24.1930   22.1290   68.4910 N.pl3  68  ARG68       0.1354
     75  NH2       24.4660   19.8750   68.1680 N.pl3  68  ARG68       0.1354
     76  N         26.8770   18.2260   72.5180 N.am   69  THR69      -0.1939
     77  CA        25.9260   19.0410   73.2500 C.3    69  THR69       0.2028
     78  C         25.8850   18.7270   74.7630 C.2    69  THR69       0.2642
     79  O         26.0270   19.6300   75.6150 O.2    69  THR69      -0.2714
     80  CB        24.5310   18.8390   72.5700 C.3    69  THR69       0.1808
     81  OG1       24.3510   19.8600   71.5830 O.3    69  THR69      -0.2208
     82  CG2       23.3340   18.8370   73.5650 C.3    69  THR69       0.0379
     83  N         25.7100   17.4380   75.0680 N.am   70  ARG70      -0.1963
     84  CA        25.6770   16.9290   76.4220 C.3    70  ARG70       0.1729
     85  C         26.9880   17.1660   77.1310 C.2    70  ARG70       0.2616
     86  O         28.0560   17.2020   76.5210 O.2    70  ARG70      -0.2715
     87  CB        25.3470   15.4260   76.4370 C.3    70  ARG70       0.0348
     88  CG        24.2500   14.9970   75.4690 C.3    70  ARG70       0.0492
     89  CD        22.9200   15.0330   76.0930 C.3    70  ARG70       0.2205
     90  NE        22.6220   13.7190   76.6530 N.pl3  70  ARG70      -0.0865
     91  CZ        22.6370   13.4060   77.9510 C.cat  70  ARG70       0.5346
     92  NH1       22.3580   12.1680   78.3220 N.pl3  70  ARG70       0.1354
     93  NH2       22.9310   14.3170   78.8730 N.pl3  70  ARG70       0.1354
     94  N         26.8620   17.3590   78.4330 N.am   71  TYR71      -0.1974
     95  CA        27.9710   17.4460   79.3460 C.3    71  TYR71       0.1639
     96  C         28.3190   16.0330   79.8300 C.2    71  TYR71       0.2290
     97  O         27.5870   15.4050   80.6590 O.2    71  TYR71      -0.2864
     98  CB        27.6410   18.3390   80.5560 C.3    71  TYR71       0.0560
     99  CG        28.7760   18.3250   81.5310 C.ar   71  TYR71      -0.0198
    100  CD1       28.6280   17.7940   82.8220 C.ar   71  TYR71      -0.0009
    101  CD2       30.0390   18.7800   81.1280 C.ar   71  TYR71      -0.0009
    102  CE1       29.7290   17.7550   83.7000 C.ar   71  TYR71       0.0417
    103  CE2       31.1230   18.7420   81.9720 C.ar   71  TYR71       0.0417
    104  CZ        30.9750   18.2290   83.2490 C.ar   71  TYR71       0.1957
    105  OH        32.0960   18.2260   84.0380 O.3    71  TYR71      -0.2866
    106  N         36.9100   19.7930   81.1010 N.3    77  ILE77      -0.1245
    107  CA        36.8630   21.2090   80.7700 C.3    77  ILE77       0.1561
    108  C         38.0620   21.9410   81.3490 C.2    77  ILE77       0.2260
    109  O         38.3240   21.8570   82.5480 O.2    77  ILE77      -0.2867
    110  CB        35.5810   21.8190   81.3200 C.3    77  ILE77       0.0252
    111  CG1       34.4550   21.6190   80.3100 C.3    77  ILE77       0.0019
    112  CG2       35.7760   23.2920   81.6750 C.3    77  ILE77       0.0019
    113  CD1       33.0810   21.6320   80.9490 C.3    77  ILE77       0.0001
@<TRIPOS>BOND
     1    45    43    1
     2    71    72    1
     3    71    70    1
     4    72    73    2
     5    44    43    1
     6    41    40    2
     7    75    73    1
     8    73    74    1
     9    37    35   ar
    10    43    42    1
    11    70    69    1
    12    40    39    1
    13    42    39    1
    14    69    66    1
    15    35    36   ar
    16    35    34    1
    17    39    38    1
    18    34    33    1
    19    38    31   am
    20    66    65    1
    21    66    67    1
    22    33    30    1
    23     2     1    1
    24     2     5    1
    25     2     3    1
    26     6     5    1
    27     6     7    1
    28    31    32    2
    29    31    30    1
    30     8     7    1
    31    81    80    1
    32    67    68    2
    33    67    76   am
    34    30    29    1
    35     3     4    2
    36    76    77    1
    37    80    77    1
    38    80    82    1
    39     9    10    1
    40    77    78    1
    41    29    22   am
    42    10    11    1
    43    10    13    1
    44    23    22    2
    45    15    17   ar
    46    15    14   ar
    47    22    21    1
    48    11    12    2
    49    17    19   ar
    50    57    56    2
    51    13    14    1
    52    78    83   am
    53    78    79    2
    54    14    16   ar
    55    83    84    1
    56    49    48    2
    57    21    20    1
    58    21    24    1
    59    88    89    1
    60    88    87    1
    61    19    18   ar
    62    56    55    1
    63    54    55    1
    64    16    18   ar
    65    89    90    1
    66    63    62    1
    67    58    55    1
    68    58    59    1
    69    48    47    1
    70    24    25    1
    71    84    87    1
    72    84    85    1
    73    86    85    2
    74    60    59    1
    75    60    61    1
    76    90    91    2
    77    46    47    1
    78    62    61    2
    79    62    64    1
    80    85    94   am
    81    47    50    1
    82    25    26    1
    83    91    92    1
    84    91    93    1
    85    27    26    2
    86    26    28   am
    87    94    95    1
    88    50    51    1
    89    95    96    1
    90    95    98    1
    91    51    52    1
    92    51    53    1
    93    96    97    2
    94   111   113    1
    95   111   110    1
    96    98    99    1
    97   107   106    1
    98   107   110    1
    99   107   108    1
   100   101    99   ar
   101   101   103   ar
   102   110   112    1
   103   108   109    2
   104    99   100   ar
   105   103   104   ar
   106   100   102   ar
   107   104   102   ar
   108   104   105    1
