@<TRIPOS>MOLECULE
tmp/3p70H01.pdb
 131 124 0 0 0
SMALL
GASTEIGER

@<TRIPOS>ATOM
      1  N         37.6870    1.9130  118.9110 N.3    17  MET17      -0.1245
      2  CA        36.6680    2.9020  118.6400 C.3    17  MET17       0.1570
      3  C         37.0290    4.2630  119.2280 C.2    17  MET17       0.2261
      4  O         37.2670    4.4220  120.4360 O.2    17  MET17      -0.2867
      5  CB        35.2960    2.4380  119.1560 C.3    17  MET17       0.0387
      6  CG        34.1030    3.3480  118.8140 C.3    17  MET17       0.0595
      7  SD        32.6320    2.8440  119.7510 S.3    17  MET17      -0.1393
      8  CE        31.9960    1.4580  118.7980 C.3    17  MET17       0.0692
      9  N         35.6090    7.8530  120.1010 N.3    19  PHE19      -0.1241
     10  CA        34.3050    8.1290  120.6210 C.3    19  PHE19       0.1605
     11  C         34.3270    9.4780  121.2660 C.2    19  PHE19       0.2264
     12  O         35.2360    9.7960  122.0420 O.2    19  PHE19      -0.2867
     13  CB        33.9910    7.0670  121.6600 C.3    19  PHE19       0.0534
     14  CG        32.5850    7.0880  122.1760 C.ar   19  PHE19      -0.0203
     15  CD1       31.5680    6.3980  121.5060 C.ar   19  PHE19      -0.0042
     16  CD2       32.2900    7.7110  123.3650 C.ar   19  PHE19      -0.0042
     17  CE1       30.2850    6.3660  121.9960 C.ar   19  PHE19      -0.0003
     18  CE2       31.0000    7.6810  123.8780 C.ar   19  PHE19      -0.0003
     19  CZ        29.9980    7.0130  123.1860 C.ar   19  PHE19      -0.0000
     20  N         27.6530   12.1050  123.0230 N.3    24  GLN24      -0.1231
     21  CA        28.1820   10.7860  122.6780 C.3    24  GLN24       0.1698
     22  C         27.9490   10.4950  121.1920 C.2    24  GLN24       0.2592
     23  O         26.8900   10.8250  120.6570 O.2    24  GLN24      -0.2718
     24  CB        27.5490    9.6780  123.5160 C.3    24  GLN24       0.0381
     25  CG        27.4760    9.9440  125.0040 C.3    24  GLN24       0.0905
     26  CD        26.0540   10.2350  125.4510 C.2    24  GLN24       0.2608
     27  OE1       25.1890    9.3560  125.3830 O.2    24  GLN24      -0.2717
     28  NE2       25.7990   11.4680  125.9000 N.am   24  GLN24      -0.0878
     29  N         28.9400    9.9010  120.5330 N.am   25  GLU25      -0.1966
     30  CA        28.7930    9.3840  119.1560 C.3    25  GLU25       0.1733
     31  C         30.0750    8.6890  118.7410 C.2    25  GLU25       0.2616
     32  O         31.1440    8.9620  119.2880 O.2    25  GLU25      -0.2715
     33  CB        28.4430   10.4920  118.1380 C.3    25  GLU25       0.0429
     34  CG        29.6600   11.2520  117.6290 C.3    25  GLU25       0.1163
     35  CD        29.3240   12.4930  116.8490 C.2    25  GLU25       0.3649
     36  OE1       29.6600   13.6070  117.3240 O.co2  25  GLU25      -0.2457
     37  OE2       28.7380   12.3500  115.7560 O.co2  25  GLU25      -0.2457
     38  N         29.9580    7.7990  117.7690 N.am   26  LEU26      -0.1977
     39  CA        31.1220    7.1510  117.1850 C.3    26  LEU26       0.1596
     40  C         31.8250    8.1060  116.2050 C.2    26  LEU26       0.2287
     41  O         31.1920    8.6350  115.3060 O.2    26  LEU26      -0.2864
     42  CB        30.6720    5.8840  116.4810 C.3    26  LEU26       0.0297
     43  CG        31.7890    5.0160  115.9240 C.3    26  LEU26       0.0022
     44  CD1       31.4920    3.5790  116.2290 C.3    26  LEU26       0.0001
     45  CD2       31.9480    5.2100  114.4190 C.3    26  LEU26       0.0001
     46  N         37.7870    3.4560  123.0290 N.3    62  ARG62      -0.1245
     47  CA        37.3050    2.2370  123.6610 C.3    62  ARG62       0.1563
     48  C         37.8420    1.0750  122.9050 C.2    62  ARG62       0.2260
     49  O         37.6900    0.9870  121.6920 O.2    62  ARG62      -0.2867
     50  CB        35.7930    2.1750  123.7270 C.3    62  ARG62       0.0307
     51  CG        35.2030    3.4910  124.0760 C.3    62  ARG62       0.0489
     52  CD        33.7540    3.5880  123.6590 C.3    62  ARG62       0.2205
     53  NE        32.9710    2.6600  124.4620 N.pl3  62  ARG62      -0.0865
     54  CZ        31.6630    2.6920  124.5790 C.cat  62  ARG62       0.5346
     55  NH1       30.9660    3.6300  123.9450 N.pl3  62  ARG62       0.1354
     56  NH2       31.0740    1.7850  125.3370 N.pl3  62  ARG62       0.1354
     57  N         28.4740   -2.2810  118.9810 N.3    68  ARG68      -0.1231
     58  CA        28.7130   -0.9050  118.5760 C.3    68  ARG68       0.1694
     59  C         28.3080    0.1280  119.6370 C.2    68  ARG68       0.2593
     60  O         28.9920    1.1650  119.8010 O.2    68  ARG68      -0.2718
     61  CB        27.9890   -0.5780  117.2600 C.3    68  ARG68       0.0321
     62  CG        28.4420    0.7530  116.6430 C.3    68  ARG68       0.0489
     63  CD        27.7270    1.0550  115.3970 C.3    68  ARG68       0.2205
     64  NE        26.4750    1.6710  115.7620 N.pl3  68  ARG68      -0.0865
     65  CZ        26.1770    2.9320  115.4810 C.cat  68  ARG68       0.5346
     66  NH1       27.0490    3.6940  114.7740 N.pl3  68  ARG68       0.1354
     67  NH2       25.0150    3.4150  115.9000 N.pl3  68  ARG68       0.1354
     68  N         27.1950   -0.1410  120.3370 N.am   69  THR69      -0.1939
     69  CA        26.5860    0.8610  121.1870 C.3    69  THR69       0.2028
     70  C         26.4680    0.4650  122.6410 C.2    69  THR69       0.2642
     71  O         26.3740    1.3340  123.5120 O.2    69  THR69      -0.2714
     72  CB        25.1750    1.2950  120.6830 C.3    69  THR69       0.1808
     73  OG1       24.2200    0.2420  120.8940 O.3    69  THR69      -0.2208
     74  CG2       25.2110    1.7250  119.2080 C.3    69  THR69       0.0379
     75  N         26.4360   -0.8410  122.8920 N.am   70  ARG70      -0.1963
     76  CA        26.3120   -1.3910  124.2400 C.3    70  ARG70       0.1729
     77  C         27.5940   -1.2040  125.0410 C.2    70  ARG70       0.2616
     78  O         28.6720   -1.2900  124.4910 O.2    70  ARG70      -0.2715
     79  CB        25.9640   -2.8760  124.1550 C.3    70  ARG70       0.0348
     80  CG        24.6250   -3.1560  123.4660 C.3    70  ARG70       0.0492
     81  CD        24.2100   -4.6230  123.5990 C.3    70  ARG70       0.2205
     82  NE        23.0040   -4.9710  122.8310 N.pl3  70  ARG70      -0.0865
     83  CZ        22.1600   -5.9510  123.1810 C.cat  70  ARG70       0.5346
     84  NH1       21.0700   -6.2140  122.4550 N.pl3  70  ARG70       0.1354
     85  NH2       22.3920   -6.6620  124.2860 N.pl3  70  ARG70       0.1354
     86  N         27.4640   -0.9280  126.3350 N.am   71  TYR71      -0.1974
     87  CA        28.6040   -0.9650  127.2730 C.3    71  TYR71       0.1639
     88  C         28.9260   -2.3870  127.7180 C.2    71  TYR71       0.2290
     89  O         28.1870   -3.0270  128.4700 O.2    71  TYR71      -0.2864
     90  CB        28.4430   -0.0290  128.4850 C.3    71  TYR71       0.0560
     91  CG        29.6440   -0.0270  129.4080 C.ar   71  TYR71      -0.0198
     92  CD1       29.5090   -0.2800  130.7830 C.ar   71  TYR71      -0.0009
     93  CD2       30.9140    0.2390  128.9130 C.ar   71  TYR71      -0.0009
     94  CE1       30.6310   -0.2850  131.6220 C.ar   71  TYR71       0.0417
     95  CE2       32.0310    0.2210  129.7250 C.ar   71  TYR71       0.0417
     96  CZ        31.8930   -0.0530  131.0670 C.ar   71  TYR71       0.1957
     97  OH        33.0230   -0.0520  131.8470 O.3    71  TYR71      -0.2866
     98  N         31.0720   -4.5530  129.6970 N.3    73  ARG73      -0.1245
     99  CA        31.7900   -4.3940  130.9480 C.3    73  ARG73       0.1563
    100  C         33.0260   -5.2620  131.0910 C.2    73  ARG73       0.2260
    101  O         32.9340   -6.4820  131.1570 O.2    73  ARG73      -0.2867
    102  CB        30.8580   -4.7010  132.0910 C.3    73  ARG73       0.0307
    103  CG        29.9000   -3.6010  132.3620 C.3    73  ARG73       0.0489
    104  CD        30.0540   -3.1590  133.8110 C.3    73  ARG73       0.2205
    105  NE        29.1540   -3.8400  134.7170 N.pl3  73  ARG73      -0.0865
    106  CZ        27.8950   -3.4720  134.9300 C.cat  73  ARG73       0.5346
    107  NH1       27.1430   -4.1320  135.8220 N.pl3  73  ARG73       0.1354
    108  NH2       27.3920   -2.4430  134.2580 N.pl3  73  ARG73       0.1354
    109  N         38.0400    1.7250  128.5490 N.3    77  ILE77      -0.1245
    110  CA        37.9140    3.0930  128.1080 C.3    77  ILE77       0.1561
    111  C         39.1550    3.8480  128.5590 C.2    77  ILE77       0.2260
    112  O         39.5500    3.7470  129.7230 O.2    77  ILE77      -0.2867
    113  CB        36.7050    3.7410  128.8160 C.3    77  ILE77       0.0252
    114  CG1       35.4010    3.1170  128.3200 C.3    77  ILE77       0.0019
    115  CG2       36.7030    5.2530  128.6350 C.3    77  ILE77       0.0019
    116  CD1       34.2870    3.1740  129.3320 C.3    77  ILE77       0.0001
    117  N         23.3570    1.1740  110.2530 N.3   152  GLN152     -0.1245
    118  CA        24.5840    0.8480  110.9700 C.3   152  GLN152      0.1566
    119  C         24.4880   -0.4820  111.7170 C.2   152  GLN152      0.2260
    120  O         23.4100   -0.8640  112.1830 O.2   152  GLN152     -0.2867
    121  CB        25.0050    1.9710  111.9220 C.3   152  GLN152      0.0367
    122  CG        23.8780    2.8090  112.4950 C.3   152  GLN152      0.0905
    123  CD        23.4840    3.9540  111.5790 C.2   152  GLN152      0.2608
    124  OE1       24.3460    4.7290  111.1290 O.2   152  GLN152     -0.2717
    125  NE2       22.1690    4.0740  111.2950 N.am  152  GLN152     -0.0878
    126  N         25.0780   -3.7260  114.3600 N.3   154  SER154     -0.1217
    127  CA        25.0090   -4.0080  115.7870 C.3   154  SER154      0.1889
    128  C         26.3680   -4.3910  116.3810 C.2   154  SER154      0.2288
    129  O         26.6790   -4.0760  117.5400 O.2   154  SER154     -0.2866
    130  CB        24.0150   -5.1360  116.0120 C.3   154  SER154      0.2089
    131  OG        23.9000   -5.3870  117.3850 O.3   154  SER154     -0.2183
@<TRIPOS>BOND
     1   117   118    1
     2   118   119    1
     3   118   121    1
     4   124   123    2
     5   125   123   am
     6   123   122    1
     7   119   120    2
     8   121   122    1
     9   126   127    1
    10    45    43    1
    11    66    65    1
    12    41    40    2
    13    63    64    1
    14    63    62    1
    15    65    64    2
    16    65    67    1
    17    37    35   ar
    18   127   130    1
    19   127   128    1
    20    43    44    1
    21    43    42    1
    22   130   131    1
    23    40    39    1
    24   128   129    2
    25    42    39    1
    26    62    61    1
    27    35    36   ar
    28    35    34    1
    29    39    38    1
    30    61    58    1
    31    34    33    1
    32    38    31   am
    33    33    30    1
    34    58    57    1
    35    58    59    1
    36     2     1    1
    37     2     5    1
    38     2     3    1
    39    31    30    1
    40    31    32    2
    41     8     7    1
    42     6     5    1
    43     6     7    1
    44    30    29    1
    45    74    72    1
    46     3     4    2
    47    59    60    2
    48    59    68   am
    49     9    10    1
    50    68    69    1
    51    29    22   am
    52    10    11    1
    53    10    13    1
    54    23    22    2
    55    72    73    1
    56    72    69    1
    57    69    70    1
    58    22    21    1
    59    11    12    2
    60    15    17   ar
    61    15    14   ar
    62    13    14    1
    63    49    48    2
    64    17    19   ar
    65    14    16   ar
    66    84    83    1
    67    70    75   am
    68    70    71    2
    69    21    20    1
    70    21    24    1
    71    82    83    2
    72    82    81    1
    73    75    76    1
    74    48    47    1
    75    46    47    1
    76    83    85    1
    77    19    18   ar
    78    16    18   ar
    79    80    81    1
    80    80    79    1
    81    24    25    1
    82    52    51    1
    83    52    53    1
    84    47    50    1
    85    50    51    1
    86    55    54    1
    87    79    76    1
    88    76    77    1
    89    53    54    2
    90    78    77    2
    91    54    56    1
    92    25    26    1
    93    77    86   am
    94    27    26    2
    95    26    28   am
    96    86    87    1
    97    87    88    1
    98    87    90    1
    99    88    89    2
   100   110   109    1
   101   110   111    1
   102   110   113    1
   103   114   113    1
   104   114   116    1
   105    90    91    1
   106   111   112    2
   107   115   113    1
   108    93    91   ar
   109    93    95   ar
   110    91    92   ar
   111    98    99    1
   112    95    96   ar
   113    92    94   ar
   114    99   100    1
   115    99   102    1
   116    96    94   ar
   117    96    97    1
   118   100   101    2
   119   102   103    1
   120   103   104    1
   121   104   105    1
   122   108   106    1
   123   105   106    2
   124   106   107    1
