@<TRIPOS>MOLECULE
tmp/3p70F04.pdb
 92 89 0 0 0
SMALL
GASTEIGER

@<TRIPOS>ATOM
      1  N         53.0710   12.9550   52.8610 N.3   129  LEU129     -0.1231
      2  CA        52.3740   14.0560   52.1910 C.3   129  LEU129      0.1693
      3  C         52.5290   13.9180   50.7010 C.2   129  LEU129      0.2592
      4  O         53.4380   14.5010   50.0870 O.2   129  LEU129     -0.2718
      5  CB        52.9000   15.3890   52.6760 C.3   129  LEU129      0.0284
      6  CG        52.4670   15.6670   54.1150 C.3   129  LEU129      0.0019
      7  CD1       53.3270   16.7880   54.6910 C.3   129  LEU129      0.0001
      8  CD2       50.9620   16.0110   54.1820 C.3   129  LEU129      0.0001
      9  N         51.6550   13.0950   50.1280 N.am  130  GLN130     -0.1966
     10  CA        51.7550   12.7420   48.7020 C.3   130  GLN130      0.1733
     11  C         50.3650   12.6640   48.0260 C.2   130  GLN130      0.2616
     12  O         49.3590   12.2580   48.6510 O.2   130  GLN130     -0.2715
     13  CB        52.5300   11.4270   48.4930 C.3   130  GLN130      0.0408
     14  CG        53.9880   11.4250   48.9360 C.3   130  GLN130      0.0908
     15  CD        54.6800   10.1350   48.5340 C.2   130  GLN130      0.2608
     16  OE1       54.4390    9.6060   47.4490 O.2   130  GLN130     -0.2717
     17  NE2       55.5270    9.6180   49.4010 N.am  130  GLN130     -0.0878
     18  N         50.3240   13.0570   46.7470 N.am  131  ALA131     -0.1977
     19  CA        49.0580   13.0600   46.0880 C.3   131  ALA131      0.1597
     20  C         48.4890   11.6530   46.2310 C.2   131  ALA131      0.2287
     21  O         49.1790   10.6650   45.9380 O.2   131  ALA131     -0.2864
     22  CB        49.2170   13.4190   44.6860 C.3   131  ALA131      0.0319
     23  N         44.9080   13.5770   49.8350 N.3   162  ILE162     -0.1231
     24  CA        45.7070   14.7440   49.5000 C.3   162  ILE162      0.1692
     25  C         45.6910   14.9420   47.9810 C.2   162  ILE162      0.2592
     26  O         45.7600   13.9810   47.1900 O.2   162  ILE162     -0.2718
     27  CB        47.1400   14.5790   50.0220 C.3   162  ILE162      0.0266
     28  CG1       47.1410   14.4250   51.5370 C.3   162  ILE162      0.0019
     29  CG2       48.0130   15.7540   49.6960 C.3   162  ILE162      0.0020
     30  CD1       48.4450   14.0160   52.0620 C.3   162  ILE162      0.0001
     31  N         45.5770   16.2030   47.5770 N.am  163  VAL163     -0.1966
     32  CA        45.4200   16.5820   46.1790 C.3   163  VAL163      0.1727
     33  C         46.7010   17.2870   45.7710 C.2   163  VAL163      0.2616
     34  O         47.3930   17.8230   46.6300 O.2   163  VAL163     -0.2715
     35  CB        44.1730   17.4870   46.0270 C.3   163  VAL163      0.0290
     36  CG1       44.1510   18.2010   44.6880 C.3   163  VAL163      0.0023
     37  CG2       42.8760   16.6680   46.2930 C.3   163  VAL163      0.0023
     38  N         47.0440   17.2500   44.4910 N.am  164  GLU164     -0.1963
     39  CA        48.3390   17.7550   44.0580 C.3   164  GLU164      0.1733
     40  C         48.3110   19.2450   43.7850 C.2   164  GLU164      0.2616
     41  O         47.3280   19.7950   43.2640 O.2   164  GLU164     -0.2715
     42  CB        48.8560   17.0130   42.8330 C.3   164  GLU164      0.0429
     43  CG        47.7720   16.7370   41.7890 C.3   164  GLU164      0.1163
     44  CD        47.0730   15.4020   41.9980 C.2   164  GLU164      0.3649
     45  OE1       47.3080   14.5000   41.1890 O.co2 164  GLU164     -0.2457
     46  OE2       46.3070   15.2430   42.9750 O.co2 164  GLU164     -0.2457
     47  N         49.4270   19.8850   44.1070 N.am  165  ARG165     -0.1977
     48  CA        49.4940   21.3190   44.2190 C.3   165  ARG165      0.1597
     49  C         49.0000   22.0330   42.9720 C.2   165  ARG165      0.2287
     50  O         48.3650   23.0830   43.0940 O.2   165  ARG165     -0.2864
     51  CB        50.9030   21.7420   44.5970 C.3   165  ARG165      0.0334
     52  CG        50.9270   22.8870   45.5360 C.3   165  ARG165      0.0492
     53  CD        52.2330   22.9260   46.2840 C.3   165  ARG165      0.2205
     54  NE        52.0220   23.0370   47.7350 N.pl3 165  ARG165     -0.0865
     55  CZ        51.3640   24.0290   48.3400 C.cat 165  ARG165      0.5346
     56  NH1       50.8080   25.0140   47.6470 N.pl3 165  ARG165      0.1354
     57  NH2       51.2460   24.0370   49.6460 N.pl3 165  ARG165      0.1354
     58  N         45.0720   21.7580   43.1290 N.3   168  CYS168     -0.1235
     59  CA        44.7160   22.6730   44.2080 C.3   168  CYS168      0.1677
     60  C         44.6500   24.0540   43.6100 C.2   168  CYS168      0.2270
     61  O         43.5950   24.6720   43.5490 O.2   168  CYS168     -0.2867
     62  CB        45.8010   22.7390   45.2700 C.3   168  CYS168      0.0956
     63  SG        45.9410   21.4290   46.4420 S.3   168  CYS168     -0.0801
     64  N         49.9810   26.0550   53.0810 N.3   180  MET180     -0.1230
     65  CA        48.7300   25.3180   52.9350 C.3   180  MET180      0.1702
     66  C         48.8740   24.0370   52.1260 C.2   180  MET180      0.2592
     67  O         49.8540   23.8470   51.4210 O.2   180  MET180     -0.2718
     68  CB        47.7640   26.1700   52.1450 C.3   180  MET180      0.0401
     69  CG        47.3950   27.4250   52.8180 C.3   180  MET180      0.0596
     70  SD        46.6580   28.3740   51.5300 S.3   180  MET180     -0.1393
     71  CE        46.9970   30.0320   52.1720 C.3   180  MET180      0.0692
     72  N         47.8740   23.1700   52.1860 N.am  181  PHE181     -0.1976
     73  CA        47.7020   22.1270   51.1490 C.3   181  PHE181      0.1639
     74  C         46.2230   21.8300   51.0590 C.2   181  PHE181      0.2290
     75  O         45.4720   22.2330   51.9540 O.2   181  PHE181     -0.2864
     76  CB        48.5080   20.8590   51.4510 C.3   181  PHE181      0.0560
     77  CG        48.1250   20.1740   52.7110 C.ar  181  PHE181     -0.0200
     78  CD1       47.1340   19.1830   52.7120 C.ar  181  PHE181     -0.0042
     79  CD2       48.7500   20.4950   53.8990 C.ar  181  PHE181     -0.0042
     80  CE1       46.7500   18.5540   53.8620 C.ar  181  PHE181     -0.0003
     81  CE2       48.3660   19.8620   55.0930 C.ar  181  PHE181     -0.0003
     82  CZ        47.3550   18.8770   55.0580 C.ar  181  PHE181     -0.0000
     83  N         49.6510   23.7210   56.6070 N.3   237  HIS237     -0.1241
     84  CA        50.7440   22.7700   56.6130 C.3   237  HIS237      0.1621
     85  C         51.5160   22.7650   57.9390 C.2   237  HIS237      0.2264
     86  O         52.5110   23.5060   58.1150 O.2   237  HIS237     -0.2867
     87  CB        51.6960   23.1370   55.4650 C.3   237  HIS237      0.0745
     88  CG        52.5710   22.0130   55.0050 C.ar  237  HIS237      0.0817
     89  ND1       53.5900   21.4930   55.7770 N.ar  237  HIS237     -0.2268
     90  CD2       52.6110   21.3470   53.8290 C.ar  237  HIS237      0.1154
     91  CE1       54.2070   20.5430   55.0990 C.ar  237  HIS237      0.1986
     92  NE2       53.6240   20.4290   53.9190 N.ar  237  HIS237     -0.2212
@<TRIPOS>BOND
     1    45    44   ar
     2    43    44    1
     3    43    42    1
     4    44    46   ar
     5    42    39    1
     6    49    50    2
     7    49    48    1
     8    58    59    1
     9    41    40    2
    10    61    60    2
    11    60    59    1
    12    40    39    1
    13    40    47   am
    14    39    38    1
    15    47    48    1
    16    59    62    1
    17    48    51    1
    18    38    33   am
    19    51    52    1
    20    22    19    1
    21    36    35    1
    22    62    63    1
    23    52    53    1
    24    33    32    1
    25    33    34    2
    26    21    20    2
    27    35    32    1
    28    35    37    1
    29    19    20    1
    30    19    18    1
    31    32    31    1
    32    53    54    1
    33    18    11   am
    34    26    25    2
    35    16    15    2
    36    31    25   am
    37    56    55    1
    38    54    55    2
    39    25    24    1
    40    11    12    2
    41    11    10    1
    42    55    57    1
    43    13    10    1
    44    13    14    1
    45    15    14    1
    46    15    17   am
    47    10     9    1
    48    24    23    1
    49    24    27    1
    50    29    27    1
    51    27    28    1
    52     4     3    2
    53     9     3   am
    54     3     2    1
    55    74    73    1
    56    74    75    2
    57    73    76    1
    58    73    72    1
    59    67    66    2
    60    76    77    1
    61    70    71    1
    62    70    69    1
    63    28    30    1
    64    66    72   am
    65    66    65    1
    66    68    69    1
    67    68    65    1
    68     2     5    1
    69     2     1    1
    70     5     6    1
    71    77    78   ar
    72    77    79   ar
    73    78    80   ar
    74    65    64    1
    75    90    92   ar
    76    90    88   ar
    77    80    82   ar
    78    79    81   ar
    79    92    91   ar
    80     6     8    1
    81     6     7    1
    82    88    87    1
    83    88    89   ar
    84    82    81   ar
    85    91    89   ar
    86    87    84    1
    87    83    84    1
    88    84    85    1
    89    85    86    2
