@<TRIPOS>MOLECULE
tmp/3p71A01.pdb
 200 190 0 0 0
SMALL
GASTEIGER

@<TRIPOS>ATOM
      1  N          1.7320    7.3870  -11.8880 N.3     7  VAL7       -0.1231
      2  CA         0.3990    6.7980  -11.7770 C.3     7  VAL7        0.1692
      3  C         -0.3850    7.4190  -10.6170 C.2     7  VAL7        0.2591
      4  O         -1.5580    7.7550  -10.7730 O.2     7  VAL7       -0.2718
      5  CB         0.4620    5.2460  -11.6630 C.3     7  VAL7        0.0266
      6  CG1       -0.8860    4.6700  -11.2780 C.3     7  VAL7        0.0020
      7  CG2        0.9390    4.6290  -12.9800 C.3     7  VAL7        0.0020
      8  N          0.2740    7.5930   -9.4710 N.am    8  ARG8       -0.1980
      9  CA        -0.3400    8.2520   -8.3020 C.3     8  ARG8        0.1597
     10  C         -0.7360    9.6940   -8.5740 C.2     8  ARG8        0.2287
     11  O         -1.7110   10.1900   -8.0080 O.2     8  ARG8       -0.2864
     12  CB         0.5840    8.2120   -7.0810 C.3     8  ARG8        0.0334
     13  CG         0.5840    6.8860   -6.3420 C.3     8  ARG8        0.0492
     14  CD         1.2790    6.9950   -4.9990 C.3     8  ARG8        0.2205
     15  NE         2.7060    7.2960   -5.1140 N.pl3   8  ARG8       -0.0865
     16  CZ         3.6620    6.3860   -5.2890 C.cat   8  ARG8        0.5346
     17  NH1        3.3650    5.0970   -5.3850 N.pl3   8  ARG8        0.1354
     18  NH2        4.9240    6.7710   -5.3750 N.pl3   8  ARG8        0.1354
     19  N         -2.0920   10.8200  -11.1620 N.3    10  THR10      -0.1203
     20  CA        -3.3240   10.8820  -11.9720 C.3    10  THR10       0.1994
     21  C         -4.5710   11.0780  -11.1150 C.2    10  THR10       0.2618
     22  O         -5.5860   11.5930  -11.5890 O.2    10  THR10      -0.2717
     23  CB        -3.5230    9.6280  -12.8640 C.3    10  THR10       0.1784
     24  OG1       -3.6440    8.4620  -12.0420 O.3    10  THR10      -0.2211
     25  CG2       -2.3600    9.4500  -13.8190 C.3    10  THR10       0.0376
     26  N         -4.4850   10.6450   -9.8600 N.am   11  CYS11      -0.1969
     27  CA        -5.5570   10.8360   -8.8910 C.3    11  CYS11       0.1712
     28  C         -5.8080   12.3230   -8.6610 C.2    11  CYS11       0.2296
     29  O         -6.9560   12.7420   -8.5590 O.2    11  CYS11      -0.2864
     30  CB        -5.2210   10.1240   -7.5790 C.3    11  CYS11       0.0983
     31  SG        -6.1710   10.6450   -6.1320 S.3    11  CYS11      -0.0798
     32  N         -7.8030   13.6220  -11.9510 N.3    14  ALA14      -0.1231
     33  CA        -9.2180   13.2700  -11.9880 C.3    14  ALA14       0.1694
     34  C        -10.0160   14.0170  -10.9130 C.2    14  ALA14       0.2592
     35  O        -11.1240   14.4910  -11.1720 O.2    14  ALA14      -0.2718
     36  CB        -9.3930   11.7670  -11.8440 C.3    14  ALA14       0.0304
     37  N         -9.4390   14.1300   -9.7200 N.am   15  SER15      -0.1952
     38  CA       -10.0600   14.8600   -8.6190 C.3    15  SER15       0.1924
     39  C        -10.3170   16.3180   -8.9960 C.2    15  SER15       0.2314
     40  O        -11.4240   16.8260   -8.7960 O.2    15  SER15      -0.2863
     41  CB        -9.1910   14.7810   -7.3550 C.3    15  SER15       0.2116
     42  OG        -8.9710   13.4330   -6.9530 O.3    15  SER15      -0.2180
     43  N        -13.0820   16.4110  -11.7100 N.3    18  LYS18      -0.1245
     44  CA       -14.3870   16.1170  -11.1350 C.3    18  LYS18       0.1561
     45  C        -14.9330   17.2790  -10.2960 C.2    18  LYS18       0.2260
     46  O        -16.0980   17.6440  -10.4400 O.2    18  LYS18      -0.2867
     47  CB       -14.3610   14.8100  -10.3340 C.3    18  LYS18       0.0271
     48  CG       -14.2830   13.5450  -11.2030 C.3    18  LYS18       0.0035
     49  CD       -13.9640   12.3180  -10.3600 C.3    18  LYS18       0.0206
     50  CE       -14.1280   11.0360  -11.1600 C.3    18  LYS18       0.1093
     51  NZ       -14.3970    9.8490  -10.2900 N.3    18  LYS18      -0.1314
     52  N        -19.0310    9.7420  -17.6930 N.3    54  ARG54      -0.1245
     53  CA       -18.2940    8.7520  -16.9080 C.3    54  ARG54       0.1563
     54  C        -18.9110    8.5620  -15.5130 C.2    54  ARG54       0.2260
     55  O        -19.1550    7.4320  -15.0740 O.2    54  ARG54      -0.2867
     56  CB       -16.8260    9.1750  -16.8110 C.3    54  ARG54       0.0307
     57  CG       -16.0280    8.5760  -15.6720 C.3    54  ARG54       0.0489
     58  CD       -14.6290    9.1390  -15.7040 C.3    54  ARG54       0.2205
     59  NE       -13.8210    8.7620  -14.5510 N.pl3  54  ARG54      -0.0865
     60  CZ       -12.4960    8.8760  -14.4990 C.cat  54  ARG54       0.5346
     61  NH1      -11.8150    9.3420  -15.5390 N.pl3  54  ARG54       0.1354
     62  NH2      -11.8460    8.5160  -13.4030 N.pl3  54  ARG54       0.1354
     63  N        -14.4620   -0.3610   -4.0140 N.3    77  ASN77      -0.1240
     64  CA       -13.9070    0.5460   -5.0170 C.3    77  ASN77       0.1653
     65  C        -12.3880    0.3990   -5.1120 C.2    77  ASN77       0.2266
     66  O        -11.6490    0.7410   -4.1760 O.2    77  ASN77      -0.2867
     67  CB       -14.3070    1.9940   -4.7290 C.3    77  ASN77       0.1155
     68  CG       -13.9840    2.9410   -5.8810 C.2    77  ASN77       0.2627
     69  OD1      -13.2870    2.5890   -6.8330 O.2    77  ASN77      -0.2716
     70  ND2      -14.4900    4.1590   -5.7890 N.am   77  ASN77      -0.0877
     71  N         -8.7580    1.2450   -6.5520 N.3    79  GLY79      -0.1210
     72  CA        -8.1090    2.4800   -6.9820 C.3    79  GLY79       0.1956
     73  C         -9.1150    3.6060   -6.8680 C.2    79  GLY79       0.2612
     74  O         -9.3860    4.3080   -7.8420 O.2    79  GLY79      -0.2717
     75  N         -9.6730    3.7560   -5.6700 N.am   80  ALA80      -0.1965
     76  CA       -10.7910    4.6590   -5.4210 C.3    80  ALA80       0.1728
     77  C        -10.4510    6.1440   -5.5700 C.2    80  ALA80       0.2617
     78  O        -11.3120    6.9420   -5.9520 O.2    80  ALA80      -0.2715
     79  CB       -11.3700    4.3930   -4.0490 C.3    80  ALA80       0.0334
     80  N         -9.2050    6.5090   -5.2690 N.am   81  GLY81      -0.1940
     81  CA        -8.7860    7.9110   -5.2940 C.3    81  GLY81       0.2014
     82  C         -9.5290    8.7240   -4.2460 C.2    81  GLY81       0.2639
     83  O         -9.7280    8.2560   -3.1220 O.2    81  GLY81      -0.2714
     84  N         -9.9560    9.9300   -4.6230 N.am   82  MET82      -0.1963
     85  CA       -10.7170   10.8100   -3.7230 C.3    82  MET82       0.1736
     86  C        -12.2370   10.6250   -3.8750 C.2    82  MET82       0.2616
     87  O        -13.0050   11.5900   -3.8150 O.2    82  MET82      -0.2715
     88  CB       -10.3150   12.2820   -3.9230 C.3    82  MET82       0.0427
     89  CG        -8.8430   12.5700   -3.6580 C.3    82  MET82       0.0599
     90  SD        -8.3660   12.1080   -1.9890 S.3    82  MET82      -0.1393
     91  CE        -6.7170   11.4700   -2.2440 C.3    82  MET82       0.0692
     92  N        -12.6530    9.3730   -4.0540 N.am   83  ASP83      -0.1971
     93  CA       -14.0530    9.0110   -4.2670 C.3    83  ASP83       0.1709
     94  C        -14.9360    9.3370   -3.0580 C.2    83  ASP83       0.2293
     95  O        -14.5860    9.0440   -1.9140 O.2    83  ASP83      -0.2864
     96  CB       -14.1510    7.5250   -4.6140 C.3    83  ASP83       0.1436
     97  CG       -15.5720    7.0720   -4.8570 C.2    83  ASP83       0.3671
     98  OD1      -16.1750    7.5110   -5.8710 O.co2  83  ASP83      -0.2456
     99  OD2      -16.0700    6.2640   -4.0330 O.co2  83  ASP83      -0.2456
    100  N         -6.4360    1.9220   -2.3530 N.3   103  ASP103     -0.1225
    101  CA        -5.4890    2.7190   -3.1460 C.3   103  ASP103      0.1805
    102  C         -4.0830    2.5850   -2.5710 C.2   103  ASP103      0.2597
    103  O         -3.9030    1.9980   -1.5040 O.2   103  ASP103     -0.2718
    104  CB        -5.9080    4.1950   -3.1720 C.3   103  ASP103      0.1424
    105  CG        -5.7640    4.8170   -4.5480 C.2   103  ASP103      0.3668
    106  OD1       -4.6190    5.0380   -4.9940 O.co2 103  ASP103     -0.2456
    107  OD2       -6.8010    5.0940   -5.1930 O.co2 103  ASP103     -0.2456
    108  N         -3.0910    3.1240   -3.2780 N.am  104  PHE104     -0.1976
    109  CA        -1.7270    3.2230   -2.7550 C.3   104  PHE104      0.1639
    110  C         -1.7170    3.9040   -1.3790 C.2   104  PHE104      0.2290
    111  O         -2.4960    4.8340   -1.1440 O.2   104  PHE104     -0.2864
    112  CB        -0.8340    4.0240   -3.7140 C.3   104  PHE104      0.0560
    113  CG        -0.3370    3.2440   -4.9030 C.ar  104  PHE104     -0.0200
    114  CD1       -0.7160    3.6100   -6.1950 C.ar  104  PHE104     -0.0042
    115  CD2        0.5270    2.1630   -4.7390 C.ar  104  PHE104     -0.0042
    116  CE1       -0.2500    2.9130   -7.3060 C.ar  104  PHE104     -0.0003
    117  CE2        0.9900    1.4480   -5.8480 C.ar  104  PHE104     -0.0003
    118  CZ         0.6010    1.8290   -7.1330 C.ar  104  PHE104     -0.0000
    119  N         -1.7700    7.6720   -1.2990 N.3   107  ILE107     -0.1245
    120  CA        -3.0700    8.2520   -1.6130 C.3   107  ILE107      0.1561
    121  C         -3.9940    8.1800   -0.3990 C.2   107  ILE107      0.2260
    122  O         -4.6000    9.1790   -0.0100 O.2   107  ILE107     -0.2867
    123  CB        -3.6940    7.5780   -2.8670 C.3   107  ILE107      0.0252
    124  CG1       -2.8030    7.8140   -4.1010 C.3   107  ILE107      0.0019
    125  CG2       -5.1300    8.0460   -3.1140 C.3   107  ILE107      0.0019
    126  CD1       -2.4780    9.2770   -4.4070 C.3   107  ILE107      0.0001
    127  N         -3.1680   -0.2940   -0.1090 N.3   151  ALA151     -0.1231
    128  CA        -2.5870   -1.5160   -0.6670 C.3   151  ALA151      0.1694
    129  C         -2.2300   -1.3660   -2.1410 C.2   151  ALA151      0.2592
    130  O         -2.8370   -0.5780   -2.8610 O.2   151  ALA151     -0.2718
    131  CB        -3.5400   -2.6930   -0.4800 C.3   151  ALA151      0.0304
    132  N         -1.2380   -2.1360   -2.5760 N.am  152  ASP152     -0.1960
    133  CA        -0.8890   -2.2590   -3.9880 C.3   152  ASP152      0.1840
    134  C         -1.7440   -3.3760   -4.6100 C.2   152  ASP152      0.2622
    135  O         -1.7070   -4.5270   -4.1540 O.2   152  ASP152     -0.2715
    136  CB         0.6010   -2.5830   -4.1200 C.3   152  ASP152      0.1450
    137  CG         1.1240   -2.4290   -5.5330 C.2   152  ASP152      0.3671
    138  OD1        0.3300   -2.4880   -6.5010 O.co2 152  ASP152     -0.2456
    139  OD2        2.3500   -2.2520   -5.6740 O.co2 152  ASP152     -0.2456
    140  N         -2.5140   -3.0210   -5.6400 N.am  153  LEU153     -0.1963
    141  CA        -3.4370   -3.9470   -6.3090 C.3   153  LEU153      0.1728
    142  C         -2.7230   -5.0540   -7.0800 C.2   153  LEU153      0.2616
    143  O         -3.3360   -6.0580   -7.4570 O.2   153  LEU153     -0.2715
    144  CB        -4.3570   -3.1840   -7.2690 C.3   153  LEU153      0.0311
    145  CG        -5.4410   -2.2710   -6.6950 C.3   153  LEU153      0.0022
    146  CD1       -6.0000   -1.3910   -7.7850 C.3   153  LEU153      0.0001
    147  CD2       -6.5550   -3.0740   -6.0260 C.3   153  LEU153      0.0001
    148  N         -1.4290   -4.8540   -7.3200 N.am  154  ARG154     -0.1977
    149  CA        -0.6180   -5.7830   -8.0980 C.3   154  ARG154      0.1597
    150  C         -0.0490   -6.8830   -7.2100 C.2   154  ARG154      0.2287
    151  O          0.5180   -7.8620   -7.7000 O.2   154  ARG154     -0.2864
    152  CB         0.4910   -5.0270   -8.8280 C.3   154  ARG154      0.0334
    153  CG        -0.0320   -4.0290   -9.8690 C.3   154  ARG154      0.0492
    154  CD         1.0570   -3.0780  -10.3280 C.3   154  ARG154      0.2205
    155  NE         1.6750   -2.3990   -9.1920 N.pl3 154  ARG154     -0.0865
    156  CZ         2.6190   -1.4720   -9.2850 C.cat 154  ARG154      0.5346
    157  NH1        3.0710   -1.0930  -10.4720 N.pl3 154  ARG154      0.1354
    158  NH2        3.1090   -0.9230   -8.1810 N.pl3 154  ARG154      0.1354
    159  N        -12.5830    2.2500  -11.7760 N.3   179  GLU179     -0.1231
    160  CA       -12.8240    3.4560  -12.5480 C.3   179  GLU179      0.1699
    161  C        -11.4910    4.0790  -12.9450 C.2   179  GLU179      0.2592
    162  O        -10.8810    4.8150  -12.1660 O.2   179  GLU179     -0.2718
    163  CB       -13.6630    4.4440  -11.7310 C.3   179  GLU179      0.0402
    164  CG       -14.5720    5.3300  -12.5690 C.3   179  GLU179      0.1161
    165  CD       -15.0210    6.5900  -11.8480 C.2   179  GLU179      0.3649
    166  OE1      -15.6450    6.4960  -10.7660 O.co2 179  GLU179     -0.2457
    167  OE2      -14.7540    7.6880  -12.3760 O.co2 179  GLU179     -0.2457
    168  N        -11.0590    3.7690  -14.1670 N.am  180  CYS180     -0.1956
    169  CA        -9.7780    4.2220  -14.7420 C.3   180  CYS180      0.1843
    170  C         -8.5830    3.8220  -13.8630 C.2   180  CYS180      0.2625
    171  O         -7.8680    4.6800  -13.3280 O.2   180  CYS180     -0.2714
    172  CB        -9.8000    5.7290  -15.0510 C.3   180  CYS180      0.0997
    173  SG        -8.6400    6.2390  -16.3610 S.3   180  CYS180     -0.0797
    174  N         -8.3860    2.5100  -13.7150 N.am  181  VAL181     -0.1977
    175  CA        -7.3630    1.9530  -12.8170 C.3   181  VAL181      0.1596
    176  C         -6.6020    0.7840  -13.4470 C.2   181  VAL181      0.2287
    177  O         -5.3710    0.7400  -13.3910 O.2   181  VAL181     -0.2864
    178  CB        -7.9740    1.5010  -11.4560 C.3   181  VAL181      0.0276
    179  CG1       -6.9510    0.7570  -10.6110 C.3   181  VAL181      0.0022
    180  CG2       -8.5140    2.6980  -10.6900 C.3   181  VAL181      0.0022
    181  N         -3.3560    1.0360  -15.6470 N.3   184  TYR184     -0.1227
    182  CA        -2.0810    1.4510  -15.0650 C.3   184  TYR184      0.1736
    183  C         -1.1950    0.2800  -14.6300 C.2   184  TYR184      0.2595
    184  O         -0.0490    0.4810  -14.2140 O.2   184  TYR184     -0.2718
    185  CB        -2.3070    2.4430  -13.9210 C.3   184  TYR184      0.0548
    186  CG        -2.9330    3.7480  -14.3770 C.ar  184  TYR184     -0.0200
    187  CD1       -4.2480    4.0680  -14.0500 C.ar  184  TYR184     -0.0009
    188  CD2       -2.2090    4.6570  -15.1460 C.ar  184  TYR184     -0.0009
    189  CE1       -4.8210    5.2680  -14.4670 C.ar  184  TYR184      0.0417
    190  CE2       -2.7700    5.8500  -15.5740 C.ar  184  TYR184      0.0417
    191  CZ        -4.0740    6.1550  -15.2340 C.ar  184  TYR184      0.1957
    192  OH        -4.6240    7.3470  -15.6660 O.3   184  TYR184     -0.2866
    193  N         -1.7220   -0.9390  -14.7380 N.am  185  MET185     -0.1979
    194  CA        -0.9280   -2.1450  -14.4860 C.3   185  MET185      0.1605
    195  C         -0.8100   -3.0430  -15.7320 C.2   185  MET185      0.2287
    196  O         -1.5940   -2.9140  -16.6740 O.2   185  MET185     -0.2864
    197  CB        -1.4710   -2.9130  -13.2730 C.3   185  MET185      0.0413
    198  CG        -2.8610   -3.5160  -13.4340 C.3   185  MET185      0.0598
    199  SD        -3.6040   -3.9850  -11.8480 S.3   185  MET185     -0.1393
    200  CE        -4.1920   -2.3880  -11.2790 C.3   185  MET185      0.0692
@<TRIPOS>BOND
     1    52    53    1
     2    53    56    1
     3    53    54    1
     4    56    57    1
     5   196   195    2
     6   173   172    1
     7   195   194    1
     8    58    57    1
     9    58    59    1
    10   192   191    1
    11   181   182    1
    12   190   191   ar
    13   190   188   ar
    14    61    60    1
    15    54    55    2
    16   191   189   ar
    17   188   186   ar
    18   182   183    1
    19   182   185    1
    20   172   169    1
    21   169   168    1
    22   169   170    1
    23   193   183   am
    24   193   194    1
    25   183   184    2
    26    59    60    2
    27    60    62    1
    28   194   197    1
    29   189   187   ar
    30   186   187   ar
    31   186   185    1
    32   168   161   am
    33   170   174   am
    34   170   171    2
    35    25    23    1
    36   174   175    1
    37   176   177    2
    38   176   175    1
    39   198   197    1
    40   198   199    1
    41     7     5    1
    42   161   160    1
    43   161   162    2
    44    23    24    1
    45    23    20    1
    46   175   178    1
    47   164   165    1
    48   164   163    1
    49   160   159    1
    50   160   163    1
    51   167   165   ar
    52    33    32    1
    53    33    36    1
    54    33    34    1
    55    20    19    1
    56    20    21    1
    57     1     2    1
    58   165   166   ar
    59   199   200    1
    60     2     5    1
    61     2     3    1
    62    43    44    1
    63     5     6    1
    64    22    21    2
    65   178   180    1
    66   178   179    1
    67    48    49    1
    68    48    47    1
    69    35    34    2
    70    50    49    1
    71    50    51    1
    72    44    47    1
    73    44    45    1
    74    21    26   am
    75    34    37   am
    76     4     3    2
    77     3     8   am
    78   157   156    1
    79    46    45    2
    80   154   153    1
    81   154   155    1
    82   153   152    1
    83    26    27    1
    84    37    38    1
    85     8     9    1
    86   156   155    2
    87   156   158    1
    88    39    40    2
    89    39    38    1
    90    27    28    1
    91    27    30    1
    92   152   149    1
    93    28    29    2
    94    38    41    1
    95    10     9    1
    96    10    11    2
    97     9    12    1
    98   149   148    1
    99   149   150    1
   100    74    73    2
   101   146   145    1
   102   151   150    2
   103    30    31    1
   104   143   142    2
   105    41    42    1
   106   148   142   am
   107   116   118   ar
   108   116   114   ar
   109   144   145    1
   110   144   141    1
   111   118   117   ar
   112    12    13    1
   113   142   141    1
   114    72    73    1
   115    72    71    1
   116    73    75   am
   117    69    68    2
   118   145   147    1
   119   138   137   ar
   120    13    14    1
   121   141   140    1
   122   114   113   ar
   123    78    77    2
   124    68    70   am
   125    68    67    1
   126    98    97   ar
   127   117   115   ar
   128   139   137   ar
   129    75    76    1
   130   140   134   am
   131    77    76    1
   132    77    80   am
   133   137   136    1
   134    76    79    1
   135    17    16    1
   136    18    16    1
   137    81    80    1
   138    81    82    1
   139    16    15    2
   140   107   105   ar
   141    15    14    1
   142    65    64    1
   143    65    66    2
   144    64    67    1
   145    64    63    1
   146   106   105   ar
   147   113   115   ar
   148   113   112    1
   149    97    96    1
   150    97    99   ar
   151    84    82   am
   152    84    85    1
   153    96    93    1
   154   134   135    2
   155   134   133    1
   156   105   104    1
   157   126   124    1
   158    93    92    1
   159    93    94    1
   160    82    83    2
   161   136   133    1
   162   124   123    1
   163    92    86   am
   164   133   132    1
   165    88    85    1
   166    88    89    1
   167    86    87    2
   168    86    85    1
   169   112   109    1
   170    89    90    1
   171   108   109    1
   172   108   102   am
   173   104   101    1
   174   101   102    1
   175   101   100    1
   176   125   123    1
   177    94    95    2
   178   123   120    1
   179   130   129    2
   180   109   110    1
   181   132   129   am
   182   102   103    2
   183    91    90    1
   184   129   128    1
   185   120   119    1
   186   120   121    1
   187   110   111    2
   188   128   131    1
   189   128   127    1
   190   121   122    2
