@<TRIPOS>MOLECULE
tmp/3p72A00.pdb
 216 201 0 0 0
SMALL
GASTEIGER

@<TRIPOS>ATOM
      1  N        -13.6950   13.5740  -18.3880 N.3    59  GLN59      -0.1245
      2  CA       -15.0830   13.1860  -18.0340 C.3    59  GLN59       0.1566
      3  C        -15.0610   12.0000  -17.1270 C.2    59  GLN59       0.2260
      4  O        -14.3540   11.0190  -17.4300 O.2    59  GLN59      -0.2867
      5  CB       -15.8800   12.8040  -19.2710 C.3    59  GLN59       0.0367
      6  CG       -15.8700   13.8360  -20.3680 C.3    59  GLN59       0.0905
      7  CD       -16.7960   13.4520  -21.5110 C.2    59  GLN59       0.2608
      8  OE1      -17.8930   12.8990  -21.3060 O.2    59  GLN59      -0.2717
      9  NE2      -16.3580   13.7380  -22.7160 N.am   59  GLN59      -0.0878
     10  N        -17.7720    9.4730  -14.8660 N.3    61  ASN61      -0.1240
     11  CA       -19.1230    9.1120  -14.3620 C.3    61  ASN61       0.1653
     12  C        -19.0940    8.2050  -13.1390 C.2    61  ASN61       0.2266
     13  O        -18.5680    7.0580  -13.1940 O.2    61  ASN61      -0.2867
     14  CB       -20.0560    8.4530  -15.3920 C.3    61  ASN61       0.1155
     15  CG       -19.7990    8.8840  -16.7680 C.2    61  ASN61       0.2627
     16  OD1      -20.0210   10.0400  -17.1420 O.2    61  ASN61      -0.2716
     17  ND2      -19.2630    7.9770  -17.5590 N.am   61  ASN61      -0.0877
     18  N        -16.5090   17.2650  -17.2480 N.3    81  THR81      -0.1218
     19  CA       -17.8590   16.6020  -17.0300 C.3    81  THR81       0.1862
     20  C        -17.8450   15.6650  -15.8120 C.2    81  THR81       0.2287
     21  O        -16.9870   14.8190  -15.6960 O.2    81  THR81      -0.2866
     22  CB       -18.3670   15.8410  -18.2850 C.3    81  THR81       0.1770
     23  OG1      -18.5460   16.7480  -19.3640 O.3    81  THR81      -0.2211
     24  CG2      -19.6800   15.1590  -18.0690 C.3    81  THR81       0.0375
     25  N        -20.5740   13.3680  -13.4870 N.3    83  ASP83      -0.1239
     26  CA       -21.9150   12.8230  -13.3840 C.3    83  ASP83       0.1674
     27  C        -21.9430   12.0630  -12.0530 C.2    83  ASP83       0.2266
     28  O        -21.2220   11.0650  -11.8820 O.2    83  ASP83      -0.2867
     29  CB       -22.2790   11.9840  -14.5970 C.3    83  ASP83       0.1410
     30  CG       -23.7020   11.4550  -14.5780 C.2    83  ASP83       0.3668
     31  OD1      -24.4520   11.5740  -13.5510 O.co2  83  ASP83      -0.2456
     32  OD2      -24.1110   10.9150  -15.6440 O.co2  83  ASP83      -0.2456
     33  N        -28.0980    9.7100   -9.5600 N.3    86  HIS86      -0.1241
     34  CA       -28.6210    8.5000   -8.9050 C.3    86  HIS86       0.1621
     35  C        -27.7290    7.9330   -7.8440 C.2    86  HIS86       0.2264
     36  O        -27.3620    6.7580   -7.9070 O.2    86  HIS86      -0.2867
     37  CB       -28.9110    7.4330   -9.9320 C.3    86  HIS86       0.0745
     38  CG       -29.7940    7.8850  -11.0430 C.ar   86  HIS86       0.0817
     39  ND1      -31.1710    7.7800  -10.9830 N.ar   86  HIS86      -0.2268
     40  CD2      -29.5050    8.3970  -12.2650 C.ar   86  HIS86       0.1154
     41  CE1      -31.6920    8.2030  -12.1200 C.ar   86  HIS86       0.1986
     42  NE2      -30.7030    8.6010  -12.9060 N.ar   86  HIS86      -0.2212
     43  N        -19.8530   20.7840  -16.8350 N.3   104  VAL104     -0.1245
     44  CA       -21.0870   20.0030  -16.6840 C.3   104  VAL104      0.1561
     45  C        -21.0470   19.2760  -15.3730 C.2   104  VAL104      0.2260
     46  O        -20.1520   18.4890  -15.1400 O.2   104  VAL104     -0.2867
     47  CB       -21.3100   19.0020  -17.8220 C.3   104  VAL104      0.0252
     48  CG1      -22.5400   18.1640  -17.5820 C.3   104  VAL104      0.0019
     49  CG2      -21.4550   19.7290  -19.2040 C.3   104  VAL104      0.0019
     50  N        -23.7640   16.9400  -13.0750 N.3   106  ASP106     -0.1239
     51  CA       -25.0750   16.3200  -12.9130 C.3   106  ASP106      0.1674
     52  C        -25.1570   15.6760  -11.5390 C.2   106  ASP106      0.2266
     53  O        -24.3770   14.7770  -11.2020 O.2   106  ASP106     -0.2867
     54  CB       -25.3220   15.3020  -14.0380 C.3   106  ASP106      0.1410
     55  CG       -26.7320   14.8030  -14.1090 C.2   106  ASP106      0.3668
     56  OD1      -27.5460   14.9740  -13.1720 O.co2 106  ASP106     -0.2456
     57  OD2      -27.0590   14.2710  -15.1810 O.co2 106  ASP106     -0.2456
     58  N        -28.4480   14.9200  -10.3010 N.3   108  SER108     -0.1202
     59  CA       -29.8520   14.5530  -10.3740 C.3   108  SER108      0.2020
     60  C        -30.0690   13.3140   -9.5220 C.2   108  SER108      0.2618
     61  O        -29.1720   12.4470   -9.3960 O.2   108  SER108     -0.2717
     62  CB       -30.2360   14.2420  -11.8400 C.3   108  SER108      0.2103
     63  OG       -30.1420   15.4310  -12.6470 O.3   108  SER108     -0.2182
     64  N        -31.2590   13.2050   -8.9330 N.am  109  PHE109     -0.1975
     65  CA       -31.6220   11.9940   -8.2260 C.3   109  PHE109      0.1639
     66  C        -30.7070   11.5580   -7.1220 C.2   109  PHE109      0.2290
     67  O        -30.3420   10.3660   -7.0330 O.2   109  PHE109     -0.2864
     68  CB       -31.8630   10.8630   -9.2470 C.3   109  PHE109      0.0560
     69  CG       -32.8740   11.1980  -10.2840 C.ar  109  PHE109     -0.0200
     70  CD1      -34.2380   11.2470   -9.9390 C.ar  109  PHE109     -0.0042
     71  CD2      -32.4800   11.4870  -11.5920 C.ar  109  PHE109     -0.0042
     72  CE1      -35.2040   11.5790  -10.9060 C.ar  109  PHE109     -0.0003
     73  CE2      -33.4310   11.8210  -12.5800 C.ar  109  PHE109     -0.0003
     74  CZ       -34.8060   11.8380  -12.2420 C.ar  109  PHE109     -0.0000
     75  N        -23.5880   23.7590  -17.4750 N.3   128  GLU128     -0.1245
     76  CA       -24.7910   22.9630  -17.2910 C.3   128  GLU128      0.1567
     77  C        -24.8280   22.4270  -15.8480 C.2   128  GLU128      0.2260
     78  O        -23.8640   21.8450  -15.3570 O.2   128  GLU128     -0.2867
     79  CB       -24.9050   21.7710  -18.2810 C.3   128  GLU128      0.0388
     80  CG       -24.6640   22.1460  -19.7390 C.3   128  GLU128      0.1160
     81  CD       -24.8120   21.0390  -20.7430 C.2   128  GLU128      0.3649
     82  OE1      -25.2220   19.9270  -20.3840 O.co2 128  GLU128     -0.2457
     83  OE2      -24.5200   21.2890  -21.9290 O.co2 128  GLU128     -0.2457
     84  N        -27.3760   20.0480  -13.4950 N.3   130  TYR130     -0.1241
     85  CA       -28.5700   19.2270  -13.4080 C.3   130  TYR130      0.1605
     86  C        -28.8690   18.8140  -11.9650 C.2   130  TYR130      0.2264
     87  O        -28.1010   18.1030  -11.3130 O.2   130  TYR130     -0.2867
     88  CB       -28.4660   17.9640  -14.2690 C.3   130  TYR130      0.0534
     89  CG       -28.2850   18.2970  -15.7230 C.ar  130  TYR130     -0.0201
     90  CD1      -29.4120   18.5080  -16.5560 C.ar  130  TYR130     -0.0009
     91  CD2      -26.9990   18.5030  -16.2540 C.ar  130  TYR130     -0.0009
     92  CE1      -29.2570   18.8980  -17.8670 C.ar  130  TYR130      0.0417
     93  CE2      -26.8280   18.9340  -17.6090 C.ar  130  TYR130      0.0417
     94  CZ       -27.9610   19.0890  -18.3920 C.ar  130  TYR130      0.1957
     95  OH       -27.8170   19.5090  -19.6970 O.3   130  TYR130     -0.2866
     96  N        -32.2670   17.6640  -11.1200 N.3   132  LYS132     -0.1245
     97  CA       -33.5600   17.1030  -11.2070 C.3   132  LYS132      0.1561
     98  C        -33.7330   16.0000  -10.1850 C.2   132  LYS132      0.2260
     99  O        -32.8190   15.1840   -9.9570 O.2   132  LYS132     -0.2867
    100  CB       -33.7920   16.5080  -12.5930 C.3   132  LYS132      0.0271
    101  CG       -35.1440   15.7870  -12.8190 C.3   132  LYS132      0.0035
    102  CD       -35.4210   15.6430  -14.3370 C.3   132  LYS132      0.0206
    103  CE       -36.6440   14.7040  -14.5720 C.3   132  LYS132      0.1093
    104  NZ       -36.9390   14.7040  -16.0890 N.3   132  LYS132     -0.1314
    105  N        -27.6270   25.7000  -19.3100 N.3   152  LYS152     -0.1245
    106  CA       -28.7710   24.8640  -19.0240 C.3   152  LYS152      0.1561
    107  C        -28.8610   24.6210  -17.5020 C.2   152  LYS152      0.2260
    108  O        -27.8450   24.3910  -16.8430 O.2   152  LYS152     -0.2867
    109  CB       -28.6970   23.5150  -19.7480 C.3   152  LYS152      0.0271
    110  CG       -28.5680   23.6630  -21.2970 C.3   152  LYS152      0.0035
    111  CD       -28.2550   22.3170  -21.9380 C.3   152  LYS152      0.0206
    112  CE       -28.8560   22.2500  -23.3650 C.3   152  LYS152      0.1093
    113  NZ       -28.3720   23.4360  -24.0980 N.3   152  LYS152     -0.1314
    114  N        -31.3680   22.5390  -14.6890 N.3   154  SER154     -0.1217
    115  CA       -32.5130   21.7770  -14.3100 C.3   154  SER154      0.1889
    116  C        -32.7380   21.7340  -12.7740 C.2   154  SER154      0.2288
    117  O        -31.9140   21.2430  -12.0170 O.2   154  SER154     -0.2866
    118  CB       -32.4590   20.3380  -14.8050 C.3   154  SER154      0.2089
    119  OG       -33.6970   19.6850  -14.4730 O.3   154  SER154     -0.2183
    120  N        -35.9420   20.4970  -12.2130 N.3   156  ALA156     -0.1245
    121  CA       -37.2050   19.7850  -12.3960 C.3   156  ALA156      0.1562
    122  C        -37.4350   18.7930  -11.3100 C.2   156  ALA156      0.2260
    123  O        -36.4820   18.2140  -10.7590 O.2   156  ALA156     -0.2867
    124  CB       -37.2520   19.0430  -13.8080 C.3   156  ALA156      0.0290
    125  N        -31.6100   27.0050  -21.5170 N.3   176  THR176     -0.1218
    126  CA       -32.6890   26.1530  -21.0510 C.3   176  THR176      0.1862
    127  C        -32.8810   26.2210  -19.4910 C.2   176  THR176      0.2287
    128  O        -31.9070   26.1840  -18.7140 O.2   176  THR176     -0.2866
    129  CB       -32.4750   24.6750  -21.4920 C.3   176  THR176      0.1770
    130  OG1      -32.3380   24.6380  -22.9120 O.3   176  THR176     -0.2211
    131  CG2      -33.7030   23.8490  -21.1420 C.3   176  THR176      0.0375
    132  N        -35.3980   24.4050  -16.4760 N.3   178  LEU178     -0.1245
    133  CA       -36.4270   23.4290  -16.2750 C.3   178  LEU178      0.1561
    134  C        -36.9000   23.5330  -14.8140 C.2   178  LEU178      0.2260
    135  O        -36.1320   23.2810  -13.8690 O.2   178  LEU178     -0.2867
    136  CB       -35.9140   22.0200  -16.6000 C.3   178  LEU178      0.0270
    137  CG       -35.5120   21.8170  -18.0840 C.3   178  LEU178      0.0019
    138  CD1      -34.0000   21.6220  -18.0780 C.3   178  LEU178      0.0001
    139  CD2      -36.2090   20.5830  -18.5750 C.3   178  LEU178      0.0001
    140  N        -40.2470   22.4130  -14.1030 N.3   180  GLN180     -0.1245
    141  CA       -41.4830   21.6970  -14.0440 C.3   180  GLN180      0.1566
    142  C        -41.5860   20.7800  -12.8550 C.2   180  GLN180      0.2260
    143  O        -40.5700   20.2900  -12.3300 O.2   180  GLN180     -0.2867
    144  CB       -41.8050   20.9420  -15.3650 C.3   180  GLN180      0.0367
    145  CG       -41.0570   19.6100  -15.5680 C.3   180  GLN180      0.0905
    146  CD       -39.6750   19.7610  -16.1180 C.2   180  GLN180      0.2608
    147  OE1      -39.0720   20.8370  -16.1200 O.2   180  GLN180     -0.2717
    148  NE2      -39.1390   18.6520  -16.5990 N.am  180  GLN180     -0.0878
    149  N        -39.4580   25.3250  -19.0140 N.3   201  PHE201     -0.1241
    150  CA       -40.4500   24.3220  -18.6930 C.3   201  PHE201      0.1605
    151  C        -41.0180   24.6950  -17.3050 C.2   201  PHE201      0.2264
    152  O        -40.2820   24.8010  -16.3470 O.2   201  PHE201     -0.2867
    153  CB       -39.8790   22.9000  -18.6290 C.3   201  PHE201      0.0534
    154  CG       -39.3200   22.4060  -19.9550 C.ar  201  PHE201     -0.0203
    155  CD1      -38.1310   22.9180  -20.4350 C.ar  201  PHE201     -0.0042
    156  CD2      -40.0060   21.4400  -20.6930 C.ar  201  PHE201     -0.0042
    157  CE1      -37.5720   22.4680  -21.7210 C.ar  201  PHE201     -0.0003
    158  CE2      -39.4710   20.9690  -21.9710 C.ar  201  PHE201     -0.0003
    159  CZ       -38.2810   21.5200  -22.4670 C.ar  201  PHE201     -0.0000
    160  N        -42.4730   18.8530  -20.8620 N.3   230  TRP230     -0.1241
    161  CA       -41.5020   17.7780  -20.8470 C.3   230  TRP230      0.1605
    162  C        -42.1520   16.4760  -21.2990 C.2   230  TRP230      0.2264
    163  O        -43.1940   16.0530  -20.7750 O.2   230  TRP230     -0.2867
    164  CB       -40.8740   17.5840  -19.4600 C.3   230  TRP230      0.0550
    165  CG       -39.6990   16.5830  -19.4820 C.ar  230  TRP230      0.0003
    166  CD1      -39.7140   15.2990  -19.0500 C.ar  230  TRP230      0.0946
    167  CD2      -38.3870   16.8300  -19.9910 C.ar  230  TRP230      0.0152
    168  NE1      -38.4760   14.6980  -19.2640 N.ar  230  TRP230     -0.2442
    169  CE2      -37.6400   15.6310  -19.8270 C.ar  230  TRP230      0.0810
    170  CE3      -37.7560   17.9550  -20.5510 C.ar  230  TRP230      0.0012
    171  CZ2      -36.2890   15.5250  -20.2220 C.ar  230  TRP230      0.0191
    172  CZ3      -36.4200   17.8510  -20.9520 C.ar  230  TRP230      0.0001
    173  CH2      -35.7020   16.6270  -20.7880 C.ar  230  TRP230      0.0015
    174  N        -38.1920   10.2080  -22.7030 N.3   233  GLY233     -0.1210
    175  CA       -37.8150    9.2450  -23.7130 C.3   233  GLY233      0.1956
    176  C        -37.5500    9.8150  -25.0860 C.2   233  GLY233      0.2612
    177  O        -37.2810    9.0400  -26.0050 O.2   233  GLY233     -0.2717
    178  N        -37.6130   11.1420  -25.2610 N.am  234  VAL234     -0.1965
    179  CA       -37.3800   11.7590  -26.5900 C.3   234  VAL234      0.1727
    180  C        -36.3890   12.8910  -26.5640 C.2   234  VAL234      0.2616
    181  O        -35.9600   13.3250  -25.4840 O.2   234  VAL234     -0.2715
    182  CB       -38.6990   12.2220  -27.3310 C.3   234  VAL234      0.0290
    183  CG1      -39.7130   11.1090  -27.3450 C.3   234  VAL234      0.0023
    184  CG2      -39.2930   13.4860  -26.7130 C.3   234  VAL234      0.0023
    185  N        -35.9940   13.3410  -27.7510 N.am  235  ASP235     -0.1957
    186  CA       -35.2090   14.5430  -27.8980 C.3   235  ASP235      0.1840
    187  C        -36.0930   15.7320  -27.5860 C.2   235  ASP235      0.2622
    188  O        -37.3200   15.6710  -27.7430 O.2   235  ASP235     -0.2715
    189  CB       -34.6170   14.6750  -29.3190 C.3   235  ASP235      0.1450
    190  CG       -33.5260   13.5980  -29.6280 C.2   235  ASP235      0.3671
    191  OD1      -33.0430   12.8730  -28.7110 O.co2 235  ASP235     -0.2456
    192  OD2      -33.1570   13.4840  -30.8160 O.co2 235  ASP235     -0.2456
    193  N        -35.4590   16.8060  -27.1330 N.am  236  VAL236     -0.1963
    194  CA       -36.1400   18.0690  -26.9150 C.3   236  VAL236      0.1727
    195  C        -36.6490   18.6930  -28.2360 C.2   236  VAL236      0.2616
    196  O        -37.6220   19.4490  -28.2270 O.2   236  VAL236     -0.2715
    197  CB       -35.2590   19.0660  -26.0880 C.3   236  VAL236      0.0290
    198  CG1      -33.9500   19.4030  -26.8210 C.3   236  VAL236      0.0023
    199  CG2      -35.9990   20.3270  -25.8040 C.3   236  VAL236      0.0023
    200  N        -36.0100   18.3870  -29.3680 N.am  237  LYS237     -0.1977
    201  CA       -36.5080   18.9260  -30.6700 C.3   237  LYS237      0.1596
    202  C        -37.8380   18.2900  -31.0470 C.2   237  LYS237      0.2287
    203  O        -38.5730   18.8310  -31.8700 O.2   237  LYS237     -0.2864
    204  CB       -35.4810   18.8370  -31.8270 C.3   237  LYS237      0.0298
    205  CG       -35.0560   17.4090  -32.2210 C.3   237  LYS237      0.0038
    206  CD       -34.0990   17.4150  -33.4450 C.3   237  LYS237      0.0206
    207  CE       -33.3390   16.0700  -33.6280 C.3   237  LYS237      0.1093
    208  NZ       -34.2160   14.8380  -33.4320 N.3   237  LYS237     -0.1314
    209  N        -40.2620   17.9030  -28.6990 N.3   239  MET239     -0.1245
    210  CA       -41.2250   18.2820  -27.6530 C.3   239  MET239      0.1570
    211  C        -42.1110   19.4760  -28.0510 C.2   239  MET239      0.2261
    212  O        -41.7390   20.3360  -28.8580 O.2   239  MET239     -0.2867
    213  CB       -40.5340   18.4840  -26.2790 C.3   239  MET239      0.0387
    214  CG       -39.9220   17.2210  -25.6550 C.3   239  MET239      0.0595
    215  SD       -39.0110   17.5700  -24.1080 S.3   239  MET239     -0.1393
    216  CE       -38.0490   16.1030  -23.8430 C.3   239  MET239      0.0692
@<TRIPOS>BOND
     1   207   206    1
     2   207   208    1
     3   206   205    1
     4   205   204    1
     5   203   202    2
     6   204   201    1
     7   202   201    1
     8   192   190   ar
     9   201   200    1
    10   190   189    1
    11   190   191   ar
    12   200   195   am
    13   189   186    1
    14   212   211    2
    15   209   210    1
    16   195   196    2
    17   195   194    1
    18   211   210    1
    19   186   185    1
    20   186   187    1
    21   185   180   am
    22   188   187    2
    23   210   213    1
    24   187   193   am
    25   183   182    1
    26   182   184    1
    27   182   179    1
    28   193   194    1
    29   194   197    1
    30   198   197    1
    31   179   180    1
    32   179   178    1
    33   180   181    2
    34   213   214    1
    35   197   199    1
    36   177   176    2
    37   214   215    1
    38   178   176   am
    39   176   175    1
    40   215   216    1
    41   113   112    1
    42   175   174    1
    43   112   111    1
    44   130   129    1
    45     9     7   am
    46   159   158   ar
    47   159   157   ar
    48   158   156   ar
    49   111   110    1
    50    83    81   ar
    51   157   155   ar
    52   125   126    1
    53     7     8    2
    54     7     6    1
    55   129   131    1
    56   129   126    1
    57   162   161    1
    58   162   163    2
    59   110   109    1
    60   126   127    1
    61   172   173   ar
    62   172   170   ar
    63   160   161    1
    64   161   164    1
    65   173   171   ar
    66    81    82   ar
    67    81    80    1
    68   156   154   ar
    69   170   167   ar
    70   155   154   ar
    71     6     5    1
    72   171   169   ar
    73   167   169   ar
    74   167   165   ar
    75   154   153    1
    76   169   168   ar
    77   109   106    1
    78    80    79    1
    79    95    94    1
    80   127   128    2
    81   165   164    1
    82   165   166   ar
    83    23    22    1
    84   105   106    1
    85     5     2    1
    86   168   166   ar
    87    49    47    1
    88   106   107    1
    89   149   150    1
    90   150   153    1
    91   150   151    1
    92   139   137    1
    93    94    92   ar
    94    94    93   ar
    95     1     2    1
    96    22    24    1
    97    22    19    1
    98    79    76    1
    99   137   138    1
   100   137   136    1
   101     2     3    1
   102    92    90   ar
   103    47    48    1
   104    47    44    1
   105    93    91   ar
   106    17    15   am
   107   107   108    2
   108    75    76    1
   109     4     3    2
   110   151   152    2
   111    76    77    1
   112    18    19    1
   113    16    15    2
   114    19    20    1
   115    43    44    1
   116    15    14    1
   117    44    45    1
   118   136   133    1
   119   148   146   am
   120    90    89   ar
   121   132   133    1
   122   133   134    1
   123    91    89   ar
   124   147   146    2
   125   146   145    1
   126   104   103    1
   127    77    78    2
   128    20    21    2
   129    89    88    1
   130    32    30   ar
   131   145   144    1
   132    14    11    1
   133    45    46    2
   134   144   141    1
   135    57    55   ar
   136    10    11    1
   137   134   135    2
   138   118   119    1
   139   118   115    1
   140   114   115    1
   141    29    30    1
   142    29    26    1
   143    30    31   ar
   144   103   102    1
   145    11    12    1
   146   102   101    1
   147   115   116    1
   148    88    85    1
   149    55    54    1
   150    55    56   ar
   151   140   141    1
   152   141   142    1
   153    54    51    1
   154   124   121    1
   155    84    85    1
   156    25    26    1
   157    85    86    1
   158    26    27    1
   159    13    12    2
   160    50    51    1
   161    51    52    1
   162    42    40   ar
   163    42    41   ar
   164   142   143    2
   165   101   100    1
   166   116   117    2
   167    63    62    1
   168   100    97    1
   169    73    74   ar
   170    73    71   ar
   171   121   120    1
   172   121   122    1
   173    40    38   ar
   174    74    72   ar
   175    41    39   ar
   176    27    28    2
   177    86    87    2
   178    62    59    1
   179    71    69   ar
   180    52    53    2
   181   122   123    2
   182    97    96    1
   183    97    98    1
   184    38    39   ar
   185    38    37    1
   186    72    70   ar
   187    59    58    1
   188    59    60    1
   189    69    70   ar
   190    69    68    1
   191    98    99    2
   192    37    34    1
   193    33    34    1
   194    60    61    2
   195    60    64   am
   196    68    65    1
   197    64    65    1
   198    34    35    1
   199    65    66    1
   200    36    35    2
   201    66    67    2
