@<TRIPOS>MOLECULE
tmp/3p76A00.pdb
 188 180 0 0 0
SMALL
GASTEIGER

@<TRIPOS>ATOM
      1  N        -14.5400   25.3470   -4.8760 N.3    17  ILE17      -0.1231
      2  CA       -14.0820   24.0260   -5.3410 C.3    17  ILE17       0.1692
      3  C        -14.6120   22.8440   -4.5170 C.2    17  ILE17       0.2592
      4  O        -14.8970   21.7850   -5.0800 O.2    17  ILE17      -0.2718
      5  CB       -12.5460   23.9650   -5.5390 C.3    17  ILE17       0.0266
      6  CG1      -12.1660   22.8680   -6.5820 C.3    17  ILE17       0.0019
      7  CG2      -11.7860   23.8000   -4.2090 C.3    17  ILE17       0.0020
      8  CD1      -10.8530   23.0350   -7.1970 C.3    17  ILE17       0.0001
      9  N        -14.7020   23.0080   -3.1890 N.am   18  HIS18      -0.1976
     10  CA       -15.1460   21.9050   -2.3400 C.3    18  HIS18       0.1656
     11  C        -16.6450   21.8020   -2.1480 C.2    18  HIS18       0.2291
     12  O        -17.1900   20.7080   -2.2810 O.2    18  HIS18      -0.2864
     13  CB       -14.3840   21.8900   -1.0070 C.3    18  HIS18       0.0771
     14  CG       -12.9470   21.5040   -1.1630 C.ar   18  HIS18       0.0820
     15  ND1      -12.5820   20.2830   -1.7050 N.ar   18  HIS18      -0.2267
     16  CD2      -11.8270   22.1940   -0.8530 C.ar   18  HIS18       0.1154
     17  CE1      -11.2590   20.2720   -1.7190 C.ar   18  HIS18       0.1986
     18  NE2      -10.7580   21.4040   -1.2270 N.ar   18  HIS18      -0.2212
     19  N         -7.1690   18.6480    2.2110 N.3    57  HIS57      -0.1241
     20  CA        -7.4710   19.1260    0.8410 C.3    57  HIS57       0.1621
     21  C         -7.7590   20.6300    0.7290 C.2    57  HIS57       0.2264
     22  O         -7.9250   21.1440   -0.3780 O.2    57  HIS57      -0.2867
     23  CB        -8.5200   18.2510    0.1120 C.3    57  HIS57       0.0745
     24  CG        -8.1840   16.7900    0.1530 C.ar   57  HIS57       0.0817
     25  ND1       -7.2010   16.2550   -0.6570 N.ar   57  HIS57      -0.2268
     26  CD2       -8.6890   15.8090    0.9360 C.ar   57  HIS57       0.1154
     27  CE1       -7.1340   14.9720   -0.3380 C.ar   57  HIS57       0.1986
     28  NE2       -8.0250   14.6530    0.6020 N.ar   57  HIS57      -0.2212
     29  N         -6.6920   29.4000    1.6780 N.3    72  GLU72      -0.1231
     30  CA        -5.2830   29.4190    1.2420 C.3    72  GLU72       0.1699
     31  C         -4.8730   30.3070    0.0590 C.2    72  GLU72       0.2592
     32  O         -3.8320   30.9510    0.1300 O.2    72  GLU72      -0.2718
     33  CB        -4.6870   27.9940    1.1470 C.3    72  GLU72       0.0402
     34  CG        -5.3840   27.1180    0.1160 C.3    72  GLU72       0.1161
     35  CD        -6.5360   26.2480    0.5980 C.2    72  GLU72       0.3649
     36  OE1       -7.1920   26.5950    1.6050 O.co2  72  GLU72      -0.2457
     37  OE2       -6.8020   25.2190   -0.0600 O.co2  72  GLU72      -0.2457
     38  N         -5.6820   30.3520   -1.0130 N.am   73  HIS73      -0.1976
     39  CA        -5.3470   31.1160   -2.2170 C.3    73  HIS73       0.1656
     40  C         -5.4590   32.6200   -2.0100 C.2    73  HIS73       0.2291
     41  O         -4.5390   33.3520   -2.3800 O.2    73  HIS73      -0.2864
     42  CB        -6.1710   30.6320   -3.4350 C.3    73  HIS73       0.0771
     43  CG        -6.0410   29.1620   -3.7290 C.ar   73  HIS73       0.0820
     44  ND1       -6.8720   28.5360   -4.6430 N.ar   73  HIS73      -0.2267
     45  CD2       -5.1640   28.2490   -3.2450 C.ar   73  HIS73       0.1154
     46  CE1       -6.4750   27.2720   -4.6770 C.ar   73  HIS73       0.1986
     47  NE2       -5.4710   27.0500   -3.8250 N.ar   73  HIS73      -0.2212
     48  N         -4.5630   24.9280   -8.8970 N.3   178  THR178     -0.1203
     49  CA        -4.7780   23.7490   -8.0750 C.3   178  THR178      0.1994
     50  C         -4.8380   22.5330   -9.0170 C.2   178  THR178      0.2618
     51  O         -5.1670   22.6670  -10.2060 O.2   178  THR178     -0.2717
     52  CB        -6.0170   23.9020   -7.1690 C.3   178  THR178      0.1784
     53  OG1       -6.1120   22.7340   -6.3530 O.3   178  THR178     -0.2211
     54  CG2       -7.3030   24.0900   -7.9400 C.3   178  THR178      0.0376
     55  N         -4.4430   21.3770   -8.5080 N.am  179  PHE179     -0.1961
     56  CA        -4.3740   20.1800   -9.3300 C.3   179  PHE179      0.1771
     57  C         -4.9030   18.9690   -8.5950 C.2   179  PHE179      0.2619
     58  O         -5.0380   18.9890   -7.3690 O.2   179  PHE179     -0.2715
     59  CB        -2.9290   19.9550   -9.8370 C.3   179  PHE179      0.0574
     60  CG        -1.9170   19.6930   -8.7390 C.ar  179  PHE179     -0.0200
     61  CD1       -1.5280   18.3960   -8.4260 C.ar  179  PHE179     -0.0042
     62  CD2       -1.3340   20.7470   -8.0390 C.ar  179  PHE179     -0.0042
     63  CE1       -0.5920   18.1540   -7.4170 C.ar  179  PHE179     -0.0003
     64  CE2       -0.4270   20.5030   -7.0040 C.ar  179  PHE179     -0.0003
     65  CZ        -0.0540   19.2090   -6.7070 C.ar  179  PHE179     -0.0000
     66  N         -5.1950   17.9060   -9.3530 N.am  180  ALA180     -0.1977
     67  CA        -5.6980   16.6460   -8.8170 C.3   180  ALA180      0.1597
     68  C         -5.2770   15.4950   -9.7120 C.2   180  ALA180      0.2287
     69  O         -5.0690   15.6740  -10.9160 O.2   180  ALA180     -0.2864
     70  CB        -7.2220   16.6850   -8.7050 C.3   180  ALA180      0.0319
     71  N         -6.3480   11.7890  -11.2110 N.3   182  ASP182     -0.1239
     72  CA        -7.5860   11.0670  -11.5230 C.3   182  ASP182      0.1674
     73  C         -7.9000    9.8790  -10.6050 C.2   182  ASP182      0.2266
     74  O         -9.0700    9.6300  -10.3190 O.2   182  ASP182     -0.2867
     75  CB        -7.6640   10.6850  -13.0090 C.3   182  ASP182      0.1410
     76  CG        -6.6520    9.6700  -13.5170 C.2   182  ASP182      0.3668
     77  OD1       -5.7870    9.2400  -12.7280 O.co2 182  ASP182     -0.2456
     78  OD2       -6.6980    9.3470  -14.7160 O.co2 182  ASP182     -0.2456
     79  N         -9.5810   11.2870   -7.1880 N.3   185  ILE185     -0.1245
     80  CA       -10.8700   11.9890   -7.2530 C.3   185  ILE185      0.1561
     81  C        -12.0290   11.2550   -6.5580 C.2   185  ILE185      0.2260
     82  O        -12.7620   11.8860   -5.8090 O.2   185  ILE185     -0.2867
     83  CB       -11.2120   12.5090   -8.6860 C.3   185  ILE185      0.0252
     84  CG1      -10.1530   13.5430   -9.1650 C.3   185  ILE185      0.0019
     85  CG2      -12.6390   13.1120   -8.7460 C.3   185  ILE185      0.0019
     86  CD1      -10.1630   13.8270  -10.6710 C.3   185  ILE185      0.0001
     87  N        -11.8670   11.8000   -2.8390 N.3   188  ILE188     -0.1231
     88  CA       -12.1740   13.2010   -2.5250 C.3   188  ILE188      0.1692
     89  C        -13.6960   13.4500   -2.5500 C.2   188  ILE188      0.2591
     90  O        -14.2200   14.0500   -1.6130 O.2   188  ILE188     -0.2718
     91  CB       -11.3400   14.1760   -3.4140 C.3   188  ILE188      0.0266
     92  CG1       -9.8270   14.0380   -3.0780 C.3   188  ILE188      0.0019
     93  CG2      -11.8130   15.6360   -3.2640 C.3   188  ILE188      0.0020
     94  CD1       -8.8330   14.5330   -4.1510 C.3   188  ILE188      0.0001
     95  N        -14.3960   12.9250   -3.5740 N.am  189  LYS189     -0.1980
     96  CA       -15.8530   13.0410   -3.7150 C.3   189  LYS189      0.1596
     97  C        -16.5690   12.2490   -2.6110 C.2   189  LYS189      0.2287
     98  O        -17.5620   12.7300   -2.0510 O.2   189  LYS189     -0.2864
     99  CB       -16.3320   12.5500   -5.0960 C.3   189  LYS189      0.0298
    100  CG       -15.7350   13.2890   -6.3040 C.3   189  LYS189      0.0038
    101  CD       -16.3930   14.6260   -6.6410 C.3   189  LYS189      0.0206
    102  CE       -16.0950   14.9920   -8.0830 C.3   189  LYS189      0.1093
    103  NZ       -16.2750   16.4440   -8.3610 N.3   189  LYS189     -0.1314
    104  N        -14.4570   18.3340   -3.0730 N.3   194  GLY194     -0.1225
    105  CA       -14.2730   18.5720   -4.5040 C.3   194  GLY194      0.1811
    106  C        -15.5280   18.6710   -5.3490 C.2   194  GLY194      0.2280
    107  O        -15.4730   18.3810   -6.5430 O.2   194  GLY194     -0.2866
    108  N        -15.1510   21.0540   -8.3690 N.3   197  GLY197     -0.1210
    109  CA       -13.9620   20.7630   -9.1610 C.3   197  GLY197      0.1956
    110  C        -14.2990   20.3650  -10.5750 C.2   197  GLY197      0.2613
    111  O        -15.2070   19.5640  -10.7940 O.2   197  GLY197     -0.2717
    112  N        -13.5880   20.9460  -11.5480 N.am  198  SER198     -0.1938
    113  CA       -13.8010   20.6590  -12.9680 C.3   198  SER198      0.2055
    114  C        -12.5400   21.0150  -13.7420 C.2   198  SER198      0.2642
    115  O        -11.6070   21.5740  -13.1650 O.2   198  SER198     -0.2714
    116  CB       -14.9880   21.4660  -13.5040 C.3   198  SER198      0.2130
    117  OG       -14.6580   22.8280  -13.7290 O.3   198  SER198     -0.2179
    118  N        -12.5330   20.7480  -15.0560 N.am  199  LEU199     -0.1977
    119  CA       -11.3990   21.0960  -15.9190 C.3   199  LEU199      0.1596
    120  C        -11.2730   22.6100  -16.1190 C.2   199  LEU199      0.2287
    121  O        -10.2660   23.0710  -16.6520 O.2   199  LEU199     -0.2864
    122  CB       -11.4730   20.3450  -17.2630 C.3   199  LEU199      0.0297
    123  CG       -11.3530   18.8090  -17.1890 C.3   199  LEU199      0.0022
    124  CD1      -11.4480   18.1790  -18.5800 C.3   199  LEU199      0.0001
    125  CD2      -10.0490   18.3770  -16.5120 C.3   199  LEU199      0.0001
    126  N         -9.3620   23.2790  -12.3620 N.3   202  THR202     -0.1218
    127  CA        -8.3540   22.3340  -11.8670 C.3   202  THR202      0.1862
    128  C         -7.5640   21.6960  -12.9910 C.2   202  THR202      0.2287
    129  O         -8.1310   21.2870  -14.0060 O.2   202  THR202     -0.2866
    130  CB        -9.0190   21.2260  -11.0130 C.3   202  THR202      0.1770
    131  OG1       -9.8100   21.8180   -9.9840 O.3   202  THR202     -0.2211
    132  CG2       -8.0120   20.2520  -10.3960 C.3   202  THR202      0.0375
    133  N         -6.1530   18.5520  -14.0990 N.3   204  VAL204     -0.1245
    134  CA        -6.3690   17.1440  -13.8050 C.3   204  VAL204      0.1561
    135  C         -5.4120   16.2590  -14.6110 C.2   204  VAL204      0.2260
    136  O         -5.3620   16.3420  -15.8390 O.2   204  VAL204     -0.2867
    137  CB        -7.8480   16.7130  -13.9230 C.3   204  VAL204      0.0252
    138  CG1       -8.0130   15.2340  -13.5720 C.3   204  VAL204      0.0019
    139  CG2       -8.7430   17.5840  -13.0330 C.3   204  VAL204      0.0019
    140  N         -5.7070   15.7990  -18.6980 N.3   211  TYR211     -0.1241
    141  CA        -7.1230   15.8870  -19.0860 C.3   211  TYR211      0.1605
    142  C         -7.4770   17.2370  -19.7220 C.2   211  TYR211      0.2264
    143  O         -8.2720   17.2850  -20.6590 O.2   211  TYR211     -0.2867
    144  CB        -8.0310   15.6300  -17.8730 C.3   211  TYR211      0.0534
    145  CG        -8.1550   14.1740  -17.4780 C.ar  211  TYR211     -0.0201
    146  CD1       -7.1350   13.5280  -16.7820 C.ar  211  TYR211     -0.0009
    147  CD2       -9.3160   13.4530  -17.7520 C.ar  211  TYR211     -0.0009
    148  CE1       -7.2450   12.1870  -16.4150 C.ar  211  TYR211      0.0417
    149  CE2       -9.4410   12.1140  -17.3810 C.ar  211  TYR211      0.0417
    150  CZ        -8.4060   11.4870  -16.7060 C.ar  211  TYR211      0.1957
    151  OH        -8.5350   10.1800  -16.3120 O.3   211  TYR211     -0.2866
    152  N          2.1770   25.6040   -7.6800 N.3   225  HIS225     -0.1226
    153  CA         0.9310   25.7600   -6.9290 C.3   225  HIS225      0.1752
    154  C          1.1190   25.3940   -5.4670 C.2   225  HIS225      0.2595
    155  O          0.5580   26.0510   -4.6000 O.2   225  HIS225     -0.2718
    156  CB        -0.2450   24.9580   -7.5160 C.3   225  HIS225      0.0759
    157  CG        -1.5170   25.2680   -6.7870 C.ar  225  HIS225      0.0818
    158  ND1       -2.2100   26.4450   -7.0260 N.ar  225  HIS225     -0.2268
    159  CD2       -2.0990   24.6220   -5.7470 C.ar  225  HIS225      0.1154
    160  CE1       -3.2170   26.4550   -6.1660 C.ar  225  HIS225      0.1986
    161  NE2       -3.1990   25.3780   -5.3790 N.ar  225  HIS225     -0.2212
    162  N          1.8890   24.3400   -5.1960 N.am  226  LYS226     -0.1980
    163  CA         2.1730   23.9070   -3.8280 C.3   226  LYS226      0.1596
    164  C          2.9660   24.9810   -3.0590 C.2   226  LYS226      0.2287
    165  O          2.7370   25.1690   -1.8570 O.2   226  LYS226     -0.2864
    166  CB         2.8880   22.5560   -3.8490 C.3   226  LYS226      0.0298
    167  CG         1.9590   21.3640   -4.1320 C.3   226  LYS226      0.0038
    168  CD         1.1250   20.9850   -2.8960 C.3   226  LYS226      0.0206
    169  CE         0.4300   19.6540   -3.0360 C.3   226  LYS226      0.1093
    170  NZ        -0.3610   19.3220   -1.8210 N.3   226  LYS226     -0.1314
    171  N          0.3480   27.5780   -2.2040 N.3   229  ASP229     -0.1239
    172  CA        -0.4480   27.0570   -1.0690 C.3   229  ASP229      0.1674
    173  C          0.2510   27.2860    0.2710 C.2   229  ASP229      0.2266
    174  O         -0.3820   27.7640    1.2150 O.2   229  ASP229     -0.2867
    175  CB        -0.7180   25.5510   -1.2370 C.3   229  ASP229      0.1410
    176  CG        -1.8640   25.2010   -2.1660 C.2   229  ASP229      0.3668
    177  OD1       -2.6680   26.1090   -2.4910 O.co2 229  ASP229     -0.2456
    178  OD2       -1.9980   24.0050   -2.5140 O.co2 229  ASP229     -0.2456
    179  N         -1.3910   20.9420    3.5250 N.3   252  HIS252     -0.1241
    180  CA        -1.9520   21.8770    4.5140 C.3   252  HIS252      0.1621
    181  C         -1.7710   21.4380    5.9610 C.2   252  HIS252      0.2264
    182  O         -1.4600   22.2770    6.7980 O.2   252  HIS252     -0.2867
    183  CB        -3.4210   22.2110    4.2270 C.3   252  HIS252      0.0745
    184  CG        -3.6490   22.7510    2.8500 C.ar  252  HIS252      0.0817
    185  ND1       -3.1340   23.9780    2.4580 N.ar  252  HIS252     -0.2268
    186  CD2       -4.3280   22.2090    1.8140 C.ar  252  HIS252      0.1154
    187  CE1       -3.5200   24.1450    1.2050 C.ar  252  HIS252      0.1986
    188  NE2       -4.2220   23.0970    0.7680 N.ar  252  HIS252     -0.2212
@<TRIPOS>BOND
     1   143   142    2
     2   142   141    1
     3   141   140    1
     4   141   144    1
     5   124   123    1
     6   144   145    1
     7   147   145   ar
     8   147   149   ar
     9   145   146   ar
    10   149   150   ar
    11   122   123    1
    12   122   119    1
    13   123   125    1
    14   146   148   ar
    15   150   148   ar
    16   150   151    1
    17   121   120    2
    18   120   119    1
    19   119   118    1
    20   136   135    2
    21   118   114   am
    22    78    76   ar
    23   135   134    1
    24   133   134    1
    25   129   128    2
    26   137   134    1
    27   137   138    1
    28   137   139    1
    29   114   115    2
    30   114   113    1
    31   117   116    1
    32    76    75    1
    33    76    77   ar
    34   116   113    1
    35    75    72    1
    36   128   127    1
    37   113   112    1
    38   126   127    1
    39   127   130    1
    40   112   110   am
    41    72    71    1
    42    72    73    1
    43   130   132    1
    44   130   131    1
    45    69    68    2
    46   111   110    2
    47    86    84    1
    48    73    74    2
    49   110   109    1
    50    51    50    2
    51    59    56    1
    52    59    60    1
    53    68    67    1
    54    66    67    1
    55    66    57   am
    56    56    57    1
    57    56    55    1
    58    84    83    1
    59   109   108    1
    60    50    55   am
    61    50    49    1
    62    48    49    1
    63    67    70    1
    64    85    83    1
    65    60    61   ar
    66    60    62   ar
    67    83    80    1
    68    57    58    2
    69    61    63   ar
    70   103   102    1
    71   102   101    1
    72    49    52    1
    73    62    64   ar
    74    54    52    1
    75   152   153    1
    76   156   153    1
    77   156   157    1
    78    63    65   ar
    79    80    79    1
    80    80    81    1
    81     8     6    1
    82    52    53    1
    83   158   157   ar
    84   158   160   ar
    85    64    65   ar
    86   153   154    1
    87   157   159   ar
    88   101   100    1
    89     6     5    1
    90    81    82    2
    91   107   106    2
    92   100    99    1
    93   160   161   ar
    94   159   161   ar
    95     5     2    1
    96     5     7    1
    97   154   162   am
    98   154   155    2
    99   106   105    1
   100     2     1    1
   101     2     3    1
   102   162   163    1
   103    99    96    1
   104     4     3    2
   105    46    44   ar
   106    46    47   ar
   107    44    43   ar
   108     3     9   am
   109   105   104    1
   110    94    92    1
   111   167   166    1
   112   167   168    1
   113   166   163    1
   114   163   164    1
   115    47    45   ar
   116    43    42    1
   117    43    45   ar
   118    96    95    1
   119    96    97    1
   120    95    89   am
   121    42    39    1
   122    91    93    1
   123    91    92    1
   124    91    88    1
   125     9    10    1
   126   164   165    2
   127   169   168    1
   128   169   170    1
   129    87    88    1
   130    97    98    2
   131    89    88    1
   132    89    90    2
   133   178   176   ar
   134   177   176   ar
   135    41    40    2
   136    10    11    1
   137    10    13    1
   138    12    11    2
   139    39    40    1
   140    39    38    1
   141   171   172    1
   142   176   175    1
   143    17    15   ar
   144    17    18   ar
   145    15    14   ar
   146   175   172    1
   147    18    16   ar
   148    14    13    1
   149    14    16   ar
   150   172   173    1
   151    38    31   am
   152    25    27   ar
   153    25    24   ar
   154    22    21    2
   155    27    28   ar
   156    37    35   ar
   157    31    32    2
   158    31    30    1
   159    23    24    1
   160    23    20    1
   161    34    35    1
   162    34    33    1
   163    24    26   ar
   164   173   174    2
   165    35    36   ar
   166    28    26   ar
   167    21    20    1
   168   188   187   ar
   169   188   186   ar
   170    20    19    1
   171    33    30    1
   172   187   185   ar
   173    30    29    1
   174   186   184   ar
   175   185   184   ar
   176   184   183    1
   177   179   180    1
   178   183   180    1
   179   180   181    1
   180   181   182    2
