@<TRIPOS>MOLECULE
tmp/3p77A02.pdb
 219 213 0 0 0
SMALL
GASTEIGER

@<TRIPOS>ATOM
      1  N         25.4040    6.6910    7.9920 N.3     8  TYR8       -0.1241
      2  CA        24.4090    7.7300    7.7540 C.3     8  TYR8        0.1605
      3  C         23.4180    7.2200    6.7290 C.2     8  TYR8        0.2264
      4  O         23.8140    6.6250    5.7320 O.2     8  TYR8       -0.2867
      5  CB        25.0560    9.0000    7.2500 C.3     8  TYR8        0.0534
      6  CG        26.0390    9.6180    8.2180 C.ar    8  TYR8       -0.0201
      7  CD1       25.6290   10.5920    9.1230 C.ar    8  TYR8       -0.0009
      8  CD2       27.3780    9.2850    8.1820 C.ar    8  TYR8       -0.0009
      9  CE1       26.5220   11.1650   10.0060 C.ar    8  TYR8        0.0417
     10  CE2       28.2720    9.8600    9.0310 C.ar    8  TYR8        0.0417
     11  CZ        27.8450   10.8070    9.9490 C.ar    8  TYR8        0.1957
     12  OH        28.7950   11.3810   10.7810 O.3     8  TYR8       -0.2866
     13  N         20.4760    8.5720    4.4310 N.3    10  LEU10      -0.1245
     14  CA        19.9280    9.8230    3.9010 C.3    10  LEU10       0.1561
     15  C         18.7930    9.4560    2.9540 C.2    10  LEU10       0.2260
     16  O         18.9700    8.6140    2.0730 O.2    10  LEU10      -0.2867
     17  CB        20.9670   10.5880    3.1200 C.3    10  LEU10       0.0270
     18  CG        22.1500   11.2250    3.8330 C.3    10  LEU10       0.0019
     19  CD1       23.1350   10.2100    4.2610 C.3    10  LEU10       0.0001
     20  CD2       22.8210   12.1920    2.8490 C.3    10  LEU10       0.0001
     21  N         18.0430   12.6480    7.5180 N.3    25  ILE25      -0.1245
     22  CA        19.2430   11.8790    7.7760 C.3    25  ILE25       0.1561
     23  C         19.1660   11.2580    9.1490 C.2    25  ILE25       0.2260
     24  O         18.8720   11.9610   10.0890 O.2    25  ILE25      -0.2867
     25  CB        20.5200   12.7210    7.7180 C.3    25  ILE25       0.0252
     26  CG1       20.5350   13.5990    6.4690 C.3    25  ILE25       0.0019
     27  CG2       21.7270   11.8070    7.7910 C.3    25  ILE25       0.0019
     28  CD1       21.8720   14.4130    6.2830 C.3    25  ILE25       0.0001
     29  N         21.5770    8.9740   11.7050 N.3    27  GLY27      -0.1225
     30  CA        22.9520    8.4920   11.9100 C.3    27  GLY27       0.1811
     31  C         23.0090    7.4920   13.0180 C.2    27  GLY27       0.2280
     32  O         22.3670    7.6820   14.0260 O.2    27  GLY27      -0.2866
     33  N         22.4700    7.9970   16.9000 N.3    34  PHE34      -0.1227
     34  CA        23.2380    9.0050   17.6490 C.3    34  PHE34       0.1736
     35  C         22.8030   10.4160   17.3140 C.2    34  PHE34       0.2596
     36  O         23.0880   11.3550   18.0750 O.2    34  PHE34      -0.2718
     37  CB        24.7580    8.9040   17.4130 C.3    34  PHE34       0.0547
     38  CG        25.2220    9.4710   16.1030 C.ar   34  PHE34      -0.0202
     39  CD1       25.3230    8.6400   14.9960 C.ar   34  PHE34      -0.0042
     40  CD2       25.6030   10.8070   15.9740 C.ar   34  PHE34      -0.0042
     41  CE1       25.7190    9.1150   13.7810 C.ar   34  PHE34      -0.0003
     42  CE2       26.0220   11.3100   14.7450 C.ar   34  PHE34      -0.0003
     43  CZ        26.0880   10.4450   13.6360 C.ar   34  PHE34      -0.0000
     44  N         22.1130   10.5730   16.1950 N.am   35  GLY35      -0.1942
     45  CA        21.6900   11.8720   15.7760 C.3    35  GLY35       0.2014
     46  C         20.8430   11.8300   14.5270 C.2    35  GLY35       0.2640
     47  O         20.8000   10.8130   13.8320 O.2    35  GLY35      -0.2714
     48  N         20.1980   12.9620   14.2560 N.am   36  THR36      -0.1936
     49  CA        19.3130   13.1060   13.1130 C.3    36  THR36       0.2028
     50  C         19.3510   14.5210   12.5350 C.2    36  THR36       0.2642
     51  O         19.7800   15.4750   13.2040 O.2    36  THR36      -0.2714
     52  CB        17.8490   12.8170   13.4400 C.3    36  THR36       0.1808
     53  OG1       17.3010   13.8360   14.2950 O.3    36  THR36      -0.2208
     54  CG2       17.6940   11.4670   14.1190 C.3    36  THR36       0.0379
     55  N         18.8620   14.6260   11.3060 N.am   37  TYR37      -0.1973
     56  CA        18.5770   15.9130   10.6550 C.3    37  TYR37       0.1639
     57  C         17.2780   15.7250    9.8760 C.2    37  TYR37       0.2290
     58  O         17.0340   14.6470    9.3480 O.2    37  TYR37      -0.2864
     59  CB        19.6940   16.3020    9.6720 C.3    37  TYR37       0.0560
     60  CG        19.3600   17.5100    8.8150 C.ar   37  TYR37      -0.0198
     61  CD1       19.6720   18.7800    9.2450 C.ar   37  TYR37      -0.0009
     62  CD2       18.7150   17.3930    7.5850 C.ar   37  TYR37      -0.0009
     63  CE1       19.3650   19.8850    8.5000 C.ar   37  TYR37       0.0417
     64  CE2       18.3860   18.5030    6.8260 C.ar   37  TYR37       0.0417
     65  CZ        18.7040   19.7500    7.2840 C.ar   37  TYR37       0.1957
     66  OH        18.3790   20.8820    6.5550 O.3    37  TYR37      -0.2866
     67  N         20.5650   19.6230   12.6840 N.3    44  ALA44      -0.1245
     68  CA        21.1390   18.3690   13.0920 C.3    44  ALA44       0.1562
     69  C         21.2940   18.3790   14.5950 C.2    44  ALA44       0.2260
     70  O         21.8440   19.3230   15.1910 O.2    44  ALA44      -0.2867
     71  CB        22.4960   18.1250   12.4110 C.3    44  ALA44       0.0290
     72  N         27.8110   20.3080   16.3080 N.3    59  TRP59      -0.1241
     73  CA        26.4910   20.1620   15.7120 C.3    59  TRP59       0.1605
     74  C         26.1340   21.3110   14.7800 C.2    59  TRP59       0.2264
     75  O         25.3260   21.1170   13.8840 O.2    59  TRP59      -0.2867
     76  CB        25.4440   19.8740   16.7760 C.3    59  TRP59       0.0550
     77  CG        25.7270   18.4980   17.3030 C.ar   59  TRP59       0.0003
     78  CD1       26.4940   18.1580   18.3840 C.ar   59  TRP59       0.0946
     79  CD2       25.3490   17.2680   16.6730 C.ar   59  TRP59       0.0152
     80  NE1       26.5980   16.7690   18.4630 N.ar   59  TRP59      -0.2442
     81  CE2       25.8960   16.2150   17.4360 C.ar   59  TRP59       0.0810
     82  CE3       24.5830   16.9590   15.5450 C.ar   59  TRP59       0.0012
     83  CZ2       25.7010   14.8820   17.0990 C.ar   59  TRP59       0.0191
     84  CZ3       24.3680   15.6160   15.2210 C.ar   59  TRP59       0.0001
     85  CH2       24.9370   14.6030   16.0020 C.ar   59  TRP59       0.0015
     86  N         27.6590   19.8120   11.7040 N.3    62  GLN62      -0.1245
     87  CA        26.8230   18.7440   11.1540 C.3    62  GLN62       0.1566
     88  C         25.5990   19.3270   10.4610 C.2    62  GLN62       0.2260
     89  O         25.1900   18.8650    9.4020 O.2    62  GLN62      -0.2867
     90  CB        26.3970   17.7270   12.2200 C.3    62  GLN62       0.0367
     91  CG        27.5600   17.1760   13.0340 C.3    62  GLN62       0.0905
     92  CD        28.7350   16.7920   12.1770 C.2    62  GLN62       0.2608
     93  OE1       28.6240   15.9050   11.2970 O.2    62  GLN62      -0.2717
     94  NE2       29.8840   17.4380   12.4280 N.am   62  GLN62      -0.0878
     95  N         26.5550   20.7230    7.0450 N.3    65  LYS65      -0.1231
     96  CA        26.8300   19.6320    6.1060 C.3    65  LYS65       0.1693
     97  C         25.5280   18.9780    5.6440 C.2    65  LYS65       0.2591
     98  O         25.3420   18.6960    4.4520 O.2    65  LYS65      -0.2718
     99  CB        27.7950   18.5890    6.7050 C.3    65  LYS65       0.0285
    100  CG        29.1710   19.1520    6.9110 C.3    65  LYS65       0.0035
    101  CD        30.1460   18.1830    7.5710 C.3    65  LYS65       0.0206
    102  CE        30.5300   17.0630    6.6280 C.3    65  LYS65       0.1093
    103  NZ        31.5800   16.1400    7.1920 N.3    65  LYS65      -0.1314
    104  N         24.6250   18.7490    6.5920 N.am   66  ALA66      -0.1980
    105  CA        23.3340   18.1590    6.2680 C.3    66  ALA66       0.1597
    106  C         22.5030   19.0370    5.3480 C.2    66  ALA66       0.2287
    107  O         21.8400   18.5210    4.4590 O.2    66  ALA66      -0.2864
    108  CB        22.5610   17.8220    7.5360 C.3    66  ALA66       0.0319
    109  N         23.6660   18.4750    1.9280 N.3    69  GLY69      -0.1225
    110  CA        23.1540   17.2300    1.4000 C.3    69  GLY69       0.1811
    111  C         21.7260   17.3730    0.9430 C.2    69  GLY69       0.2280
    112  O         21.3200   16.7830   -0.0580 O.2    69  GLY69      -0.2866
    113  N         21.7780   18.8860   -2.4710 N.3    72  ASP72      -0.1225
    114  CA        22.2230   17.8820   -3.4390 C.3    72  ASP72       0.1805
    115  C         21.1270   16.9000   -3.7870 C.2    72  ASP72       0.2597
    116  O         20.9300   16.5890   -4.9500 O.2    72  ASP72      -0.2718
    117  CB        23.4540   17.1250   -2.9360 C.3    72  ASP72       0.1424
    118  CG        24.6860   18.0180   -2.7670 C.2    72  ASP72       0.3668
    119  OD1       24.7630   19.1160   -3.3520 O.co2  72  ASP72      -0.2456
    120  OD2       25.6030   17.6010   -2.0130 O.co2  72  ASP72      -0.2456
    121  N         20.4020   16.4140   -2.7820 N.am   73  PHE73      -0.1976
    122  CA        19.3030   15.5010   -3.0350 C.3    73  PHE73       0.1639
    123  C         18.1320   16.1170   -3.8110 C.2    73  PHE73       0.2290
    124  O         17.5120   15.4630   -4.6460 O.2    73  PHE73      -0.2864
    125  CB        18.8110   14.8820   -1.7210 C.3    73  PHE73       0.0560
    126  CG        19.5780   13.6490   -1.3040 C.ar   73  PHE73      -0.0200
    127  CD1       20.9610   13.6120   -1.3230 C.ar   73  PHE73      -0.0042
    128  CD2       18.8980   12.5470   -0.8680 C.ar   73  PHE73      -0.0042
    129  CE1       21.6220   12.4590   -0.9350 C.ar   73  PHE73      -0.0003
    130  CE2       19.5500   11.4130   -0.4630 C.ar   73  PHE73      -0.0003
    131  CZ        20.9110   11.3790   -0.4960 C.ar   73  PHE73      -0.0000
    132  N         18.9640   15.8740   -7.3150 N.3    76  ASN76      -0.1240
    133  CA        18.8660   14.4940   -7.8090 C.3    76  ASN76       0.1653
    134  C         17.4600   14.1330   -8.1890 C.2    76  ASN76       0.2266
    135  O         17.2190   13.5250   -9.2310 O.2    76  ASN76      -0.2867
    136  CB        19.3230   13.4540   -6.7820 C.3    76  ASN76       0.1155
    137  CG        20.7870   13.5270   -6.4630 C.2    76  ASN76       0.2627
    138  OD1       21.1870   13.2090   -5.3410 O.2    76  ASN76      -0.2716
    139  ND2       21.6020   13.9140   -7.4380 N.am   76  ASN76      -0.0877
    140  N         21.0370    7.5560    0.1640 N.3    93  MET93      -0.1245
    141  CA        22.4510    7.3080    0.3000 C.3    93  MET93       0.1570
    142  C         22.6770    6.5980    1.6310 C.2    93  MET93       0.2261
    143  O         22.0690    7.0020    2.6320 O.2    93  MET93      -0.2867
    144  CB        23.1550    8.6550    0.2700 C.3    93  MET93       0.0387
    145  CG        24.6240    8.6390    0.4170 C.3    93  MET93       0.0595
    146  SD        25.2050   10.3080    0.1760 S.3    93  MET93      -0.1393
    147  CE        26.9140    9.9240   -0.2230 C.3    93  MET93       0.0692
    148  N         26.1700    5.8690    3.7760 N.3    95  PHE95      -0.1241
    149  CA        27.6370    5.9630    3.8050 C.3    95  PHE95       0.1605
    150  C         28.1670    5.9270    5.2100 C.2    95  PHE95       0.2264
    151  O         27.4390    6.1710    6.1690 O.2    95  PHE95      -0.2867
    152  CB        28.1710    7.1740    3.0140 C.3    95  PHE95       0.0534
    153  CG        28.1190    8.5020    3.7570 C.ar   95  PHE95      -0.0203
    154  CD1       27.0000    9.2980    3.6700 C.ar   95  PHE95      -0.0042
    155  CD2       29.1830    8.9450    4.5190 C.ar   95  PHE95      -0.0042
    156  CE1       26.9710   10.5200    4.3440 C.ar   95  PHE95      -0.0003
    157  CE2       29.1390   10.1680    5.1760 C.ar   95  PHE95      -0.0003
    158  CZ        28.0220   10.9310    5.0960 C.ar   95  PHE95      -0.0000
    159  N         24.5250    4.5760   -3.2150 N.3   111  TYR111     -0.1241
    160  CA        23.3610    5.3630   -3.5740 C.3   111  TYR111      0.1605
    161  C         22.2810    4.5090   -4.1930 C.2   111  TYR111      0.2264
    162  O         22.5840    3.5270   -4.8790 O.2   111  TYR111     -0.2867
    163  CB        23.7320    6.4110   -4.6240 C.3   111  TYR111      0.0534
    164  CG        24.8080    7.4030   -4.2750 C.ar  111  TYR111     -0.0201
    165  CD1       24.4780    8.6990   -3.8990 C.ar  111  TYR111     -0.0009
    166  CD2       26.1320    7.0490   -4.3180 C.ar  111  TYR111     -0.0009
    167  CE1       25.4750    9.6330   -3.5790 C.ar  111  TYR111      0.0417
    168  CE2       27.1470    8.0010   -3.9990 C.ar  111  TYR111      0.0417
    169  CZ        26.7750    9.2780   -3.6520 C.ar  111  TYR111      0.1957
    170  OH        27.7650   10.1850   -3.3310 O.3   111  TYR111     -0.2866
    171  N         31.7320   11.9080  -12.8000 N.3   142  TRP142     -0.1241
    172  CA        32.3900   12.1050  -11.5150 C.3   142  TRP142      0.1605
    173  C         33.8360   11.6660  -11.5770 C.2   142  TRP142      0.2264
    174  O         34.7150   12.3730  -11.1000 O.2   142  TRP142     -0.2867
    175  CB        31.6740   11.3480  -10.4020 C.3   142  TRP142      0.0550
    176  CG        30.4360   12.0330   -9.9240 C.ar  142  TRP142      0.0003
    177  CD1       29.7870   13.0920  -10.4940 C.ar  142  TRP142      0.0946
    178  CD2       29.6700   11.6600   -8.7780 C.ar  142  TRP142      0.0152
    179  NE1       28.6790   13.4310   -9.7400 N.ar  142  TRP142     -0.2442
    180  CE2       28.5810   12.5490   -8.6910 C.ar  142  TRP142      0.0810
    181  CE3       29.8120   10.6600   -7.8140 C.ar  142  TRP142      0.0012
    182  CZ2       27.6580   12.4780   -7.6580 C.ar  142  TRP142      0.0191
    183  CZ3       28.8960   10.5870   -6.8020 C.ar  142  TRP142      0.0001
    184  CH2       27.8190   11.4660   -6.7410 C.ar  142  TRP142      0.0015
    185  N         35.6610   14.2320   -7.0390 N.3   148  TYR148     -0.1241
    186  CA        34.6900   13.4840   -6.2390 C.3   148  TYR148      0.1605
    187  C         35.3940   12.3650   -5.4850 C.2   148  TYR148      0.2264
    188  O         35.1470   12.1500   -4.2940 O.2   148  TYR148     -0.2867
    189  CB        33.5340   12.9430   -7.0990 C.3   148  TYR148      0.0534
    190  CG        32.6410   14.0470   -7.6570 C.ar  148  TYR148     -0.0201
    191  CD1       31.4460   14.3770   -7.0260 C.ar  148  TYR148     -0.0009
    192  CD2       33.0020   14.7670   -8.8100 C.ar  148  TYR148     -0.0009
    193  CE1       30.6200   15.3990   -7.5180 C.ar  148  TYR148      0.0417
    194  CE2       32.1720   15.7870   -9.3150 C.ar  148  TYR148      0.0417
    195  CZ        30.9880   16.0920   -8.6560 C.ar  148  TYR148      0.1957
    196  OH        30.1750   17.0950   -9.1430 O.3   148  TYR148     -0.2866
    197  N         35.6310   12.1570   -1.4010 N.3   152  TRP152     -0.1241
    198  CA        35.0330   11.0490   -0.6750 C.3   152  TRP152      0.1605
    199  C         36.0620   10.2020    0.0500 C.2   152  TRP152      0.2264
    200  O         35.7550    9.6300    1.1170 O.2   152  TRP152     -0.2867
    201  CB        34.1270   10.1870   -1.5860 C.3   152  TRP152      0.0550
    202  CG        32.8050   10.7870   -1.7170 C.ar  152  TRP152      0.0003
    203  CD1       32.2870   11.4370   -2.8060 C.ar  152  TRP152      0.0946
    204  CD2       31.8170   10.8680   -0.6850 C.ar  152  TRP152      0.0152
    205  NE1       31.0080   11.8850   -2.5140 N.ar  152  TRP152     -0.2442
    206  CE2       30.7060   11.5410   -1.2190 C.ar  152  TRP152      0.0810
    207  CE3       31.7420   10.3780    0.6280 C.ar  152  TRP152      0.0012
    208  CZ2       29.5440   11.7780   -0.4700 C.ar  152  TRP152      0.0191
    209  CZ3       30.5980   10.6190    1.3640 C.ar  152  TRP152      0.0001
    210  CH2       29.5180   11.3090    0.8180 C.ar  152  TRP152      0.0015
    211  N         36.3590   12.1220    3.0630 N.3   155  GLU155     -0.1245
    212  CA        35.1570   12.0760    3.8870 C.3   155  GLU155      0.1567
    213  C         35.0240   10.7890    4.6600 C.2   155  GLU155      0.2260
    214  O         34.5830   10.7830    5.8210 O.2   155  GLU155     -0.2867
    215  CB        33.9230   12.2880    3.0370 C.3   155  GLU155      0.0388
    216  CG        32.6950   12.6370    3.8340 C.3   155  GLU155      0.1160
    217  CD        32.7560   13.9510    4.5760 C.2   155  GLU155      0.3649
    218  OE1       33.4440   14.9130    4.1390 O.co2 155  GLU155     -0.2457
    219  OE2       32.0650   14.0230    5.6190 O.co2 155  GLU155     -0.2457
@<TRIPOS>BOND
     1   171   172    1
     2   173   172    1
     3   173   174    2
     4   172   175    1
     5   177   176   ar
     6   177   179   ar
     7   175   176    1
     8   176   178   ar
     9   179   180   ar
    10   194   192   ar
    11   194   195   ar
    12   135   134    2
    13   196   195    1
    14   192   190   ar
    15   178   180   ar
    16   178   181   ar
    17   180   182   ar
    18   195   193   ar
    19   134   133    1
    20   181   183   ar
    21   133   132    1
    22   133   136    1
    23   182   184   ar
    24   190   189    1
    25   190   191   ar
    26   193   191   ar
    27   139   137   am
    28   189   186    1
    29   185   186    1
    30   183   184   ar
    31   136   137    1
    32   137   138    2
    33   186   187    1
    34   187   188    2
    35   116   115    2
    36   162   161    2
    37   124   123    2
    38   163   164    1
    39   163   160    1
    40   166   164   ar
    41   166   168   ar
    42   164   165   ar
    43   161   160    1
    44   168   169   ar
    45   165   167   ar
    46   123   122    1
    47   115   114    1
    48   115   121   am
    49   169   167   ar
    50   169   170    1
    51   160   159    1
    52   114   117    1
    53   114   113    1
    54   119   118   ar
    55   122   121    1
    56   122   125    1
    57   117   118    1
    58   203   205   ar
    59   203   202   ar
    60   118   120   ar
    61   205   206   ar
    62   125   126    1
    63   202   201    1
    64   202   204   ar
    65   201   198    1
    66   197   198    1
    67   127   126   ar
    68   127   129   ar
    69   126   128   ar
    70   206   204   ar
    71   206   208   ar
    72   129   131   ar
    73   128   130   ar
    74   204   207   ar
    75   198   199    1
    76   131   130   ar
    77   208   210   ar
    78   147   146    1
    79   112   111    2
    80   199   200    2
    81   140   141    1
    82   146   145    1
    83   144   141    1
    84   144   145    1
    85   141   142    1
    86   207   209   ar
    87   210   209   ar
    88   111   110    1
    89   110   109    1
    90   142   143    2
    91    16    15    2
    92    20    18    1
    93    15    14    1
    94   152   153    1
    95   152   149    1
    96   215   216    1
    97   215   212    1
    98   211   212    1
    99    17    18    1
   100    17    14    1
   101   154   153   ar
   102   154   156   ar
   103   153   155   ar
   104   148   149    1
   105   149   150    1
   106    18    19    1
   107   216   217    1
   108   212   213    1
   109    14    13    1
   110   218   217   ar
   111   156   158   ar
   112    98    97    2
   113   107   106    2
   114   155   157   ar
   115   217   219   ar
   116   213   214    2
   117   158   157   ar
   118   150   151    2
   119   106   105    1
   120    97    96    1
   121    97   104   am
   122     4     3    2
   123    96    99    1
   124    96    95    1
   125   105   104    1
   126   105   108    1
   127    28    26    1
   128    26    25    1
   129    66    65    1
   130   102   103    1
   131   102   101    1
   132    99   100    1
   133     3     2    1
   134    64    65   ar
   135    64    62   ar
   136   100   101    1
   137     5     2    1
   138     5     6    1
   139    65    63   ar
   140    21    22    1
   141    62    60   ar
   142    25    22    1
   143    25    27    1
   144     2     1    1
   145    22    23    1
   146     8     6   ar
   147     8    10   ar
   148     6     7   ar
   149    63    61   ar
   150    60    61   ar
   151    60    59    1
   152    10    11   ar
   153     7     9   ar
   154    23    24    2
   155    58    57    2
   156    89    88    2
   157    59    56    1
   158    57    56    1
   159    11     9   ar
   160    11    12    1
   161    88    87    1
   162    56    55    1
   163    87    86    1
   164    87    90    1
   165    93    92    2
   166    55    50   am
   167    29    30    1
   168    30    31    1
   169    92    94   am
   170    92    91    1
   171    90    91    1
   172    71    68    1
   173    50    49    1
   174    50    51    2
   175    67    68    1
   176    31    32    2
   177    68    69    1
   178    49    52    1
   179    49    48    1
   180    52    54    1
   181    52    53    1
   182    43    41   ar
   183    43    42   ar
   184    41    39   ar
   185    47    46    2
   186    75    74    2
   187    48    46   am
   188    46    45    1
   189    69    70    2
   190    42    40   ar
   191    74    73    1
   192    39    38   ar
   193    84    82   ar
   194    84    85   ar
   195    82    79   ar
   196    73    72    1
   197    73    76    1
   198    45    44    1
   199    40    38   ar
   200    85    83   ar
   201    38    37    1
   202    44    35   am
   203    79    77   ar
   204    79    81   ar
   205    76    77    1
   206    33    34    1
   207    83    81   ar
   208    77    78   ar
   209    35    34    1
   210    35    36    2
   211    37    34    1
   212    81    80   ar
   213    78    80   ar
