@<TRIPOS>MOLECULE
tmp/3p77A01.pdb
 131 128 0 0 0
SMALL
GASTEIGER

@<TRIPOS>ATOM
      1  N         21.7780   18.8860   -2.4710 N.3    72  ASP72      -0.1225
      2  CA        22.2230   17.8820   -3.4390 C.3    72  ASP72       0.1805
      3  C         21.1270   16.9000   -3.7870 C.2    72  ASP72       0.2597
      4  O         20.9300   16.5890   -4.9500 O.2    72  ASP72      -0.2718
      5  CB        23.4540   17.1250   -2.9360 C.3    72  ASP72       0.1424
      6  CG        24.6860   18.0180   -2.7670 C.2    72  ASP72       0.3668
      7  OD1       24.7630   19.1160   -3.3520 O.co2  72  ASP72      -0.2456
      8  OD2       25.6030   17.6010   -2.0130 O.co2  72  ASP72      -0.2456
      9  N         20.4020   16.4140   -2.7820 N.am   73  PHE73      -0.1976
     10  CA        19.3030   15.5010   -3.0350 C.3    73  PHE73       0.1639
     11  C         18.1320   16.1170   -3.8110 C.2    73  PHE73       0.2290
     12  O         17.5120   15.4630   -4.6460 O.2    73  PHE73      -0.2864
     13  CB        18.8110   14.8820   -1.7210 C.3    73  PHE73       0.0560
     14  CG        19.5780   13.6490   -1.3040 C.ar   73  PHE73      -0.0200
     15  CD1       20.9610   13.6120   -1.3230 C.ar   73  PHE73      -0.0042
     16  CD2       18.8980   12.5470   -0.8680 C.ar   73  PHE73      -0.0042
     17  CE1       21.6220   12.4590   -0.9350 C.ar   73  PHE73      -0.0003
     18  CE2       19.5500   11.4130   -0.4630 C.ar   73  PHE73      -0.0003
     19  CZ        20.9110   11.3790   -0.4960 C.ar   73  PHE73      -0.0000
     20  N         18.3330   18.3530   -6.0940 N.3    75  TRP75      -0.1227
     21  CA        18.7110   18.2790   -7.4940 C.3    75  TRP75       0.1737
     22  C         18.6330   16.8970   -8.0940 C.2    75  TRP75       0.2595
     23  O         18.2640   16.7610   -9.2700 O.2    75  TRP75      -0.2718
     24  CB        20.0750   18.8900   -7.6840 C.3    75  TRP75       0.0564
     25  CG        19.9220   20.3390   -7.7470 C.ar   75  TRP75       0.0003
     26  CD1       20.2800   21.2230   -6.7920 C.ar   75  TRP75       0.0946
     27  CD2       19.2980   21.0970   -8.7990 C.ar   75  TRP75       0.0152
     28  NE1       19.9520   22.4940   -7.1810 N.ar   75  TRP75      -0.2442
     29  CE2       19.3460   22.4470   -8.4130 C.ar   75  TRP75       0.0810
     30  CE3       18.7110   20.7620  -10.0310 C.ar   75  TRP75       0.0012
     31  CZ2       18.8170   23.4790   -9.2090 C.ar   75  TRP75       0.0191
     32  CZ3       18.2240   21.7990  -10.8410 C.ar   75  TRP75       0.0001
     33  CH2       18.2880   23.1360  -10.4180 C.ar   75  TRP75       0.0015
     34  N         18.9640   15.8740   -7.3150 N.am   76  ASN76      -0.1974
     35  CA        18.8660   14.4940   -7.8090 C.3    76  ASN76       0.1688
     36  C         17.4600   14.1330   -8.1890 C.2    76  ASN76       0.2292
     37  O         17.2190   13.5250   -9.2310 O.2    76  ASN76      -0.2864
     38  CB        19.3230   13.4540   -6.7820 C.3    76  ASN76       0.1181
     39  CG        20.7870   13.5270   -6.4630 C.2    76  ASN76       0.2629
     40  OD1       21.1870   13.2090   -5.3410 O.2    76  ASN76      -0.2716
     41  ND2       21.6020   13.9140   -7.4380 N.am   76  ASN76      -0.0877
     42  N         16.5110   15.6740  -11.4810 N.3    79  ARG79      -0.1231
     43  CA        17.2330   15.3310  -12.7140 C.3    79  ARG79       0.1694
     44  C         17.1640   13.8660  -13.0990 C.2    79  ARG79       0.2591
     45  O         17.0750   13.5570  -14.2770 O.2    79  ARG79      -0.2718
     46  CB        18.7020   15.7480  -12.6090 C.3    79  ARG79       0.0321
     47  CG        18.9130   17.2390  -12.7750 C.3    79  ARG79       0.0489
     48  CD        20.2460   17.6780  -12.1670 C.3    79  ARG79       0.2205
     49  NE        20.6690   19.0020  -12.6150 N.pl3  79  ARG79      -0.0865
     50  CZ        21.6170   19.7470  -12.0310 C.cat  79  ARG79       0.5346
     51  NH1       22.2690   19.3280  -10.9440 N.pl3  79  ARG79       0.1354
     52  NH2       21.9040   20.9440  -12.5350 N.pl3  79  ARG79       0.1354
     53  N         17.1910   12.9790  -12.1100 N.am   80  LEU80      -0.1980
     54  CA        17.2740   11.5330  -12.4060 C.3    80  LEU80       0.1596
     55  C         16.0220   10.9220  -13.0120 C.2    80  LEU80       0.2287
     56  O         16.1280   10.0790  -13.9110 O.2    80  LEU80      -0.2864
     57  CB        17.7030   10.7260  -11.1750 C.3    80  LEU80       0.0297
     58  CG        19.1740   10.8750  -10.8220 C.3    80  LEU80       0.0022
     59  CD1       19.4310   10.0120   -9.5880 C.3    80  LEU80       0.0001
     60  CD2       20.0400   10.4450  -11.9780 C.3    80  LEU80       0.0001
     61  N         16.2360   11.1380  -16.7530 N.3    83  ARG83      -0.1245
     62  CA        17.2640   10.2940  -17.3680 C.3    83  ARG83       0.1563
     63  C         16.8300    8.8430  -17.5030 C.2    83  ARG83       0.2260
     64  O         17.2040    8.1720  -18.4540 O.2    83  ARG83      -0.2867
     65  CB        18.5350   10.3490  -16.5580 C.3    83  ARG83       0.0307
     66  CG        19.1900   11.6730  -16.6130 C.3    83  ARG83       0.0489
     67  CD        20.5460   11.5810  -16.0390 C.3    83  ARG83       0.2205
     68  NE        21.1200   12.9020  -15.9150 N.pl3  83  ARG83      -0.0865
     69  CZ        22.2980   13.1540  -15.3600 C.cat  83  ARG83       0.5346
     70  NH1       22.7300   14.4190  -15.2980 N.pl3  83  ARG83       0.1354
     71  NH2       23.0370   12.1610  -14.8730 N.pl3  83  ARG83       0.1354
     72  N         15.5040    9.5230   -3.4240 N.3    91  MET91      -0.1245
     73  CA        16.9330    9.3570   -3.4850 C.3    91  MET91       0.1570
     74  C         17.3960    8.9190   -2.1180 C.2    91  MET91       0.2261
     75  O         16.9070    9.4330   -1.1070 O.2    91  MET91      -0.2867
     76  CB        17.6040   10.6710   -3.8570 C.3    91  MET91       0.0387
     77  CG        19.0660   10.5180   -4.1420 C.3    91  MET91       0.0595
     78  SD        19.2840    9.7910   -5.7690 S.3    91  MET91      -0.1393
     79  CE        20.9860    9.3180   -5.5510 C.3    91  MET91       0.0692
     80  N         21.0370    7.5560    0.1640 N.3    93  MET93      -0.1245
     81  CA        22.4510    7.3080    0.3000 C.3    93  MET93       0.1570
     82  C         22.6770    6.5980    1.6310 C.2    93  MET93       0.2261
     83  O         22.0690    7.0020    2.6320 O.2    93  MET93      -0.2867
     84  CB        23.1550    8.6550    0.2700 C.3    93  MET93       0.0387
     85  CG        24.6240    8.6390    0.4170 C.3    93  MET93       0.0595
     86  SD        25.2050   10.3080    0.1760 S.3    93  MET93      -0.1393
     87  CE        26.9140    9.9240   -0.2230 C.3    93  MET93       0.0692
     88  N         24.5250    4.5760   -3.2150 N.3   111  TYR111     -0.1241
     89  CA        23.3610    5.3630   -3.5740 C.3   111  TYR111      0.1605
     90  C         22.2810    4.5090   -4.1930 C.2   111  TYR111      0.2264
     91  O         22.5840    3.5270   -4.8790 O.2   111  TYR111     -0.2867
     92  CB        23.7320    6.4110   -4.6240 C.3   111  TYR111      0.0534
     93  CG        24.8080    7.4030   -4.2750 C.ar  111  TYR111     -0.0201
     94  CD1       24.4780    8.6990   -3.8990 C.ar  111  TYR111     -0.0009
     95  CD2       26.1320    7.0490   -4.3180 C.ar  111  TYR111     -0.0009
     96  CE1       25.4750    9.6330   -3.5790 C.ar  111  TYR111      0.0417
     97  CE2       27.1470    8.0010   -3.9990 C.ar  111  TYR111      0.0417
     98  CZ        26.7750    9.2780   -3.6520 C.ar  111  TYR111      0.1957
     99  OH        27.7650   10.1850   -3.3310 O.3   111  TYR111     -0.2866
    100  N         22.0170    2.5180   -7.4920 N.3   118  PHE118     -0.1241
    101  CA        22.3500    3.5400   -8.4750 C.3   118  PHE118      0.1605
    102  C         23.8680    3.5990   -8.6900 C.2   118  PHE118      0.2264
    103  O         24.3570    3.4340   -9.8150 O.2   118  PHE118     -0.2867
    104  CB        21.7880    4.9040   -8.0120 C.3   118  PHE118      0.0534
    105  CG        22.1260    6.0340   -8.9290 C.ar  118  PHE118     -0.0203
    106  CD1       21.5320    6.1250  -10.1570 C.ar  118  PHE118     -0.0042
    107  CD2       23.0940    6.9680   -8.5670 C.ar  118  PHE118     -0.0042
    108  CE1       21.8640    7.1480  -11.0270 C.ar  118  PHE118     -0.0003
    109  CE2       23.4340    8.0030   -9.4300 C.ar  118  PHE118     -0.0003
    110  CZ        22.8120    8.0790  -10.6600 C.ar  118  PHE118     -0.0000
    111  N         26.7220    9.2800  -14.5390 N.3   138  THR138     -0.1218
    112  CA        27.2170    9.9190  -13.3350 C.3   138  THR138      0.1862
    113  C         28.5810    9.3780  -12.9530 C.2   138  THR138      0.2287
    114  O         29.5190   10.1250  -12.6600 O.2   138  THR138     -0.2866
    115  CB        26.2530    9.6660  -12.1980 C.3   138  THR138      0.1770
    116  OG1       25.0020   10.2730  -12.5370 O.3   138  THR138     -0.2211
    117  CG2       26.8080   10.1970  -10.9090 C.3   138  THR138      0.0375
    118  N         31.7320   11.9080  -12.8000 N.3   142  TRP142     -0.1241
    119  CA        32.3900   12.1050  -11.5150 C.3   142  TRP142      0.1605
    120  C         33.8360   11.6660  -11.5770 C.2   142  TRP142      0.2264
    121  O         34.7150   12.3730  -11.1000 O.2   142  TRP142     -0.2867
    122  CB        31.6740   11.3480  -10.4020 C.3   142  TRP142      0.0550
    123  CG        30.4360   12.0330   -9.9240 C.ar  142  TRP142      0.0003
    124  CD1       29.7870   13.0920  -10.4940 C.ar  142  TRP142      0.0946
    125  CD2       29.6700   11.6600   -8.7780 C.ar  142  TRP142      0.0152
    126  NE1       28.6790   13.4310   -9.7400 N.ar  142  TRP142     -0.2442
    127  CE2       28.5810   12.5490   -8.6910 C.ar  142  TRP142      0.0810
    128  CE3       29.8120   10.6600   -7.8140 C.ar  142  TRP142      0.0012
    129  CZ2       27.6580   12.4780   -7.6580 C.ar  142  TRP142      0.0191
    130  CZ3       28.8960   10.5870   -6.8020 C.ar  142  TRP142      0.0001
    131  CH2       27.8190   11.4660   -6.7410 C.ar  142  TRP142      0.0015
@<TRIPOS>BOND
     1    64    63    2
     2    63    62    1
     3    62    61    1
     4    62    65    1
     5    66    65    1
     6    66    67    1
     7    67    68    1
     8    68    69    2
     9    69    70    1
    10    69    71    1
    11   111   112    1
    12    45    44    2
    13    56    55    2
    14   112   113    1
    15   112   115    1
    16    44    43    1
    17    44    53   am
    18    55    54    1
    19   113   114    2
    20   118   119    1
    21    47    46    1
    22    47    48    1
    23    43    46    1
    24    43    42    1
    25    49    48    1
    26    49    50    2
    27   116   115    1
    28    52    50    1
    29    54    53    1
    30    54    57    1
    31   115   117    1
    32    50    51    1
    33    60    58    1
    34   120   119    1
    35   120   121    2
    36   119   122    1
    37    57    58    1
    38   108   110   ar
    39   108   106   ar
    40    32    33   ar
    41    32    30   ar
    42    58    59    1
    43   110   109   ar
    44   124   123   ar
    45   124   126   ar
    46    33    31   ar
    47   122   123    1
    48   106   105   ar
    49    30    27   ar
    50   123   125   ar
    51   103   102    2
    52   126   127   ar
    53   109   107   ar
    54    23    22    2
    55    37    36    2
    56    31    29   ar
    57   105   107   ar
    58   105   104    1
    59    27    29   ar
    60    27    25   ar
    61   125   127   ar
    62   125   128   ar
    63   127   129   ar
    64   102   101    1
    65   101   104    1
    66   101   100    1
    67    29    28   ar
    68    36    35    1
    69    22    21    1
    70    22    34   am
    71   128   130   ar
    72    35    34    1
    73    35    38    1
    74    25    24    1
    75    25    26   ar
    76    24    21    1
    77   129   131   ar
    78    21    20    1
    79    41    39   am
    80    28    26   ar
    81   130   131   ar
    82    38    39    1
    83    39    40    2
    84    78    79    1
    85    78    77    1
    86     4     3    2
    87    91    90    2
    88    12    11    2
    89    92    93    1
    90    92    89    1
    91    95    93   ar
    92    95    97   ar
    93    93    94   ar
    94    90    89    1
    95    77    76    1
    96    97    98   ar
    97    94    96   ar
    98    76    73    1
    99    11    10    1
   100     3     2    1
   101     3     9   am
   102    98    96   ar
   103    98    99    1
   104    89    88    1
   105    73    72    1
   106    73    74    1
   107     2     5    1
   108     2     1    1
   109     7     6   ar
   110    10     9    1
   111    10    13    1
   112     5     6    1
   113     6     8   ar
   114    74    75    2
   115    13    14    1
   116    15    14   ar
   117    15    17   ar
   118    14    16   ar
   119    17    19   ar
   120    16    18   ar
   121    19    18   ar
   122    87    86    1
   123    80    81    1
   124    86    85    1
   125    84    81    1
   126    84    85    1
   127    81    82    1
   128    82    83    2
