@<TRIPOS>MOLECULE
tmp/3p79A01.pdb
 201 191 0 0 0
SMALL
GASTEIGER

@<TRIPOS>ATOM
      1  N         59.9620   39.0260  -19.3970 N.3    31  VAL31      -0.1245
      2  CA        59.6870   38.4380  -20.7050 C.3    31  VAL31       0.1561
      3  C         60.3220   39.3470  -21.7480 C.2    31  VAL31       0.2260
      4  O         60.2070   40.5850  -21.6600 O.2    31  VAL31      -0.2867
      5  CB        58.1950   38.3260  -20.9620 C.3    31  VAL31       0.0252
      6  CG1       57.9150   37.7750  -22.3860 C.3    31  VAL31       0.0019
      7  CG2       57.5270   37.4640  -19.9020 C.3    31  VAL31       0.0019
      8  N         59.1780   34.6320  -27.7960 N.3    44  ALA44      -0.1231
      9  CA        59.1010   35.2840  -26.4910 C.3    44  ALA44       0.1694
     10  C         59.8900   34.4110  -25.5140 C.2    44  ALA44       0.2592
     11  O         59.7190   33.1860  -25.4880 O.2    44  ALA44      -0.2718
     12  CB        57.5660   35.4610  -26.0510 C.3    44  ALA44       0.0304
     13  N         60.7870   35.0340  -24.7470 N.am   45  VAL45      -0.1966
     14  CA        61.6080   34.2950  -23.7780 C.3    45  VAL45       0.1727
     15  C         61.2690   34.7710  -22.3780 C.2    45  VAL45       0.2616
     16  O         61.3020   35.9930  -22.1130 O.2    45  VAL45      -0.2715
     17  CB        63.1040   34.4790  -24.1120 C.3    45  VAL45       0.0290
     18  CG1       64.0060   33.6370  -23.2120 C.3    45  VAL45       0.0023
     19  CG2       63.3000   34.0730  -25.5660 C.3    45  VAL45       0.0023
     20  N         60.8960   33.8260  -21.4940 N.am   46  LYS46      -0.1977
     21  CA        60.6270   34.1600  -20.1110 C.3    46  LYS46       0.1596
     22  C         61.7460   33.6420  -19.2270 C.2    46  LYS46       0.2287
     23  O         62.0820   32.4390  -19.2370 O.2    46  LYS46      -0.2864
     24  CB        59.2230   33.6860  -19.6560 C.3    46  LYS46       0.0298
     25  CG        58.8270   33.8890  -18.1470 C.3    46  LYS46       0.0038
     26  CD        57.4530   33.2740  -17.8310 C.3    46  LYS46       0.0206
     27  CE        57.1570   33.3720  -16.3610 C.3    46  LYS46       0.1093
     28  NZ        56.1420   32.2940  -15.9320 N.3    46  LYS46      -0.1314
     29  N         56.6700   25.5610   -7.4830 N.3    60  ARG60      -0.1245
     30  CA        56.0680   26.3500   -8.6080 C.3    60  ARG60       0.1563
     31  C         56.8320   26.2570   -9.9340 C.2    60  ARG60       0.2260
     32  O         56.2340   26.2850  -11.0440 O.2    60  ARG60      -0.2867
     33  CB        55.9260   27.8440   -8.2740 C.3    60  ARG60       0.0307
     34  CG        54.6780   28.1090   -7.4810 C.3    60  ARG60       0.0489
     35  CD        54.5820   29.5300   -6.9030 C.3    60  ARG60       0.2205
     36  NE        53.4340   29.5160   -5.9810 N.pl3  60  ARG60      -0.0865
     37  CZ        53.0820   30.5130   -5.1910 C.cat  60  ARG60       0.5346
     38  NH1       53.8090   31.6380   -5.1960 N.pl3  60  ARG60       0.1354
     39  NH2       52.0180   30.3790   -4.3900 N.pl3  60  ARG60       0.1354
     40  N         56.3200   22.8580  -11.2480 N.3    63  ARG63      -0.1231
     41  CA        54.9460   22.8340  -11.7080 C.3    63  ARG63       0.1694
     42  C         54.8500   23.4500  -13.1070 C.2    63  ARG63       0.2591
     43  O         54.3360   22.8070  -14.0120 O.2    63  ARG63      -0.2718
     44  CB        54.0050   23.6230  -10.8110 C.3    63  ARG63       0.0321
     45  CG        52.5120   23.4540  -11.2980 C.3    63  ARG63       0.0489
     46  CD        51.5370   24.1840  -10.3270 C.3    63  ARG63       0.2205
     47  NE        51.5150   23.5590   -8.9910 N.pl3  63  ARG63      -0.0865
     48  CZ        51.7170   24.1810   -7.8320 C.cat  63  ARG63       0.5346
     49  NH1       51.9450   25.4980   -7.7970 N.pl3  63  ARG63       0.1354
     50  NH2       51.6850   23.4600   -6.6840 N.pl3  63  ARG63       0.1354
     51  N         55.3680   24.6670  -13.2740 N.am   64  GLU64      -0.1979
     52  CA        55.3590   25.3230  -14.5910 C.3    64  GLU64       0.1602
     53  C         56.0780   24.5500  -15.7290 C.2    64  GLU64       0.2287
     54  O         55.5870   24.4660  -16.8340 O.2    64  GLU64      -0.2864
     55  CB        55.9440   26.7460  -14.5330 C.3    64  GLU64       0.0415
     56  CG        55.5890   27.5320  -15.8330 C.3    64  GLU64       0.1163
     57  CD        55.6250   29.0350  -15.6630 C.2    64  GLU64       0.3649
     58  OE1       55.2220   29.7550  -16.6160 O.co2  64  GLU64      -0.2457
     59  OE2       56.0360   29.4950  -14.5630 O.co2  64  GLU64      -0.2457
     60  N         54.0940   21.4140  -16.6420 N.3    67  LEU67      -0.1231
     61  CA        52.8400   21.7460  -17.3240 C.3    67  LEU67       0.1693
     62  C         53.1650   22.1820  -18.7580 C.2    67  LEU67       0.2591
     63  O         52.5710   21.6680  -19.7040 O.2    67  LEU67      -0.2718
     64  CB        52.1470   22.9280  -16.6270 C.3    67  LEU67       0.0284
     65  CG        50.6450   23.0610  -16.4470 C.3    67  LEU67       0.0019
     66  CD1       50.3410   24.5480  -16.2540 C.3    67  LEU67       0.0001
     67  CD2       49.7630   22.4130  -17.5740 C.3    67  LEU67       0.0001
     68  N         54.1190   23.0980  -18.9350 N.am   68  LEU68      -0.1980
     69  CA        54.3460   23.6320  -20.2450 C.3    68  LEU68       0.1596
     70  C         54.9300   22.5490  -21.1780 C.2    68  LEU68       0.2287
     71  O         54.7030   22.5710  -22.4010 O.2    68  LEU68      -0.2864
     72  CB        55.2600   24.8740  -20.2380 C.3    68  LEU68       0.0297
     73  CG        54.6200   26.1080  -19.5880 C.3    68  LEU68       0.0022
     74  CD1       55.6090   27.2310  -19.4860 C.3    68  LEU68       0.0001
     75  CD2       53.4180   26.6400  -20.2470 C.3    68  LEU68       0.0001
     76  N         51.8050   20.5240  -22.4290 N.3    71  MET71      -0.1245
     77  CA        50.8060   21.1790  -23.3120 C.3    71  MET71       0.1570
     78  C         51.1900   21.2060  -24.7850 C.2    71  MET71       0.2261
     79  O         52.0230   21.9560  -25.1740 O.2    71  MET71      -0.2867
     80  CB        50.4790   22.6230  -22.8980 C.3    71  MET71       0.0387
     81  CG        49.9270   22.8400  -21.5270 C.3    71  MET71       0.0595
     82  SD        48.2270   22.1560  -21.2550 S.3    71  MET71      -0.1393
     83  CE        48.5250   20.5010  -20.7220 C.3    71  MET71       0.0692
     84  N         46.7970   26.4540  -27.1980 N.3    76  VAL76      -0.1231
     85  CA        47.3700   26.5160  -25.8400 C.3    76  VAL76       0.1692
     86  C         48.8520   26.7940  -25.9570 C.2    76  VAL76       0.2591
     87  O         49.5340   26.1900  -26.7930 O.2    76  VAL76      -0.2718
     88  CB        47.2700   25.1860  -25.0360 C.3    76  VAL76       0.0266
     89  CG1       47.8510   25.3730  -23.5870 C.3    76  VAL76       0.0020
     90  CG2       45.8230   24.6060  -24.9900 C.3    76  VAL76       0.0020
     91  N         49.3680   27.6620  -25.1120 N.am   77  ILE77      -0.1980
     92  CA        50.7850   27.9120  -25.1520 C.3    77  ILE77       0.1595
     93  C         51.5610   26.6260  -25.1640 C.2    77  ILE77       0.2287
     94  O         51.2310   25.7330  -24.4440 O.2    77  ILE77      -0.2864
     95  CB        51.2460   28.8170  -23.9600 C.3    77  ILE77       0.0276
     96  CG1       52.7550   29.1260  -24.0290 C.3    77  ILE77       0.0022
     97  CG2       50.9110   28.1990  -22.6000 C.3    77  ILE77       0.0022
     98  CD1       53.1150   30.0860  -22.8700 C.3    77  ILE77       0.0001
     99  N         55.8260   24.8170  -25.5470 N.3    79  LEU79      -0.1245
    100  CA        57.2640   25.0890  -25.3520 C.3    79  LEU79       0.1561
    101  C         58.0350   24.8340  -26.6260 C.2    79  LEU79       0.2260
    102  O         58.0590   23.7090  -27.0910 O.2    79  LEU79      -0.2867
    103  CB        57.8970   24.1870  -24.2590 C.3    79  LEU79       0.0270
    104  CG        57.8870   24.7340  -22.8440 C.3    79  LEU79       0.0019
    105  CD1       58.6630   23.8580  -21.8280 C.3    79  LEU79       0.0001
    106  CD2       58.3570   26.1610  -22.7440 C.3    79  LEU79       0.0001
    107  N         62.2680   29.8500  -20.4950 N.3    97  LEU97      -0.1231
    108  CA        61.3000   29.1190  -21.3340 C.3    97  LEU97       0.1693
    109  C         61.1090   29.9100  -22.6180 C.2    97  LEU97       0.2592
    110  O         61.1650   31.1500  -22.5930 O.2    97  LEU97      -0.2718
    111  CB        59.9360   29.0650  -20.6010 C.3    97  LEU97       0.0284
    112  CG        60.0530   28.5570  -19.1580 C.3    97  LEU97       0.0019
    113  CD1       58.7300   28.8440  -18.4180 C.3    97  LEU97       0.0001
    114  CD2       60.3630   27.0760  -19.0790 C.3    97  LEU97       0.0001
    115  N         60.8770   29.2000  -23.7260 N.am   98  VAL98      -0.1966
    116  CA        60.6580   29.8280  -25.0520 C.3    98  VAL98       0.1727
    117  C         59.3520   29.3500  -25.7490 C.2    98  VAL98       0.2616
    118  O         59.0650   28.1690  -25.8200 O.2    98  VAL98      -0.2715
    119  CB        61.9140   29.5330  -26.0060 C.3    98  VAL98       0.0290
    120  CG1       61.7760   30.1970  -27.3190 C.3    98  VAL98       0.0023
    121  CG2       63.2420   29.9560  -25.2690 C.3    98  VAL98       0.0023
    122  N         58.5940   30.2880  -26.2850 N.am   99  THR99      -0.1951
    123  CA        57.4240   29.9930  -27.0010 C.3    99  THR99       0.1897
    124  C         57.2820   31.0050  -28.1410 C.2    99  THR99       0.2313
    125  O         58.0270   32.0000  -28.2060 O.2    99  THR99      -0.2863
    126  CB        56.1410   30.1070  -26.0480 C.3    99  THR99       0.1794
    127  OG1       54.9990   29.5890  -26.7320 O.3    99  THR99      -0.2208
    128  CG2       55.8510   31.5090  -25.7290 C.3    99  THR99       0.0378
    129  N         43.0370   21.3340  -22.0490 N.3   134  ILE134     -0.1245
    130  CA        43.5180   21.5770  -20.7380 C.3   134  ILE134      0.1561
    131  C         42.6730   20.8240  -19.6880 C.2   134  ILE134      0.2260
    132  O         43.2030   20.2130  -18.8160 O.2   134  ILE134     -0.2867
    133  CB        43.4500   23.0970  -20.4510 C.3   134  ILE134      0.0252
    134  CG1       44.4040   23.8200  -21.3970 C.3   134  ILE134      0.0019
    135  CG2       43.7440   23.3090  -18.9490 C.3   134  ILE134      0.0019
    136  CD1       44.1620   25.2990  -21.4750 C.3   134  ILE134      0.0001
    137  N         43.5270   19.7710  -15.3950 N.3   139  ILE139     -0.1231
    138  CA        44.0630   21.0860  -15.0720 C.3   139  ILE139      0.1692
    139  C         42.9220   22.1170  -15.0970 C.2   139  ILE139      0.2592
    140  O         42.0550   22.0650  -15.9930 O.2   139  ILE139     -0.2718
    141  CB        45.1050   21.4950  -16.1230 C.3   139  ILE139      0.0266
    142  CG1       46.2920   20.5540  -16.0550 C.3   139  ILE139      0.0019
    143  CG2       45.5700   22.9410  -15.9280 C.3   139  ILE139      0.0020
    144  CD1       47.2050   20.6170  -17.3230 C.3   139  ILE139      0.0001
    145  N         42.9940   23.0890  -14.1850 N.am  140  ILE140     -0.1966
    146  CA        42.0600   24.1990  -14.1060 C.3   140  ILE140      0.1727
    147  C         42.8640   25.4570  -14.3190 C.2   140  ILE140      0.2616
    148  O         43.9260   25.6610  -13.6760 O.2   140  ILE140     -0.2715
    149  CB        41.2410   24.2180  -12.7630 C.3   140  ILE140      0.0290
    150  CG1       40.4620   22.9030  -12.6780 C.3   140  ILE140      0.0022
    151  CG2       40.1890   25.3340  -12.8130 C.3   140  ILE140      0.0023
    152  CD1       39.8800   22.5390  -11.3310 C.3   140  ILE140      0.0001
    153  N         42.4500   26.2560  -15.2910 N.am  141  HIS141     -0.1973
    154  CA        43.2010   27.5260  -15.5430 C.3   141  HIS141      0.1656
    155  C         43.1020   28.4490  -14.3160 C.2   141  HIS141      0.2291
    156  O         44.1010   28.7780  -13.7060 O.2   141  HIS141     -0.2864
    157  CB        42.7050   28.2420  -16.8010 C.3   141  HIS141      0.0771
    158  CG        43.5490   29.4130  -17.1930 C.ar  141  HIS141      0.0820
    159  ND1       44.2560   29.4620  -18.3860 N.ar  141  HIS141     -0.2267
    160  CD2       43.8080   30.5510  -16.5500 C.ar  141  HIS141      0.1154
    161  CE1       44.9100   30.6030  -18.4620 C.ar  141  HIS141      0.1986
    162  NE2       44.6710   31.2780  -17.3520 N.ar  141  HIS141     -0.2212
    163  N         45.7000   30.0460  -25.3940 N.3   159  ILE159     -0.1231
    164  CA        45.4950   30.2260  -23.9780 C.3   159  ILE159      0.1692
    165  C         46.8390   30.1240  -23.2800 C.2   159  ILE159      0.2592
    166  O         47.6860   29.2920  -23.6160 O.2   159  ILE159     -0.2718
    167  CB        44.5150   29.1780  -23.3760 C.3   159  ILE159      0.0266
    168  CG1       43.1260   29.2110  -24.0970 C.3   159  ILE159      0.0019
    169  CG2       44.2740   29.5270  -21.9150 C.3   159  ILE159      0.0020
    170  CD1       42.2860   27.8890  -23.8310 C.3   159  ILE159      0.0001
    171  N         47.0800   31.0360  -22.3590 N.am  160  LEU160     -0.1966
    172  CA        48.2900   30.9530  -21.5510 C.3   160  LEU160      0.1728
    173  C         47.9590   31.5930  -20.2440 C.2   160  LEU160      0.2616
    174  O         46.8100   31.9450  -20.0250 O.2   160  LEU160     -0.2715
    175  CB        49.4790   31.6270  -22.2550 C.3   160  LEU160      0.0311
    176  CG        49.4230   33.1680  -22.4050 C.3   160  LEU160      0.0022
    177  CD1       50.8470   33.5830  -22.7610 C.3   160  LEU160      0.0001
    178  CD2       48.5490   33.5640  -23.5970 C.3   160  LEU160      0.0001
    179  N         48.9660   31.7340  -19.3740 N.am  161  ASP161     -0.1957
    180  CA        48.7910   32.4060  -18.1010 C.3   161  ASP161      0.1840
    181  C         50.0500   33.2450  -17.7660 C.2   161  ASP161      0.2622
    182  O         51.0750   32.7010  -17.3940 O.2   161  ASP161     -0.2715
    183  CB        48.4920   31.4040  -17.0210 C.3   161  ASP161      0.1450
    184  CG        48.1460   32.0720  -15.6730 C.2   161  ASP161      0.3671
    185  OD1       48.1680   33.2940  -15.6050 O.co2 161  ASP161     -0.2456
    186  OD2       47.8450   31.3500  -14.7000 O.co2 161  ASP161     -0.2456
    187  N         49.9790   34.5620  -17.9800 N.am  162  PHE162     -0.1960
    188  CA        51.1260   35.4580  -17.6540 C.3   162  PHE162      0.1771
    189  C         51.3860   35.5140  -16.1450 C.2   162  PHE162      0.2620
    190  O         52.4450   35.9140  -15.7310 O.2   162  PHE162     -0.2715
    191  CB        50.8800   36.8440  -18.2220 C.3   162  PHE162      0.0574
    192  CG        51.1140   36.9370  -19.7000 C.ar  162  PHE162     -0.0200
    193  CD1       52.4160   36.8180  -20.2110 C.ar  162  PHE162     -0.0042
    194  CD2       50.0350   37.1690  -20.5930 C.ar  162  PHE162     -0.0042
    195  CE1       52.6330   36.9240  -21.5820 C.ar  162  PHE162     -0.0003
    196  CE2       50.2280   37.2950  -21.9540 C.ar  162  PHE162     -0.0003
    197  CZ        51.5220   37.1630  -22.4680 C.ar  162  PHE162     -0.0000
    198  N         50.4050   35.0970  -15.3380 N.am  163  GLY163     -0.1954
    199  CA        50.5730   34.8680  -13.8950 C.3   163  GLY163      0.1869
    200  C         49.9980   35.9220  -12.9580 C.2   163  GLY163      0.2309
    201  O         49.9460   37.1050  -13.3040 O.2   163  GLY163     -0.2863
@<TRIPOS>BOND
     1   125   124    2
     2   124   123    1
     3     8     9    1
     4   120   119    1
     5    84    85    1
     6   102   101    2
     7   123   122    1
     8   123   126    1
     9    87    86    2
    10   127   126    1
    11   101   100    1
    12     9    12    1
    13     9    10    1
    14   122   117   am
    15   126   128    1
    16   119   121    1
    17   119   116    1
    18    86    85    1
    19    86    91   am
    20    85    88    1
    21   118   117    2
    22   117   116    1
    23    19    17    1
    24    99   100    1
    25    10    11    2
    26    10    13   am
    27   163   164    1
    28   100   103    1
    29    79    78    2
    30    93    92    1
    31    93    94    2
    32    92    91    1
    33    92    95    1
    34   116   115    1
    35    88    90    1
    36    88    89    1
    37    78    77    1
    38    13    14    1
    39   103   104    1
    40    17    14    1
    41    17    18    1
    42   168   170    1
    43   168   167    1
    44    96    95    1
    45    96    98    1
    46   164   167    1
    47   164   165    1
    48    95    97    1
    49    14    15    1
    50   115   109   am
    51   166   165    2
    52   178   176    1
    53   167   169    1
    54    77    80    1
    55    77    76    1
    56   165   171   am
    57    80    81    1
    58   104   106    1
    59   104   105    1
    60   177   176    1
    61   109   110    2
    62   109   108    1
    63   197   196   ar
    64   197   195   ar
    65   176   175    1
    66    71    70    2
    67     6     5    1
    68    15    16    2
    69    15    20   am
    70   171   172    1
    71   175   172    1
    72   129   130    1
    73   196   194   ar
    74     3     4    2
    75     3     2    1
    76   195   193   ar
    77   172   173    1
    78    81    82    1
    79    20    21    1
    80   136   134    1
    81   134   133    1
    82   108   111    1
    83   108   107    1
    84    82    83    1
    85    70    69    1
    86     5     2    1
    87     5     7    1
    88   130   133    1
    89   130   131    1
    90     2     1    1
    91   111   112    1
    92   194   192   ar
    93   133   135    1
    94    75    73    1
    95    69    72    1
    96    69    68    1
    97   173   174    2
    98   173   179   am
    99    72    73    1
   100   193   192   ar
   101    21    24    1
   102    21    22    1
   103    63    62    2
   104   192   191    1
   105   131   132    2
   106    24    25    1
   107    73    74    1
   108   179   180    1
   109    23    22    2
   110   112   114    1
   111   112   113    1
   112    68    62   am
   113    62    61    1
   114   161   159   ar
   115   161   162   ar
   116   159   158   ar
   117   191   188    1
   118    25    26    1
   119   180   181    1
   120   180   183    1
   121   187   181   am
   122   187   188    1
   123    26    27    1
   124   181   182    2
   125   188   189    1
   126    67    65    1
   127   162   160   ar
   128    61    60    1
   129    61    64    1
   130   144   142    1
   131   158   157    1
   132   158   160   ar
   133   183   184    1
   134    54    53    2
   135   157   154    1
   136    64    65    1
   137    58    57   ar
   138    65    66    1
   139    27    28    1
   140   189   190    2
   141   189   198   am
   142   141   142    1
   143   141   143    1
   144   141   138    1
   145   140   139    2
   146    56    57    1
   147    56    55    1
   148    53    52    1
   149   184   185   ar
   150   184   186   ar
   151    57    59   ar
   152   154   153    1
   153   154   155    1
   154   137   138    1
   155   198   199    1
   156   153   147   am
   157   139   138    1
   158   139   145   am
   159    52    55    1
   160    52    51    1
   161   147   146    1
   162   147   148    2
   163   155   156    2
   164   145   146    1
   165   146   149    1
   166    43    42    2
   167   199   200    1
   168   201   200    2
   169    51    42   am
   170    42    41    1
   171   151   149    1
   172   149   150    1
   173   150   152    1
   174    41    40    1
   175    41    44    1
   176    45    44    1
   177    45    46    1
   178    32    31    2
   179    46    47    1
   180    31    30    1
   181    47    48    2
   182    30    33    1
   183    30    29    1
   184    33    34    1
   185    48    49    1
   186    48    50    1
   187    34    35    1
   188    35    36    1
   189    36    37    2
   190    38    37    1
   191    37    39    1
