@<TRIPOS>MOLECULE
tmp/3p7aA01.pdb
 194 183 0 0 0
SMALL
GASTEIGER

@<TRIPOS>ATOM
      1  N         57.3430   40.4660  -18.1230 N.3    31  VAL31      -0.1245
      2  CA        57.1740   39.9730  -19.4840 C.3    31  VAL31       0.1561
      3  C         57.8080   40.9330  -20.4790 C.2    31  VAL31       0.2260
      4  O         57.6990   42.1350  -20.3180 O.2    31  VAL31      -0.2867
      5  CB        55.6870   39.7700  -19.8630 C.3    31  VAL31       0.0252
      6  CG1       55.5410   39.4590  -21.3530 C.3    31  VAL31       0.0019
      7  CG2       55.0360   38.6460  -19.0390 C.3    31  VAL31       0.0019
      8  N         56.2580   36.5570  -26.8100 N.3    44  ALA44      -0.1245
      9  CA        56.2560   37.1600  -25.4850 C.3    44  ALA44       0.1562
     10  C         57.1280   36.2930  -24.5970 C.2    44  ALA44       0.2260
     11  O         57.0240   35.0610  -24.6140 O.2    44  ALA44      -0.2867
     12  CB        54.8390   37.2590  -24.9290 C.3    44  ALA44       0.0290
     13  N         58.1030   35.5240  -20.7590 N.3    46  LYS46      -0.1245
     14  CA        57.8620   35.6540  -19.3160 C.3    46  LYS46       0.1561
     15  C         59.0150   35.1050  -18.4950 C.2    46  LYS46       0.2260
     16  O         59.4120   33.9410  -18.6280 O.2    46  LYS46      -0.2867
     17  CB        56.5450   34.9970  -18.8730 C.3    46  LYS46       0.0271
     18  CG        56.0770   35.3920  -17.4550 C.3    46  LYS46       0.0035
     19  CD        54.9880   34.4010  -16.8830 C.3    46  LYS46       0.0206
     20  CE        54.3640   34.9420  -15.6030 C.3    46  LYS46       0.1093
     21  NZ        53.0970   34.2720  -15.0910 N.3    46  LYS46      -0.1314
     22  N         53.8190   26.8810   -7.3550 N.3    60  ARG60      -0.1245
     23  CA        53.2280   27.7680   -8.3580 C.3    60  ARG60       0.1563
     24  C         54.0390   27.8120   -9.6820 C.2    60  ARG60       0.2260
     25  O         53.4610   27.9660  -10.7760 O.2    60  ARG60      -0.2867
     26  CB        53.0210   29.1500   -7.7420 C.3    60  ARG60       0.0307
     27  CG        52.5110   30.2250   -8.7000 C.3    60  ARG60       0.0489
     28  CD        52.1370   31.4900   -7.9470 C.3    60  ARG60       0.2205
     29  NE        51.2300   31.1690   -6.8420 N.pl3  60  ARG60      -0.0865
     30  CZ        50.9930   31.9580   -5.7980 C.cat  60  ARG60       0.5346
     31  NH1       51.5930   33.1380   -5.6970 N.pl3  60  ARG60       0.1354
     32  NH2       50.1640   31.5560   -4.8460 N.pl3  60  ARG60       0.1354
     33  N         53.5190   24.2510  -11.3030 N.3    63  ARG63      -0.1231
     34  CA        52.1540   24.3210  -11.8040 C.3    63  ARG63       0.1694
     35  C         52.1460   25.0010  -13.1330 C.2    63  ARG63       0.2591
     36  O         51.8260   24.3780  -14.1180 O.2    63  ARG63      -0.2718
     37  CB        51.2460   25.1170  -10.8630 C.3    63  ARG63       0.0321
     38  CG        49.8010   25.2550  -11.3950 C.3    63  ARG63       0.0489
     39  CD        48.8590   26.0080  -10.3890 C.3    63  ARG63       0.2205
     40  NE        48.7030   25.2080   -9.1630 N.pl3  63  ARG63      -0.0865
     41  CZ        49.0510   25.5920   -7.9280 C.cat  63  ARG63       0.5346
     42  NH1       49.5590   26.8120   -7.6890 N.pl3  63  ARG63       0.1354
     43  NH2       48.8990   24.7230   -6.9330 N.pl3  63  ARG63       0.1354
     44  N         52.5130   26.2760  -13.1590 N.am   64  GLU64      -0.1979
     45  CA        52.4280   27.0730  -14.3780 C.3    64  GLU64       0.1602
     46  C         53.2160   26.4490  -15.5330 C.2    64  GLU64       0.2287
     47  O         52.8010   26.5420  -16.6620 O.2    64  GLU64      -0.2864
     48  CB        52.9070   28.5080  -14.1230 C.3    64  GLU64       0.0415
     49  CG        53.1800   29.2280  -15.3990 C.3    64  GLU64       0.1163
     50  CD        53.1430   30.7170  -15.2760 C.2    64  GLU64       0.3649
     51  OE1       52.4570   31.3580  -16.1270 O.co2  64  GLU64      -0.2457
     52  OE2       53.8040   31.2460  -14.3500 O.co2  64  GLU64      -0.2457
     53  N         50.9600   23.3420  -16.6200 N.3    67  LEU67      -0.1231
     54  CA        49.7920   23.8280  -17.3620 C.3    67  LEU67       0.1693
     55  C         50.1680   24.1700  -18.8250 C.2    67  LEU67       0.2591
     56  O         49.5910   23.6190  -19.7770 O.2    67  LEU67      -0.2718
     57  CB        49.0670   25.0320  -16.7030 C.3    67  LEU67       0.0284
     58  CG        48.1030   24.8160  -15.5260 C.3    67  LEU67       0.0019
     59  CD1       48.0740   26.0430  -14.4810 C.3    67  LEU67       0.0001
     60  CD2       46.6520   24.3990  -15.9100 C.3    67  LEU67       0.0001
     61  N         51.1470   25.0510  -18.9840 N.am   68  LEU68      -0.1980
     62  CA        51.5150   25.5660  -20.3060 C.3    68  LEU68       0.1596
     63  C         51.9640   24.4410  -21.2240 C.2    68  LEU68       0.2287
     64  O         51.5420   24.4080  -22.3820 O.2    68  LEU68      -0.2864
     65  CB        52.5770   26.6590  -20.1940 C.3    68  LEU68       0.0297
     66  CG        52.0450   27.8540  -19.3780 C.3    68  LEU68       0.0022
     67  CD1       53.0780   28.9010  -19.2020 C.3    68  LEU68       0.0001
     68  CD2       50.7420   28.4670  -19.9420 C.3    68  LEU68       0.0001
     69  N         48.7030   22.5630  -22.5900 N.3    71  MET71      -0.1245
     70  CA        47.7670   23.2820  -23.4730 C.3    71  MET71       0.1570
     71  C         48.1990   23.2680  -24.9480 C.2    71  MET71       0.2261
     72  O         49.1130   23.9950  -25.3470 O.2    71  MET71      -0.2867
     73  CB        47.5350   24.7070  -22.9570 C.3    71  MET71       0.0387
     74  CG        46.9630   24.7620  -21.5640 C.3    71  MET71       0.0595
     75  SD        45.3050   24.0720  -21.3350 S.3    71  MET71      -0.1393
     76  CE        45.5850   22.4070  -20.7540 C.3    71  MET71       0.0692
     77  N         43.7510   28.5420  -26.9030 N.3    76  VAL76      -0.1231
     78  CA        44.3890   28.5570  -25.6010 C.3    76  VAL76       0.1692
     79  C         45.8850   28.7970  -25.7760 C.2    76  VAL76       0.2591
     80  O         46.5410   28.2160  -26.6690 O.2    76  VAL76      -0.2718
     81  CB        44.1590   27.2210  -24.7560 C.3    76  VAL76       0.0266
     82  CG1       44.7620   27.3760  -23.3150 C.3    76  VAL76       0.0020
     83  CG2       42.7030   26.8200  -24.6870 C.3    76  VAL76       0.0020
     84  N         46.4280   29.6260  -24.8920 N.am   77  ILE77      -0.1980
     85  CA        47.8660   29.8480  -24.8450 C.3    77  ILE77       0.1595
     86  C         48.7300   28.5500  -24.8430 C.2    77  ILE77       0.2287
     87  O         48.4730   27.6400  -24.0870 O.2    77  ILE77      -0.2864
     88  CB        48.2300   30.7700  -23.6510 C.3    77  ILE77       0.0276
     89  CG1       49.6660   31.2970  -23.8130 C.3    77  ILE77       0.0022
     90  CG2       47.9440   30.0670  -22.3290 C.3    77  ILE77       0.0022
     91  CD1       50.2830   31.8690  -22.5280 C.3    77  ILE77       0.0001
     92  N         52.9240   26.7530  -25.0980 N.3    79  LEU79      -0.1245
     93  CA        54.3560   27.0410  -24.9190 C.3    79  LEU79       0.1561
     94  C         55.1580   26.8650  -26.2010 C.2    79  LEU79       0.2260
     95  O         55.2410   25.7540  -26.7630 O.2    79  LEU79      -0.2867
     96  CB        55.0080   26.1440  -23.8320 C.3    79  LEU79       0.0270
     97  CG        55.3760   26.6440  -22.4280 C.3    79  LEU79       0.0019
     98  CD1       56.5120   25.7590  -21.8580 C.3    79  LEU79       0.0001
     99  CD2       55.7500   28.0870  -22.3640 C.3    79  LEU79       0.0001
    100  N         59.4980   31.4910  -19.9330 N.3    97  LEU97      -0.1231
    101  CA        58.5000   30.9110  -20.7850 C.3    97  LEU97       0.1693
    102  C         58.2470   31.8350  -21.9970 C.2    97  LEU97       0.2592
    103  O         58.1980   33.0700  -21.8640 O.2    97  LEU97      -0.2718
    104  CB        57.2360   30.7220  -19.9760 C.3    97  LEU97       0.0284
    105  CG        57.4060   30.0630  -18.6020 C.3    97  LEU97       0.0019
    106  CD1       56.1970   30.3580  -17.7760 C.3    97  LEU97       0.0001
    107  CD2       57.6260   28.5890  -18.7230 C.3    97  LEU97       0.0001
    108  N         58.1010   31.2170  -23.1690 N.am   98  VAL98      -0.1966
    109  CA        57.9760   31.9170  -24.4190 C.3    98  VAL98       0.1727
    110  C         56.6560   31.4860  -25.0790 C.2    98  VAL98       0.2616
    111  O         56.3440   30.2820  -25.1590 O.2    98  VAL98      -0.2715
    112  CB        59.1670   31.5720  -25.3680 C.3    98  VAL98       0.0290
    113  CG1       59.0430   32.3050  -26.7350 C.3    98  VAL98       0.0023
    114  CG2       60.5080   31.8340  -24.6970 C.3    98  VAL98       0.0023
    115  N         55.8930   32.4740  -25.5490 N.am   99  THR99      -0.1951
    116  CA        54.6610   32.2160  -26.2960 C.3    99  THR99       0.1897
    117  C         54.4320   33.2130  -27.4210 C.2    99  THR99       0.2313
    118  O         55.0030   34.3210  -27.4110 O.2    99  THR99      -0.2863
    119  CB        53.4120   32.2280  -25.3740 C.3    99  THR99       0.1794
    120  OG1       52.2520   31.8850  -26.1560 O.3    99  THR99      -0.2208
    121  CG2       53.2060   33.6030  -24.7190 C.3    99  THR99       0.0378
    122  N         39.8170   23.2390  -21.9930 N.3   134  ILE134     -0.1245
    123  CA        40.2210   23.5170  -20.6130 C.3   134  ILE134      0.1561
    124  C         39.5250   22.5480  -19.6440 C.2   134  ILE134      0.2260
    125  O         40.1550   21.7580  -18.9630 O.2   134  ILE134     -0.2867
    126  CB        39.8770   25.0170  -20.1830 C.3   134  ILE134      0.0252
    127  CG1       40.4660   26.0850  -21.1410 C.3   134  ILE134      0.0019
    128  CG2       40.3730   25.3470  -18.8160 C.3   134  ILE134      0.0019
    129  CD1       41.9800   26.0730  -21.3250 C.3   134  ILE134      0.0001
    130  N         40.5300   21.3450  -15.5020 N.3   139  ILE139     -0.1231
    131  CA        41.1860   22.5580  -15.1020 C.3   139  ILE139      0.1692
    132  C         40.1300   23.6370  -15.0720 C.2   139  ILE139      0.2592
    133  O         39.2530   23.6370  -15.9070 O.2   139  ILE139     -0.2718
    134  CB        42.3370   22.9510  -16.0560 C.3   139  ILE139      0.0266
    135  CG1       43.4490   21.9020  -16.0310 C.3   139  ILE139      0.0019
    136  CG2       42.8990   24.3190  -15.6700 C.3   139  ILE139      0.0020
    137  CD1       44.4150   21.9860  -17.2790 C.3   139  ILE139      0.0001
    138  N         40.2230   24.5420  -14.1080 N.am  140  ILE140     -0.1966
    139  CA        39.2790   25.6550  -13.9770 C.3   140  ILE140      0.1727
    140  C         40.1360   26.8960  -14.0900 C.2   140  ILE140      0.2616
    141  O         41.1510   27.0150  -13.4020 O.2   140  ILE140     -0.2715
    142  CB        38.4890   25.6400  -12.6200 C.3   140  ILE140      0.0290
    143  CG1       37.4360   24.5270  -12.6040 C.3   140  ILE140      0.0022
    144  CG2       37.7690   26.9170  -12.4260 C.3   140  ILE140      0.0023
    145  CD1       37.0640   24.0450  -11.2090 C.3   140  ILE140      0.0001
    146  N         39.7680   27.7930  -14.9960 N.am  141  HIS141     -0.1973
    147  CA        40.5550   28.9860  -15.1930 C.3   141  HIS141      0.1656
    148  C         40.4860   29.9470  -13.9830 C.2   141  HIS141      0.2291
    149  O         41.5340   30.3360  -13.3940 O.2   141  HIS141     -0.2864
    150  CB        40.0660   29.6930  -16.4190 C.3   141  HIS141      0.0771
    151  CG        40.8690   30.8890  -16.7410 C.ar  141  HIS141      0.0820
    152  ND1       41.6300   30.9770  -17.8780 N.ar  141  HIS141     -0.2267
    153  CD2       41.0960   32.0210  -16.0420 C.ar  141  HIS141      0.1154
    154  CE1       42.2420   32.1430  -17.8980 C.ar  141  HIS141      0.1986
    155  NE2       41.9480   32.7870  -16.7890 N.ar  141  HIS141     -0.2212
    156  N         42.6560   32.0640  -24.9710 N.3   159  ILE159     -0.1231
    157  CA        42.5460   32.2710  -23.5340 C.3   159  ILE159      0.1692
    158  C         43.9430   32.1830  -22.8930 C.2   159  ILE159      0.2592
    159  O         44.7280   31.2870  -23.2370 O.2   159  ILE159     -0.2718
    160  CB        41.6240   31.2200  -22.8190 C.3   159  ILE159      0.0266
    161  CG1       40.2330   31.1630  -23.4260 C.3   159  ILE159      0.0019
    162  CG2       41.5290   31.5090  -21.2780 C.3   159  ILE159      0.0020
    163  CD1       39.4020   30.0680  -22.8500 C.3   159  ILE159      0.0001
    164  N         44.2390   33.0960  -21.9620 N.am  160  LEU160     -0.1966
    165  CA        45.4680   33.0030  -21.1440 C.3   160  LEU160      0.1728
    166  C         45.2350   33.4240  -19.6800 C.2   160  LEU160      0.2616
    167  O         44.1090   33.4940  -19.2220 O.2   160  LEU160     -0.2715
    168  CB        46.5990   33.8110  -21.7880 C.3   160  LEU160      0.0311
    169  CG        46.2550   35.1290  -22.5030 C.3   160  LEU160      0.0022
    170  CD1       46.0230   36.1590  -21.4670 C.3   160  LEU160      0.0001
    171  CD2       47.3790   35.5910  -23.4080 C.3   160  LEU160      0.0001
    172  N         46.2980   33.7250  -18.9520 N.am  161  ASP161     -0.1957
    173  CA        46.1720   34.1040  -17.5550 C.3   161  ASP161      0.1840
    174  C         47.3660   34.9820  -17.1420 C.2   161  ASP161      0.2622
    175  O         48.4390   34.4850  -16.7970 O.2   161  ASP161     -0.2715
    176  CB        45.9890   32.8550  -16.6630 C.3   161  ASP161      0.1450
    177  CG        45.4870   33.1890  -15.2440 C.2   161  ASP161      0.3671
    178  OD1       45.3880   34.3860  -14.8800 O.co2 161  ASP161     -0.2456
    179  OD2       45.2160   32.2430  -14.4570 O.co2 161  ASP161     -0.2456
    180  N         47.1670   36.2950  -17.2020 N.am  162  PHE162     -0.1960
    181  CA        48.1490   37.2660  -16.7010 C.3   162  PHE162      0.1771
    182  C         48.2490   37.3360  -15.1760 C.2   162  PHE162      0.2620
    183  O         48.6340   38.3820  -14.6220 O.2   162  PHE162     -0.2715
    184  CB        47.8730   38.6840  -17.2470 C.3   162  PHE162      0.0574
    185  CG        48.5900   38.9790  -18.5350 C.ar  162  PHE162     -0.0200
    186  CD1       49.8850   39.4970  -18.5190 C.ar  162  PHE162     -0.0042
    187  CD2       47.9800   38.7050  -19.7620 C.ar  162  PHE162     -0.0042
    188  CE1       50.5660   39.7520  -19.7120 C.ar  162  PHE162     -0.0003
    189  CE2       48.6440   38.9570  -20.9850 C.ar  162  PHE162     -0.0003
    190  CZ        49.9400   39.4810  -20.9620 C.ar  162  PHE162     -0.0000
    191  N         47.9440   36.2260  -14.5130 N.am  163  GLY163     -0.1954
    192  CA        47.8520   36.1990  -13.0640 C.3   163  GLY163      0.1869
    193  C         47.0870   37.4160  -12.5710 C.2   163  GLY163      0.2309
    194  O         47.6970   38.3930  -12.1230 O.2   163  GLY163     -0.2863
@<TRIPOS>BOND
     1   117   118    2
     2   117   116    1
     3    77    78    1
     4     8     9    1
     5    95    94    2
     6   113   112    1
     7    80    79    2
     8   116   115    1
     9   116   119    1
    10    94    93    1
    11   120   119    1
    12    79    78    1
    13    79    84   am
    14    78    81    1
    15   115   110   am
    16     9    12    1
    17     9    10    1
    18   119   121    1
    19   112   114    1
    20   112   109    1
    21    72    71    2
    22   111   110    2
    23    92    93    1
    24   110   109    1
    25   156   157    1
    26    71    70    1
    27    93    96    1
    28    84    85    1
    29    85    86    1
    30    85    88    1
    31    86    87    2
    32    81    83    1
    33    81    82    1
    34    11    10    2
    35   109   108    1
    36    96    97    1
    37    89    88    1
    38    89    91    1
    39    88    90    1
    40   157   158    1
    41   157   160    1
    42    70    73    1
    43    70    69    1
    44   161   163    1
    45   161   160    1
    46   171   169    1
    47   159   158    2
    48   108   102   am
    49    73    74    1
    50   158   164   am
    51   160   162    1
    52   169   168    1
    53   169   170    1
    54    97    99    1
    55    97    98    1
    56    64    63    2
    57   102   103    2
    58   102   101    1
    59   122   123    1
    60   164   165    1
    61   168   165    1
    62    74    75    1
    63     6     5    1
    64    75    76    1
    65   129   127    1
    66    63    62    1
    67   165   166    1
    68   127   126    1
    69   189   190   ar
    70   189   187   ar
    71   190   188   ar
    72   101   104    1
    73   101   100    1
    74    13    14    1
    75   123   126    1
    76   123   124    1
    77     3     4    2
    78     3     2    1
    79    62    65    1
    80    62    61    1
    81    65    66    1
    82   126   128    1
    83   104   105    1
    84    68    66    1
    85     5     2    1
    86     5     7    1
    87    56    55    2
    88   187   185   ar
    89   188   186   ar
    90   166   167    2
    91   166   172   am
    92   124   125    2
    93     2     1    1
    94    66    67    1
    95    14    17    1
    96    14    15    1
    97    61    55   am
    98   172   173    1
    99    17    18    1
   100    55    54    1
   101   107   105    1
   102    16    15    2
   103   105   106    1
   104   185   186   ar
   105   185   184    1
   106   154   152   ar
   107   154   155   ar
   108   152   151   ar
   109   173   174    1
   110   173   176    1
   111    18    19    1
   112    54    57    1
   113    54    53    1
   114   137   135    1
   115   184   181    1
   116   180   174   am
   117   180   181    1
   118   174   175    2
   119    19    20    1
   120   155   153   ar
   121   151   150    1
   122   151   153   ar
   123    57    58    1
   124   181   182    1
   125   176   177    1
   126    47    46    2
   127   150   147    1
   128    51    50   ar
   129   134   135    1
   130   134   136    1
   131   134   131    1
   132    60    58    1
   133   133   132    2
   134    20    21    1
   135    46    45    1
   136    58    59    1
   137   130   131    1
   138    49    50    1
   139    49    48    1
   140    50    52   ar
   141   177   178   ar
   142   177   179   ar
   143   147   146    1
   144   147   148    1
   145   182   183    2
   146   182   191   am
   147   131   132    1
   148   132   138   am
   149   146   140   am
   150   191   192    1
   151    45    48    1
   152    45    44    1
   153    36    35    2
   154   138   139    1
   155   140   139    1
   156   140   141    2
   157   148   149    2
   158   139   142    1
   159    44    35   am
   160    35    34    1
   161   192   193    1
   162   142   143    1
   163   142   144    1
   164   143   145    1
   165   193   194    2
   166    34    33    1
   167    34    37    1
   168    38    37    1
   169    38    39    1
   170    25    24    2
   171    39    40    1
   172    24    23    1
   173    40    41    2
   174    27    28    1
   175    27    26    1
   176    23    26    1
   177    23    22    1
   178    28    29    1
   179    41    42    1
   180    41    43    1
   181    29    30    2
   182    30    31    1
   183    30    32    1
