@<TRIPOS>MOLECULE
tmp/3p7bA00.pdb
 201 190 0 0 0
SMALL
GASTEIGER

@<TRIPOS>ATOM
      1  N         59.4330   38.6780  -19.3410 N.3    31  VAL31      -0.1245
      2  CA        59.2840   38.0820  -20.6640 C.3    31  VAL31       0.1561
      3  C         59.8610   39.0410  -21.6780 C.2    31  VAL31       0.2260
      4  O         59.6080   40.2490  -21.6080 O.2    31  VAL31      -0.2867
      5  CB        57.8060   37.8440  -21.0490 C.3    31  VAL31       0.0252
      6  CG1       57.7130   37.2380  -22.4820 C.3    31  VAL31       0.0019
      7  CG2       57.0740   36.9560  -20.0110 C.3    31  VAL31       0.0019
      8  N         58.7670   34.4130  -27.6380 N.3    44  ALA44      -0.1245
      9  CA        58.6710   35.0260  -26.3550 C.3    44  ALA44       0.1562
     10  C         59.5490   34.1460  -25.4370 C.2    44  ALA44       0.2260
     11  O         59.4130   32.9200  -25.4230 O.2    44  ALA44      -0.2867
     12  CB        57.1550   35.0330  -25.9060 C.3    44  ALA44       0.0290
     13  N         60.5590   33.6260  -21.4960 N.3    46  LYS46      -0.1245
     14  CA        60.2430   33.9720  -20.1240 C.3    46  LYS46       0.1561
     15  C         61.3980   33.5460  -19.2520 C.2    46  LYS46       0.2260
     16  O         61.8380   32.3780  -19.3220 O.2    46  LYS46      -0.2867
     17  CB        58.9190   33.3180  -19.6710 C.3    46  LYS46       0.0271
     18  CG        58.6650   33.4320  -18.0980 C.3    46  LYS46       0.0035
     19  CD        57.3200   32.8470  -17.7240 C.3    46  LYS46       0.0206
     20  CE        57.0630   33.0320  -16.2260 C.3    46  LYS46       0.1093
     21  NZ        55.7930   32.3760  -15.7910 N.3    46  LYS46      -0.1314
     22  N         56.4130   25.7320   -7.6180 N.3    60  ARG60      -0.1245
     23  CA        55.7490   26.4980   -8.7360 C.3    60  ARG60       0.1563
     24  C         56.5740   26.4740  -10.0560 C.2    60  ARG60       0.2260
     25  O         56.0140   26.4610  -11.1690 O.2    60  ARG60      -0.2867
     26  CB        55.5480   27.9630   -8.3330 C.3    60  ARG60       0.0307
     27  CG        54.5400   28.7300   -9.1940 C.3    60  ARG60       0.0489
     28  CD        54.6670   30.2740   -9.0640 C.3    60  ARG60       0.2205
     29  NE        53.9650   30.9980   -7.9720 N.pl3  60  ARG60      -0.0865
     30  CZ        53.3690   30.5060   -6.8760 C.cat  60  ARG60       0.5346
     31  NH1       53.3090   29.2060   -6.5950 N.pl3  60  ARG60       0.1354
     32  NH2       52.8020   31.3440   -6.0260 N.pl3  60  ARG60       0.1354
     33  N         56.2030   22.9690  -11.3020 N.3    63  ARG63      -0.1231
     34  CA        54.8010   22.9500  -11.8090 C.3    63  ARG63       0.1694
     35  C         54.7530   23.5350  -13.2040 C.2    63  ARG63       0.2591
     36  O         54.1380   22.9500  -14.1380 O.2    63  ARG63      -0.2718
     37  CB        53.8300   23.7850  -10.9250 C.3    63  ARG63       0.0321
     38  CG        52.2940   23.7500  -11.4180 C.3    63  ARG63       0.0489
     39  CD        51.4130   24.5630  -10.4020 C.3    63  ARG63       0.2205
     40  NE        51.4010   23.9020   -9.0810 N.pl3  63  ARG63      -0.0865
     41  CZ        51.8600   24.4120   -7.9360 C.cat  63  ARG63       0.5346
     42  NH1       52.2960   25.6610   -7.8960 N.pl3  63  ARG63       0.1354
     43  NH2       51.8500   23.6480   -6.8070 N.pl3  63  ARG63       0.1354
     44  N         55.3640   24.6950  -13.3850 N.am   64  GLU64      -0.1979
     45  CA        55.1720   25.3860  -14.6740 C.3    64  GLU64       0.1602
     46  C         55.9370   24.6300  -15.7700 C.2    64  GLU64       0.2287
     47  O         55.4710   24.4260  -16.9300 O.2    64  GLU64      -0.2864
     48  CB        55.6420   26.8670  -14.5990 C.3    64  GLU64       0.0415
     49  CG        55.6630   27.4860  -16.0090 C.3    64  GLU64       0.1163
     50  CD        55.8110   29.0190  -15.9740 C.2    64  GLU64       0.3649
     51  OE1       55.3960   29.7180  -16.9210 O.co2  64  GLU64      -0.2457
     52  OE2       56.2970   29.5090  -14.9580 O.co2  64  GLU64      -0.2457
     53  N         53.9460   21.3550  -16.5340 N.3    67  LEU67      -0.1231
     54  CA        52.7620   21.7070  -17.3400 C.3    67  LEU67       0.1693
     55  C         53.0680   22.0750  -18.7850 C.2    67  LEU67       0.2591
     56  O         52.5130   21.4930  -19.7670 O.2    67  LEU67      -0.2718
     57  CB        52.0720   22.8950  -16.6970 C.3    67  LEU67       0.0284
     58  CG        50.9320   22.6920  -15.7590 C.3    67  LEU67       0.0019
     59  CD1       50.6620   24.0190  -15.0490 C.3    67  LEU67       0.0001
     60  CD2       49.7330   22.2410  -16.6370 C.3    67  LEU67       0.0001
     61  N         53.9580   23.0430  -18.9490 N.am   68  LEU68      -0.1980
     62  CA        54.3440   23.4760  -20.3040 C.3    68  LEU68       0.1596
     63  C         54.9500   22.3800  -21.1780 C.2    68  LEU68       0.2287
     64  O         54.7380   22.3660  -22.4250 O.2    68  LEU68      -0.2864
     65  CB        55.2460   24.7150  -20.2860 C.3    68  LEU68       0.0297
     66  CG        54.5970   25.9270  -19.6460 C.3    68  LEU68       0.0022
     67  CD1       55.5150   27.0470  -19.9050 C.3    68  LEU68       0.0001
     68  CD2       53.2190   26.1860  -20.1270 C.3    68  LEU68       0.0001
     69  N         51.8180   20.3850  -22.5140 N.3    71  MET71      -0.1245
     70  CA        50.7800   20.9970  -23.3770 C.3    71  MET71       0.1570
     71  C         51.1870   21.0080  -24.8580 C.2    71  MET71       0.2261
     72  O         52.1430   21.6850  -25.2640 O.2    71  MET71      -0.2867
     73  CB        50.4830   22.4280  -22.9670 C.3    71  MET71       0.0387
     74  CG        49.9840   22.6700  -21.5630 C.3    71  MET71       0.0595
     75  SD        48.2900   21.9580  -21.2680 S.3    71  MET71      -0.1393
     76  CE        48.6060   20.3570  -20.6260 C.3    71  MET71       0.0692
     77  N         46.7180   26.1210  -27.0630 N.3    76  VAL76      -0.1231
     78  CA        47.3150   26.2740  -25.7200 C.3    76  VAL76       0.1692
     79  C         48.7840   26.5960  -25.9250 C.2    76  VAL76       0.2591
     80  O         49.4180   26.0270  -26.8020 O.2    76  VAL76      -0.2718
     81  CB        47.2020   24.9950  -24.8500 C.3    76  VAL76       0.0266
     82  CG1       47.6150   25.2690  -23.3710 C.3    76  VAL76       0.0020
     83  CG2       45.7610   24.4940  -24.8580 C.3    76  VAL76       0.0020
     84  N         49.3170   27.4720  -25.1070 N.am   77  ILE77      -0.1980
     85  CA        50.7430   27.6890  -25.1530 C.3    77  ILE77       0.1595
     86  C         51.5270   26.3700  -25.0960 C.2    77  ILE77       0.2287
     87  O         51.2010   25.4550  -24.3390 O.2    77  ILE77      -0.2864
     88  CB        51.1890   28.6400  -24.0150 C.3    77  ILE77       0.0276
     89  CG1       52.6600   29.0690  -24.2160 C.3    77  ILE77       0.0022
     90  CG2       50.8920   28.0260  -22.6090 C.3    77  ILE77       0.0022
     91  CD1       53.1280   30.0490  -23.0660 C.3    77  ILE77       0.0001
     92  N         55.7760   24.6560  -25.5160 N.3    79  LEU79      -0.1245
     93  CA        57.2180   24.9420  -25.3530 C.3    79  LEU79       0.1561
     94  C         58.0050   24.6400  -26.6050 C.2    79  LEU79       0.2260
     95  O         58.0010   23.5010  -27.0970 O.2    79  LEU79      -0.2867
     96  CB        57.7880   24.0560  -24.2450 C.3    79  LEU79       0.0270
     97  CG        57.9360   24.5300  -22.8070 C.3    79  LEU79       0.0019
     98  CD1       58.7270   23.5250  -22.0540 C.3    79  LEU79       0.0001
     99  CD2       58.5120   25.9450  -22.6290 C.3    79  LEU79       0.0001
    100  N         62.2110   29.6680  -20.4750 N.3    97  LEU97      -0.1231
    101  CA        61.2570   28.9370  -21.3340 C.3    97  LEU97       0.1693
    102  C         60.9430   29.7570  -22.6070 C.2    97  LEU97       0.2592
    103  O         60.8320   30.9800  -22.5670 O.2    97  LEU97      -0.2718
    104  CB        59.9470   28.7000  -20.5820 C.3    97  LEU97       0.0284
    105  CG        60.1050   28.1700  -19.1000 C.3    97  LEU97       0.0019
    106  CD1       58.8720   28.4820  -18.2630 C.3    97  LEU97       0.0001
    107  CD2       60.3400   26.7400  -19.0930 C.3    97  LEU97       0.0001
    108  N         60.7630   29.0620  -23.7120 N.am   98  VAL98      -0.1966
    109  CA        60.6170   29.7120  -25.0160 C.3    98  VAL98       0.1727
    110  C         59.3300   29.2400  -25.7090 C.2    98  VAL98       0.2616
    111  O         59.0540   28.0410  -25.7940 O.2    98  VAL98      -0.2715
    112  CB        61.8570   29.3630  -25.9210 C.3    98  VAL98       0.0290
    113  CG1       61.7330   30.0440  -27.3010 C.3    98  VAL98       0.0023
    114  CG2       63.1220   29.8390  -25.2140 C.3    98  VAL98       0.0023
    115  N         58.5440   30.1920  -26.1990 N.am   99  THR99      -0.1951
    116  CA        57.3810   29.8230  -26.9640 C.3    99  THR99       0.1897
    117  C         57.2090   30.6760  -28.2050 C.2    99  THR99       0.2313
    118  O         57.7770   31.7640  -28.2670 O.2    99  THR99      -0.2863
    119  CB        56.0860   29.9520  -26.0860 C.3    99  THR99       0.1794
    120  OG1       55.0110   29.2280  -26.7190 O.3    99  THR99      -0.2208
    121  CG2       55.6720   31.3790  -25.9370 C.3    99  THR99       0.0378
    122  N         42.9280   21.1720  -22.0320 N.3   134  ILE134     -0.1245
    123  CA        43.4800   21.3890  -20.6920 C.3   134  ILE134      0.1561
    124  C         42.6610   20.5650  -19.6570 C.2   134  ILE134      0.2260
    125  O         43.2140   19.8990  -18.7860 O.2   134  ILE134     -0.2867
    126  CB        43.4470   22.9090  -20.3480 C.3   134  ILE134      0.0252
    127  CG1       44.4460   23.6790  -21.2470 C.3   134  ILE134      0.0019
    128  CG2       43.6560   23.0990  -18.8100 C.3   134  ILE134      0.0019
    129  CD1       44.1950   25.1930  -21.2930 C.3   134  ILE134      0.0001
    130  N         43.5530   19.5280  -15.4200 N.3   139  ILE139     -0.1231
    131  CA        44.0470   20.8460  -15.0610 C.3   139  ILE139      0.1692
    132  C         42.9360   21.8620  -15.1380 C.2   139  ILE139      0.2592
    133  O         42.1230   21.8260  -16.0410 O.2   139  ILE139     -0.2718
    134  CB        45.1490   21.2720  -16.0480 C.3   139  ILE139      0.0266
    135  CG1       46.3300   20.3690  -15.8360 C.3   139  ILE139      0.0019
    136  CG2       45.6720   22.7090  -15.7710 C.3   139  ILE139      0.0020
    137  CD1       47.0570   20.0870  -17.1350 C.3   139  ILE139      0.0001
    138  N         42.9390   22.7950  -14.2070 N.am  140  ILE140     -0.1966
    139  CA        42.0470   23.9170  -14.2420 C.3   140  ILE140      0.1727
    140  C         42.8790   25.1780  -14.3980 C.2   140  ILE140      0.2616
    141  O         43.8790   25.3970  -13.6380 O.2   140  ILE140     -0.2715
    142  CB        41.2610   23.9880  -12.9100 C.3   140  ILE140      0.0290
    143  CG1       40.5780   22.6420  -12.6350 C.3   140  ILE140      0.0022
    144  CG2       40.2250   25.1360  -12.9010 C.3   140  ILE140      0.0023
    145  CD1       39.6960   22.6280  -11.3890 C.3   140  ILE140      0.0001
    146  N         42.4740   26.0430  -15.3370 N.am  141  HIS141     -0.1959
    147  CA        43.1680   27.3330  -15.5060 C.3   141  HIS141      0.1787
    148  C         43.0450   28.2410  -14.2670 C.2   141  HIS141      0.2620
    149  O         44.0510   28.6330  -13.6740 O.2   141  HIS141     -0.2715
    150  CB        42.6920   28.0740  -16.7660 C.3   141  HIS141      0.0785
    151  CG        43.5510   29.2560  -17.1130 C.ar  141  HIS141      0.0821
    152  ND1       44.2760   29.3420  -18.2970 N.ar  141  HIS141     -0.2267
    153  CD2       43.8270   30.3780  -16.4180 C.ar  141  HIS141      0.1154
    154  CE1       44.9520   30.4790  -18.3090 C.ar  141  HIS141      0.1986
    155  NE2       44.6840   31.1290  -17.1900 N.ar  141  HIS141     -0.2212
    156  N         41.7930   28.5940  -13.9120 N.am  142  ARG142     -0.1977
    157  CA        41.4650   29.3370  -12.6950 C.3   142  ARG142      0.1597
    158  C         41.6930   30.8380  -12.8640 C.2   142  ARG142      0.2287
    159  O         41.2090   31.5750  -12.0500 O.2   142  ARG142     -0.2864
    160  CB        42.3290   28.9550  -11.4650 C.3   142  ARG142      0.0334
    161  CG        42.3380   27.5390  -10.9930 C.3   142  ARG142      0.0492
    162  CD        43.0430   27.4300   -9.5370 C.3   142  ARG142      0.2205
    163  NE        42.7750   26.0950   -9.0200 N.pl3 142  ARG142     -0.0865
    164  CZ        43.3280   25.0020   -9.5390 C.cat 142  ARG142      0.5346
    165  NH1       44.2110   25.1210  -10.5420 N.pl3 142  ARG142      0.1354
    166  NH2       43.0040   23.8050   -9.0640 N.pl3 142  ARG142      0.1354
    167  N         45.6240   29.8790  -25.3670 N.3   159  ILE159     -0.1231
    168  CA        45.4710   30.0850  -23.9590 C.3   159  ILE159      0.1692
    169  C         46.8180   30.0150  -23.2690 C.2   159  ILE159      0.2592
    170  O         47.5530   29.0930  -23.4790 O.2   159  ILE159     -0.2718
    171  CB        44.5450   28.9970  -23.3430 C.3   159  ILE159      0.0266
    172  CG1       43.1420   29.1160  -24.0090 C.3   159  ILE159      0.0019
    173  CG2       44.3600   29.2410  -21.8360 C.3   159  ILE159      0.0020
    174  CD1       42.2570   27.8860  -23.6440 C.3   159  ILE159      0.0001
    175  N         47.1250   31.0030  -22.4270 N.am  160  LEU160     -0.1966
    176  CA        48.3210   30.8990  -21.5890 C.3   160  LEU160      0.1728
    177  C         47.9630   31.4320  -20.2430 C.2   160  LEU160      0.2616
    178  O         46.7670   31.6660  -19.9850 O.2   160  LEU160     -0.2715
    179  CB        49.5170   31.6600  -22.2160 C.3   160  LEU160      0.0311
    180  CG        49.3630   33.1450  -22.6090 C.3   160  LEU160      0.0022
    181  CD1       49.2240   33.9820  -21.4450 C.3   160  LEU160      0.0001
    182  CD2       50.6680   33.6200  -23.3860 C.3   160  LEU160      0.0001
    183  N         48.9710   31.6350  -19.3680 N.am  161  ASP161     -0.1957
    184  CA        48.7170   32.1940  -18.0420 C.3   161  ASP161      0.1840
    185  C         49.9550   33.0580  -17.6690 C.2   161  ASP161      0.2622
    186  O         51.0150   32.5080  -17.3750 O.2   161  ASP161     -0.2715
    187  CB        48.4820   31.0790  -16.9880 C.3   161  ASP161      0.1450
    188  CG        48.0760   31.6580  -15.6000 C.2   161  ASP161      0.3671
    189  OD1       48.2160   32.8810  -15.4450 O.co2 161  ASP161     -0.2456
    190  OD2       47.6510   30.9090  -14.6900 O.co2 161  ASP161     -0.2456
    191  N         49.8160   34.3750  -17.7680 N.am  162  PHE162     -0.1974
    192  CA        50.8810   35.3430  -17.4570 C.3   162  PHE162      0.1639
    193  C         51.1610   35.3400  -15.9700 C.2   162  PHE162      0.2290
    194  O         52.2960   35.5580  -15.5440 O.2   162  PHE162     -0.2864
    195  CB        50.4970   36.7620  -17.9610 C.3   162  PHE162      0.0560
    196  CG        51.0120   37.0560  -19.3300 C.ar  162  PHE162     -0.0200
    197  CD1       52.3650   37.4170  -19.5130 C.ar  162  PHE162     -0.0042
    198  CD2       50.1830   36.9060  -20.4530 C.ar  162  PHE162     -0.0042
    199  CE1       52.8720   37.6540  -20.7870 C.ar  162  PHE162     -0.0003
    200  CE2       50.6590   37.1480  -21.7540 C.ar  162  PHE162     -0.0003
    201  CZ        52.0230   37.5150  -21.9270 C.ar  162  PHE162     -0.0000
@<TRIPOS>BOND
     1   118   117    2
     2   117   116    1
     3     8     9    1
     4   113   112    1
     5    95    94    2
     6    77    78    1
     7   116   115    1
     8   116   119    1
     9    80    79    2
    10   120   119    1
    11    94    93    1
    12     9    12    1
    13     9    10    1
    14   115   110   am
    15   119   121    1
    16    79    78    1
    17    79    84   am
    18   112   114    1
    19   112   109    1
    20   111   110    2
    21    78    81    1
    22   110   109    1
    23    92    93    1
    24    10    11    2
    25   167   168    1
    26    93    96    1
    27    72    71    2
    28    85    84    1
    29    85    86    1
    30    85    88    1
    31    86    87    2
    32   109   108    1
    33    71    70    1
    34    83    81    1
    35    81    82    1
    36    96    97    1
    37    89    88    1
    38    89    91    1
    39    88    90    1
    40   172   174    1
    41   172   171    1
    42   168   171    1
    43   168   169    1
    44   108   102   am
    45   170   169    2
    46   182   180    1
    47    70    73    1
    48    70    69    1
    49   171   173    1
    50   169   175   am
    51    73    74    1
    52    97    99    1
    53    97    98    1
    54   180   179    1
    55   180   181    1
    56   102   103    2
    57   102   101    1
    58     6     5    1
    59   175   176    1
    60    64    63    2
    61   179   176    1
    62   122   123    1
    63   201   200   ar
    64   201   199   ar
    65   200   198   ar
    66     3     4    2
    67     3     2    1
    68   176   177    1
    69    74    75    1
    70    13    14    1
    71   101   104    1
    72   101   100    1
    73   129   127    1
    74    75    76    1
    75   127   126    1
    76    63    62    1
    77     5     2    1
    78     5     7    1
    79   199   197   ar
    80   123   126    1
    81   123   124    1
    82     2     1    1
    83   104   105    1
    84   198   196   ar
    85   126   128    1
    86    62    65    1
    87    62    61    1
    88    65    66    1
    89   177   178    2
    90   177   183   am
    91    68    66    1
    92    14    17    1
    93    14    15    1
    94    67    66    1
    95    56    55    2
    96    17    18    1
    97   124   125    2
    98   197   196   ar
    99   183   184    1
   100   196   195    1
   101    16    15    2
   102   105   107    1
   103   105   106    1
   104    61    55   am
   105    55    54    1
   106   154   152   ar
   107   154   155   ar
   108   152   151   ar
   109    18    19    1
   110   184   185    1
   111   184   187    1
   112   195   192    1
   113   191   185   am
   114   191   192    1
   115    19    20    1
   116   185   186    2
   117   192   193    1
   118    54    57    1
   119    54    53    1
   120   155   153   ar
   121   137   135    1
   122   151   150    1
   123   151   153   ar
   124   187   188    1
   125    47    46    2
   126    51    50   ar
   127   150   147    1
   128    57    58    1
   129    60    58    1
   130    20    21    1
   131   134   135    1
   132   134   136    1
   133   134   131    1
   134   133   132    2
   135    49    50    1
   136    49    48    1
   137    50    52   ar
   138   193   194    2
   139    46    45    1
   140    58    59    1
   141   188   189   ar
   142   188   190   ar
   143   147   146    1
   144   147   148    1
   145   130   131    1
   146   146   140   am
   147   132   131    1
   148   132   138   am
   149    45    48    1
   150    45    44    1
   151   140   139    1
   152   140   141    2
   153   148   156   am
   154   148   149    2
   155   139   138    1
   156   139   142    1
   157    36    35    2
   158   156   157    1
   159    44    35   am
   160    35    34    1
   161   142   144    1
   162   142   143    1
   163   158   157    1
   164   158   159    2
   165   157   160    1
   166   143   145    1
   167    34    33    1
   168    34    37    1
   169   160   161    1
   170    38    37    1
   171    38    39    1
   172    25    24    2
   173   161   162    1
   174   165   164    1
   175    39    40    1
   176    24    23    1
   177   164   166    1
   178   164   163    2
   179   162   163    1
   180    27    28    1
   181    27    26    1
   182    40    41    2
   183    28    29    1
   184    23    26    1
   185    23    22    1
   186    29    30    2
   187    41    42    1
   188    41    43    1
   189    30    31    1
   190    30    32    1
