@<TRIPOS>MOLECULE
tmp/3p7cA01.pdb
 214 202 0 0 0
SMALL
GASTEIGER

@<TRIPOS>ATOM
      1  N         58.3630   38.7170  -19.3990 N.3    31  VAL31      -0.1245
      2  CA        58.2080   38.1920  -20.7380 C.3    31  VAL31       0.1561
      3  C         58.7250   39.2220  -21.7330 C.2    31  VAL31       0.2260
      4  O         58.3520   40.3620  -21.6470 O.2    31  VAL31      -0.2867
      5  CB        56.7370   37.8640  -21.0560 C.3    31  VAL31       0.0252
      6  CG1       56.6170   37.3510  -22.4730 C.3    31  VAL31       0.0019
      7  CG2       56.1540   36.8130  -20.0840 C.3    31  VAL31       0.0019
      8  N         57.7000   34.6370  -27.7260 N.3    44  ALA44      -0.1231
      9  CA        57.6940   35.2800  -26.4300 C.3    44  ALA44       0.1694
     10  C         58.5340   34.3560  -25.5700 C.2    44  ALA44       0.2592
     11  O         58.4090   33.1010  -25.6530 O.2    44  ALA44      -0.2718
     12  CB        56.2600   35.3830  -25.8930 C.3    44  ALA44       0.0304
     13  N         59.4070   34.9630  -24.7640 N.am   45  VAL45      -0.1966
     14  CA        60.3560   34.2360  -23.9350 C.3    45  VAL45       0.1727
     15  C         59.9600   34.7320  -22.5660 C.2    45  VAL45       0.2616
     16  O         59.9150   35.9430  -22.3550 O.2    45  VAL45      -0.2715
     17  CB        61.8550   34.6340  -24.2280 C.3    45  VAL45       0.0290
     18  CG1       62.8780   33.8030  -23.3710 C.3    45  VAL45       0.0023
     19  CG2       62.1950   34.5170  -25.7020 C.3    45  VAL45       0.0023
     20  N         59.5920   33.7910  -21.6840 N.am   46  LYS46      -0.1977
     21  CA        59.3120   34.0500  -20.2670 C.3    46  LYS46       0.1596
     22  C         60.4910   33.6670  -19.3770 C.2    46  LYS46       0.2287
     23  O         60.9480   32.5080  -19.3800 O.2    46  LYS46      -0.2864
     24  CB        58.0120   33.3310  -19.8050 C.3    46  LYS46       0.0298
     25  CG        57.6720   33.5040  -18.2900 C.3    46  LYS46       0.0038
     26  CD        56.3790   32.7530  -17.8080 C.3    46  LYS46       0.0206
     27  CE        55.9850   33.2050  -16.4250 C.3    46  LYS46       0.1093
     28  NZ        54.8350   32.3900  -15.9060 N.3    46  LYS46      -0.1314
     29  N         55.6260   25.5250   -7.9960 N.3    60  ARG60      -0.1245
     30  CA        55.0070   26.2800   -9.1040 C.3    60  ARG60       0.1563
     31  C         55.9030   26.3700  -10.3950 C.2    60  ARG60       0.2260
     32  O         55.3970   26.3370  -11.5470 O.2    60  ARG60      -0.2867
     33  CB        54.5600   27.6790   -8.5940 C.3    60  ARG60       0.0307
     34  CG        54.2840   28.7610   -9.6750 C.3    60  ARG60       0.0489
     35  CD        53.8790   30.1210   -9.0370 C.3    60  ARG60       0.2205
     36  NE        52.9420   29.9070   -7.9150 N.pl3  60  ARG60      -0.0865
     37  CZ        52.8620   30.6450   -6.7940 C.cat  60  ARG60       0.5346
     38  NH1       53.6670   31.6740   -6.5960 N.pl3  60  ARG60       0.1354
     39  NH2       51.9760   30.3290   -5.8410 N.pl3  60  ARG60       0.1354
     40  N         55.5260   22.9010  -11.7820 N.3    63  ARG63      -0.1231
     41  CA        54.1800   22.8260  -12.2940 C.3    63  ARG63       0.1694
     42  C         54.1220   23.4700  -13.6760 C.2    63  ARG63       0.2591
     43  O         53.5900   22.8870  -14.6500 O.2    63  ARG63      -0.2718
     44  CB        53.2270   23.5860  -11.3520 C.3    63  ARG63       0.0321
     45  CG        51.7810   23.6350  -11.8130 C.3    63  ARG63       0.0489
     46  CD        50.9120   24.3960  -10.7820 C.3    63  ARG63       0.2205
     47  NE        50.9390   23.7460   -9.4520 N.pl3  63  ARG63      -0.0865
     48  CZ        51.2270   24.3800   -8.3100 C.cat  63  ARG63       0.5346
     49  NH1       51.4770   25.6900   -8.3040 N.pl3  63  ARG63       0.1354
     50  NH2       51.1970   23.7080   -7.1560 N.pl3  63  ARG63       0.1354
     51  N         54.6780   24.6670  -13.7790 N.am   64  GLU64      -0.1979
     52  CA        54.5480   25.3480  -15.0470 C.3    64  GLU64       0.1602
     53  C         55.2860   24.5670  -16.1540 C.2    64  GLU64       0.2287
     54  O         54.7720   24.4080  -17.2540 O.2    64  GLU64      -0.2864
     55  CB        54.9770   26.7970  -14.9900 C.3    64  GLU64       0.0415
     56  CG        55.1250   27.4220  -16.4180 C.3    64  GLU64       0.1163
     57  CD        54.8990   28.9120  -16.3730 C.2    64  GLU64       0.3649
     58  OE1       54.1380   29.4920  -17.2000 O.co2  64  GLU64      -0.2457
     59  OE2       55.4920   29.4930  -15.4740 O.co2  64  GLU64      -0.2457
     60  N         53.2180   21.3150  -17.0450 N.3    67  LEU67      -0.1231
     61  CA        51.9770   21.6680  -17.7630 C.3    67  LEU67       0.1693
     62  C         52.2440   22.0580  -19.1980 C.2    67  LEU67       0.2591
     63  O         51.6230   21.5220  -20.1240 O.2    67  LEU67      -0.2718
     64  CB        51.3020   22.8720  -17.1160 C.3    67  LEU67       0.0284
     65  CG        49.8130   22.7420  -16.8730 C.3    67  LEU67       0.0019
     66  CD1       49.3610   23.9230  -16.0360 C.3    67  LEU67       0.0001
     67  CD2       49.0820   22.6810  -18.1850 C.3    67  LEU67       0.0001
     68  N         53.1700   22.9850  -19.3740 N.am   68  LEU68      -0.1980
     69  CA        53.5000   23.4850  -20.6870 C.3    68  LEU68       0.1596
     70  C         54.1360   22.3960  -21.5420 C.2    68  LEU68       0.2287
     71  O         53.9910   22.4260  -22.7480 O.2    68  LEU68      -0.2864
     72  CB        54.4350   24.6860  -20.6270 C.3    68  LEU68       0.0297
     73  CG        53.8440   25.9980  -20.0990 C.3    68  LEU68       0.0022
     74  CD1       54.8200   27.0800  -20.4230 C.3    68  LEU68       0.0001
     75  CD2       52.4910   26.3120  -20.7630 C.3    68  LEU68       0.0001
     76  N         50.9550   20.4440  -22.8590 N.3    71  MET71      -0.1245
     77  CA        50.0030   21.1220  -23.7820 C.3    71  MET71       0.1570
     78  C         50.3790   21.1170  -25.2560 C.2    71  MET71       0.2261
     79  O         51.2990   21.7950  -25.7020 O.2    71  MET71      -0.2867
     80  CB        49.7810   22.5920  -23.3610 C.3    71  MET71       0.0387
     81  CG        49.2230   22.7820  -21.9370 C.3    71  MET71       0.0595
     82  SD        47.6440   21.9470  -21.6810 S.3    71  MET71      -0.1393
     83  CE        48.0440   20.3460  -20.9310 C.3    71  MET71       0.0692
     84  N         45.8270   26.2210  -27.4270 N.3    76  VAL76      -0.1231
     85  CA        46.4700   26.3480  -26.0780 C.3    76  VAL76       0.1692
     86  C         47.9390   26.6180  -26.2740 C.2    76  VAL76       0.2588
     87  O         48.5560   26.0290  -27.1750 O.2    76  VAL76      -0.2718
     88  CB        46.3180   25.0870  -25.2130 C.3    76  VAL76       0.0266
     89  CG1       46.8010   25.3600  -23.7890 C.3    76  VAL76       0.0020
     90  CG2       44.8390   24.6080  -25.1570 C.3    76  VAL76       0.0020
     91  N         48.4970   27.4950  -25.4550 N.am   77  ILE77      -0.2033
     92  CA        49.9070   27.7970  -25.5160 C.3    77  ILE77       0.1282
     93  C         50.6400   26.4950  -25.5530 C.3    77  ILE77       0.2035
     94  O         50.2730   25.5410  -24.7710 O.3    77  ILE77      -0.2185
     95  CB        50.4170   28.6570  -24.2940 C.3    77  ILE77       0.0226
     96  CG1       51.8590   29.1070  -24.5320 C.3    77  ILE77       0.0018
     97  CG2       50.2620   27.9770  -22.9570 C.3    77  ILE77       0.0018
     98  CD1       52.4550   30.0000  -23.3810 C.3    77  ILE77       0.0001
     99  N         54.8500   24.7710  -25.9350 N.3    79  LEU79      -0.1245
    100  CA        56.2500   25.0430  -25.6670 C.3    79  LEU79       0.1561
    101  C         57.1650   24.8150  -26.8660 C.2    79  LEU79       0.2260
    102  O         57.2940   23.7100  -27.3060 O.2    79  LEU79      -0.2867
    103  CB        56.7410   24.2220  -24.4670 C.3    79  LEU79       0.0270
    104  CG        57.1150   24.8230  -23.1050 C.3    79  LEU79       0.0019
    105  CD1       57.9700   23.7900  -22.3580 C.3    79  LEU79       0.0001
    106  CD2       57.8560   26.1830  -23.1450 C.3    79  LEU79       0.0001
    107  N         61.2390   29.8900  -20.7470 N.3    97  LEU97      -0.1245
    108  CA        60.2850   29.1160  -21.5360 C.3    97  LEU97       0.1561
    109  C         60.0130   29.9460  -22.7420 C.2    97  LEU97       0.2260
    110  O         59.9140   31.1600  -22.6280 O.2    97  LEU97      -0.2867
    111  CB        58.9720   28.9700  -20.7550 C.3    97  LEU97       0.0270
    112  CG        59.1370   28.5040  -19.3090 C.3    97  LEU97       0.0019
    113  CD1       57.7900   28.6470  -18.6490 C.3    97  LEU97       0.0001
    114  CD2       59.6200   27.0920  -19.3210 C.3    97  LEU97       0.0001
    115  N         57.5710   30.3030  -26.3650 N.3    99  THR99      -0.1218
    116  CA        56.3570   30.0140  -27.1160 C.3    99  THR99       0.1862
    117  C         56.2390   30.8700  -28.3920 C.2    99  THR99       0.2287
    118  O         56.8900   31.8990  -28.5000 O.2    99  THR99      -0.2866
    119  CB        55.0950   30.1650  -26.2200 C.3    99  THR99       0.1770
    120  OG1       53.9750   29.5320  -26.8660 O.3    99  THR99      -0.2211
    121  CG2       54.7230   31.6290  -25.9430 C.3    99  THR99       0.0375
    122  N         42.1430   21.2120  -22.4510 N.3   134  ILE134     -0.1245
    123  CA        42.5480   21.4980  -21.0680 C.3   134  ILE134      0.1561
    124  C         41.7560   20.6480  -20.0690 C.2   134  ILE134      0.2260
    125  O         42.2950   20.0100  -19.1790 O.2   134  ILE134     -0.2867
    126  CB        42.3630   23.0200  -20.6740 C.3   134  ILE134      0.0252
    127  CG1       43.2300   23.9700  -21.5480 C.3   134  ILE134      0.0019
    128  CG2       42.8120   23.2200  -19.2340 C.3   134  ILE134      0.0019
    129  CD1       44.6530   23.4540  -21.6660 C.3   134  ILE134      0.0001
    130  N         42.7470   19.6320  -15.8460 N.3   139  ILE139     -0.1231
    131  CA        43.3550   20.9020  -15.4270 C.3   139  ILE139      0.1692
    132  C         42.2650   21.9700  -15.4770 C.2   139  ILE139      0.2592
    133  O         41.4550   22.0050  -16.4370 O.2   139  ILE139     -0.2718
    134  CB        44.5190   21.2900  -16.3480 C.3   139  ILE139      0.0266
    135  CG1       45.6650   20.3040  -16.1960 C.3   139  ILE139      0.0019
    136  CG2       45.0590   22.7580  -16.0900 C.3   139  ILE139      0.0020
    137  CD1       46.4540   20.1800  -17.4510 C.3   139  ILE139      0.0001
    138  N         42.2500   22.8150  -14.4440 N.am  140  ILE140     -0.1966
    139  CA        41.3660   23.9340  -14.4010 C.3   140  ILE140      0.1727
    140  C         42.1630   25.2020  -14.6040 C.2   140  ILE140      0.2616
    141  O         43.2210   25.4150  -13.9610 O.2   140  ILE140     -0.2715
    142  CB        40.5350   23.9270  -13.1150 C.3   140  ILE140      0.0290
    143  CG1       39.7310   22.5970  -13.0870 C.3   140  ILE140      0.0022
    144  CG2       39.5150   25.0370  -13.1600 C.3   140  ILE140      0.0023
    145  CD1       39.1080   22.2510  -11.7440 C.3   140  ILE140      0.0001
    146  N         41.6930   26.0350  -15.5410 N.am  141  HIS141     -0.1959
    147  CA        42.3600   27.2990  -15.7540 C.3   141  HIS141      0.1787
    148  C         42.1750   28.1540  -14.5250 C.2   141  HIS141      0.2620
    149  O         43.1660   28.5260  -13.8980 O.2   141  HIS141     -0.2715
    150  CB        41.9140   28.0350  -17.0270 C.3   141  HIS141      0.0785
    151  CG        42.7800   29.2120  -17.3410 C.ar  141  HIS141      0.0821
    152  ND1       43.5780   29.2830  -18.4670 N.ar  141  HIS141     -0.2267
    153  CD2       43.0390   30.3310  -16.6270 C.ar  141  HIS141      0.1154
    154  CE1       44.2980   30.3920  -18.4200 C.ar  141  HIS141      0.1986
    155  NE2       43.9530   31.0640  -17.3370 N.ar  141  HIS141     -0.2212
    156  N         40.9150   28.4340  -14.1490 N.am  142  ARG142     -0.1977
    157  CA        40.6570   29.2100  -12.9340 C.3   142  ARG142      0.1597
    158  C         40.8600   30.7200  -13.1380 C.2   142  ARG142      0.2287
    159  O         40.4220   31.4750  -12.3300 O.2   142  ARG142     -0.2864
    160  CB        41.6100   28.7910  -11.7750 C.3   142  ARG142      0.0334
    161  CG        41.1790   27.6540  -10.8540 C.3   142  ARG142      0.0492
    162  CD        42.1640   27.5070   -9.6450 C.3   142  ARG142      0.2205
    163  NE        42.0730   26.1610   -9.0600 N.pl3 142  ARG142     -0.0865
    164  CZ        42.4800   25.0420   -9.6720 C.cat 142  ARG142      0.5346
    165  NH1       43.0460   25.0880  -10.8810 N.pl3 142  ARG142      0.1354
    166  NH2       42.3280   23.8710   -9.0890 N.pl3 142  ARG142      0.1354
    167  N         44.7320   29.7890  -25.6780 N.3   159  ILE159     -0.1231
    168  CA        44.5420   30.0470  -24.2620 C.3   159  ILE159      0.1692
    169  C         45.8700   29.9660  -23.5700 C.2   159  ILE159      0.2592
    170  O         46.6620   29.1330  -23.8850 O.2   159  ILE159     -0.2718
    171  CB        43.5990   29.0220  -23.5930 C.3   159  ILE159      0.0266
    172  CG1       42.2890   28.9370  -24.4010 C.3   159  ILE159      0.0019
    173  CG2       43.3990   29.4240  -22.0770 C.3   159  ILE159      0.0020
    174  CD1       41.3190   27.8510  -23.9480 C.3   159  ILE159      0.0001
    175  N         46.1270   30.8850  -22.6600 N.am  160  LEU160     -0.1966
    176  CA        47.3880   30.9120  -21.9510 C.3   160  LEU160      0.1728
    177  C         47.1380   31.4810  -20.5460 C.2   160  LEU160      0.2616
    178  O         46.0040   31.7720  -20.2290 O.2   160  LEU160     -0.2715
    179  CB        48.4480   31.6690  -22.7480 C.3   160  LEU160      0.0311
    180  CG        48.2460   33.0650  -23.3580 C.3   160  LEU160      0.0022
    181  CD1       48.2570   34.0400  -22.2880 C.3   160  LEU160      0.0001
    182  CD2       49.4370   33.3680  -24.2830 C.3   160  LEU160      0.0001
    183  N         48.1820   31.5710  -19.7190 N.am  161  ASP161     -0.1957
    184  CA        48.1330   32.2090  -18.4120 C.3   161  ASP161      0.1840
    185  C         49.3670   33.0940  -18.1780 C.2   161  ASP161      0.2622
    186  O         50.4170   32.5860  -17.8450 O.2   161  ASP161     -0.2715
    187  CB        47.9640   31.1500  -17.2850 C.3   161  ASP161      0.1450
    188  CG        47.5380   31.7740  -15.9490 C.2   161  ASP161      0.3671
    189  OD1       47.5780   33.0160  -15.7630 O.co2 161  ASP161     -0.2456
    190  OD2       47.2510   31.0200  -15.0340 O.co2 161  ASP161     -0.2456
    191  N         49.2290   34.4060  -18.3890 N.am  162  PHE162     -0.1960
    192  CA        50.2280   35.4510  -17.9790 C.3   162  PHE162      0.1771
    193  C         50.4300   35.6860  -16.4820 C.2   162  PHE162      0.2620
    194  O         51.2940   36.4920  -16.0780 O.2   162  PHE162     -0.2715
    195  CB        49.8580   36.8140  -18.5600 C.3   162  PHE162      0.0574
    196  CG        50.3920   37.0320  -19.9230 C.ar  162  PHE162     -0.0200
    197  CD1       51.7530   37.2480  -20.1130 C.ar  162  PHE162     -0.0042
    198  CD2       49.5300   36.9760  -21.0340 C.ar  162  PHE162     -0.0042
    199  CE1       52.2600   37.4480  -21.3980 C.ar  162  PHE162     -0.0003
    200  CE2       50.0150   37.1680  -22.3310 C.ar  162  PHE162     -0.0003
    201  CZ        51.3920   37.3910  -22.5200 C.ar  162  PHE162     -0.0000
    202  N         49.5810   35.0600  -15.6680 N.am  163  GLY163     -0.1954
    203  CA        49.7470   35.0400  -14.2080 C.3   163  GLY163      0.1869
    204  C         49.4230   36.3580  -13.5290 C.2   163  GLY163      0.2309
    205  O         48.8460   36.3720  -12.4330 O.2   163  GLY163     -0.2863
    206  N         51.2890   16.9420   -7.4430 N.3   308  GLU308     -0.1245
    207  CA        50.5460   18.0250   -6.7490 C.3   308  GLU308      0.1567
    208  C         50.2610   17.7710   -5.2500 C.2   308  GLU308      0.2260
    209  O         50.2730   18.6700   -4.4150 O.2   308  GLU308     -0.2867
    210  CB        49.2410   18.3010   -7.4860 C.3   308  GLU308      0.0388
    211  CG        49.4570   18.9630   -8.8660 C.3   308  GLU308      0.1160
    212  CD        49.6880   20.4520   -8.7700 C.2   308  GLU308      0.3649
    213  OE1       50.0880   20.9350   -7.6780 O.co2 308  GLU308     -0.2457
    214  OE2       49.4470   21.1520   -9.7860 O.co2 308  GLU308     -0.2457
@<TRIPOS>BOND
     1   118   117    2
     2   117   116    1
     3     8     9    1
     4    84    85    1
     5   102   101    2
     6    87    86    2
     7   116   115    1
     8   116   119    1
     9   101   100    1
    10   120   119    1
    11     9    12    1
    12     9    10    1
    13    86    85    1
    14    86    91   am
    15   119   121    1
    16    85    88    1
    17    99   100    1
    18    79    78    2
    19    19    17    1
    20   167   168    1
    21   100   103    1
    22    11    10    2
    23    10    13   am
    24    93    92    1
    25    93    94    1
    26    92    91    1
    27    92    95    1
    28    78    77    1
    29    88    90    1
    30    88    89    1
    31    13    14    1
    32    96    95    1
    33    96    98    1
    34   103   104    1
    35   172   174    1
    36   172   171    1
    37    95    97    1
    38   182   180    1
    39   168   171    1
    40   168   169    1
    41    17    14    1
    42    17    18    1
    43    14    15    1
    44   170   169    2
    45    77    80    1
    46    77    76    1
    47   171   173    1
    48   169   175   am
    49    80    81    1
    50   180   179    1
    51   180   181    1
    52   106   104    1
    53   104   105    1
    54    71    70    2
    55   179   176    1
    56   109   110    2
    57   109   108    1
    58   175   176    1
    59    15    16    2
    60    15    20   am
    61   201   200   ar
    62   201   199   ar
    63     6     5    1
    64   122   123    1
    65   200   198   ar
    66   176   177    1
    67    81    82    1
    68     3     4    2
    69     3     2    1
    70    20    21    1
    71    82    83    1
    72   129   127    1
    73   127   126    1
    74    70    69    1
    75   108   111    1
    76   108   107    1
    77   199   197   ar
    78   123   126    1
    79   123   124    1
    80     5     2    1
    81     5     7    1
    82   198   196   ar
    83    75    73    1
    84   111   112    1
    85     2     1    1
    86    69    72    1
    87    69    68    1
    88   126   128    1
    89    72    73    1
    90   177   178    2
    91   177   183   am
    92    74    73    1
    93    21    24    1
    94    21    22    1
    95    63    62    2
    96   197   196   ar
    97   124   125    2
    98   196   195    1
    99    24    25    1
   100   183   184    1
   101    23    22    2
   102    68    62   am
   103   114   112    1
   104   112   113    1
   105    62    61    1
   106   195   192    1
   107   152   154   ar
   108   152   151   ar
   109   154   155   ar
   110   184   185    1
   111   184   187    1
   112   191   185   am
   113   191   192    1
   114    25    26    1
   115    67    65    1
   116   185   186    2
   117   192   193    1
   118    26    27    1
   119    61    64    1
   120    61    60    1
   121   137   135    1
   122   151   150    1
   123   151   153   ar
   124   155   153   ar
   125   187   188    1
   126    54    53    2
   127    58    57   ar
   128    64    65    1
   129   150   147    1
   130    65    66    1
   131   193   194    2
   132   193   202   am
   133   133   132    2
   134    27    28    1
   135    56    57    1
   136    56    55    1
   137    57    59   ar
   138   134   135    1
   139   134   136    1
   140   134   131    1
   141    53    52    1
   142   188   189   ar
   143   188   190   ar
   144   130   131    1
   145   147   146    1
   146   147   148    1
   147   202   203    1
   148   146   140   am
   149   132   131    1
   150   132   138   am
   151    52    55    1
   152    52    51    1
   153    43    42    2
   154   140   139    1
   155   140   141    2
   156   148   156   am
   157   148   149    2
   158   138   139    1
   159   139   142    1
   160   203   204    1
   161   156   157    1
   162    51    42   am
   163    42    41    1
   164   204   205    2
   165   144   142    1
   166   158   157    1
   167   158   159    2
   168   142   143    1
   169   143   145    1
   170   157   160    1
   171    41    40    1
   172    41    44    1
   173    45    44    1
   174    45    46    1
   175   160   161    1
   176    32    31    2
   177   165   164    1
   178   161   162    1
   179    46    47    1
   180    31    30    1
   181   214   212   ar
   182    34    35    1
   183    34    33    1
   184   164   166    1
   185   164   163    2
   186   162   163    1
   187    47    48    2
   188    30    33    1
   189    30    29    1
   190    35    36    1
   191   211   212    1
   192   211   210    1
   193   212   213   ar
   194    48    49    1
   195    48    50    1
   196    36    37    2
   197   210   207    1
   198   206   207    1
   199    37    38    1
   200    37    39    1
   201   207   208    1
   202   208   209    2
