@<TRIPOS>MOLECULE
tmp/3p7hA00.pdb
 85 78 0 0 0
SMALL
GASTEIGER

@<TRIPOS>ATOM
      1  N          2.4860   29.8910  -40.8580 N.3    84  ILE84      -0.1245
      2  CA         1.3710   30.3340  -41.7160 C.3    84  ILE84       0.1561
      3  C          1.3330   31.8760  -41.6890 C.2    84  ILE84       0.2260
      4  O          1.5160   32.4770  -40.6370 O.2    84  ILE84      -0.2867
      5  CB         0.0150   29.7290  -41.2580 C.3    84  ILE84       0.0252
      6  CG1       -0.0670   28.2540  -41.6520 C.3    84  ILE84       0.0019
      7  CG2       -1.1860   30.5030  -41.8360 C.3    84  ILE84       0.0019
      8  CD1       -1.2540   27.5530  -41.0450 C.3    84  ILE84       0.0001
      9  N          0.7700   34.1880  -38.5260 N.3    87  GLU87      -0.1245
     10  CA         1.0620   33.4570  -37.2800 C.3    87  GLU87       0.1567
     11  C          2.5300   33.6450  -36.9540 C.2    87  GLU87       0.2260
     12  O          3.3200   33.9310  -37.8590 O.2    87  GLU87      -0.2867
     13  CB         0.7440   31.9640  -37.4080 C.3    87  GLU87       0.0388
     14  CG        -0.6050   31.6670  -38.0490 C.3    87  GLU87       0.1160
     15  CD        -1.7920   31.8250  -37.1080 C.2    87  GLU87       0.3649
     16  OE1       -1.6130   31.9330  -35.8710 O.co2  87  GLU87      -0.2457
     17  OE2       -2.9320   31.7890  -37.6060 O.co2  87  GLU87      -0.2457
     18  N         -0.0360   34.2970  -33.8130 N.3    89  ASN89      -0.1240
     19  CA        -0.8980   35.4380  -33.4850 C.3    89  ASN89       0.1653
     20  C         -1.4430   35.4580  -32.0500 C.2    89  ASN89       0.2266
     21  O         -2.1810   36.3740  -31.6770 O.2    89  ASN89      -0.2867
     22  CB        -2.0440   35.5890  -34.5110 C.3    89  ASN89       0.1155
     23  CG        -3.0560   34.4370  -34.4550 C.2    89  ASN89       0.2627
     24  OD1       -2.8750   33.4590  -33.7240 O.2    89  ASN89      -0.2716
     25  ND2       -4.1360   34.5660  -35.2260 N.am   89  ASN89      -0.0877
     26  N         -3.8430   33.8710  -30.3930 N.3    91  ALA91      -0.1245
     27  CA        -5.2880   34.1010  -30.3250 C.3    91  ALA91       0.1562
     28  C         -5.7700   33.9300  -28.8910 C.2    91  ALA91       0.2260
     29  O         -5.4530   32.9300  -28.2360 O.2    91  ALA91      -0.2867
     30  CB        -6.0370   33.1660  -31.2600 C.3    91  ALA91       0.0290
     31  N         -2.1460   30.9580  -26.6860 N.3    95  GLU95      -0.1245
     32  CA        -1.5970   30.0240  -27.6770 C.3    95  GLU95       0.1567
     33  C         -0.0750   29.8730  -27.5330 C.2    95  GLU95       0.2260
     34  O          0.6960   30.6300  -28.1330 O.2    95  GLU95      -0.2867
     35  CB        -1.9830   30.4590  -29.0990 C.3    95  GLU95       0.0388
     36  CG        -3.4760   30.6180  -29.3160 C.3    95  GLU95       0.1160
     37  CD        -3.8860   30.5170  -30.7750 C.2    95  GLU95       0.3649
     38  OE1       -3.3190   31.2400  -31.6370 O.co2  95  GLU95      -0.2457
     39  OE2       -4.8000   29.7160  -31.0530 O.co2  95  GLU95      -0.2457
     40  N         -0.0260   22.5330  -39.5430 N.3   101  LYS101     -0.1245
     41  CA        -1.4310   22.7280  -39.8500 C.3   101  LYS101      0.1561
     42  C         -1.6630   22.7170  -41.3630 C.2   101  LYS101      0.2260
     43  O         -2.3270   21.8250  -41.8720 O.2   101  LYS101     -0.2867
     44  CB        -1.9280   24.0310  -39.1970 C.3   101  LYS101      0.0271
     45  CG        -3.3880   24.3620  -39.4670 C.3   101  LYS101      0.0035
     46  CD        -3.8540   25.6420  -38.7560 C.3   101  LYS101      0.0206
     47  CE        -5.0790   26.2480  -39.4580 C.3   101  LYS101      0.1093
     48  NZ        -5.6930   27.4520  -38.7980 N.3   101  LYS101     -0.1314
     49  N          1.1090   26.8660  -37.0370 N.3   109  ASN109     -0.1225
     50  CA         0.1940   27.7350  -36.3090 C.3   109  ASN109      0.1785
     51  C          0.5190   27.5610  -34.8400 C.2   109  ASN109      0.2597
     52  O          0.9330   26.4730  -34.4340 O.2   109  ASN109     -0.2718
     53  CB        -1.2610   27.3070  -36.5590 C.3   109  ASN109      0.1169
     54  CG        -2.2620   28.0600  -35.6720 C.2   109  ASN109      0.2627
     55  OD1       -2.1690   29.2690  -35.5190 O.2   109  ASN109     -0.2716
     56  ND2       -3.2250   27.3420  -35.1030 N.am  109  ASN109     -0.0877
     57  N          0.3410   28.6190  -34.0470 N.am  110  ASP110     -0.1960
     58  CA         0.3470   28.4680  -32.5970 C.3   110  ASP110      0.1840
     59  C         -1.0900   28.2220  -32.1370 C.2   110  ASP110      0.2622
     60  O         -2.0230   28.8000  -32.6870 O.2   110  ASP110     -0.2715
     61  CB         0.9510   29.6930  -31.8990 C.3   110  ASP110      0.1450
     62  CG         0.2370   30.9900  -32.2590 C.2   110  ASP110      0.3671
     63  OD1       -0.1760   31.1590  -33.4340 O.co2 110  ASP110     -0.2456
     64  OD2        0.1110   31.8540  -31.3720 O.co2 110  ASP110     -0.2456
     65  N         -1.2640   27.3580  -31.1380 N.am  111  ALA111     -0.1964
     66  CA        -2.5940   26.9450  -30.6900 C.3   111  ALA111      0.1713
     67  C         -2.5370   26.7100  -29.1920 C.2   111  ALA111      0.2458
     68  O         -1.4440   26.6150  -28.6530 O.2   111  ALA111     -0.2730
     69  CB        -3.0190   25.6870  -31.4240 C.3   111  ALA111      0.0333
     70  N         -3.6960   26.6290  -28.5040 N.am  112  PRO112     -0.2727
     71  CA        -3.6670   26.3820  -27.0530 C.3   112  PRO112      0.1402
     72  C         -3.1600   24.9790  -26.6910 C.2   112  PRO112      0.2269
     73  O         -3.6230   23.9880  -27.2600 O.2   112  PRO112     -0.2865
     74  CB        -5.1340   26.5590  -26.6290 C.3   112  PRO112      0.0296
     75  CG        -5.7990   27.2590  -27.7740 C.3   112  PRO112      0.0237
     76  CD        -5.0770   26.7570  -28.9940 C.3   112  PRO112      0.0939
     77  N         -5.3220   21.8070  -26.2430 N.3   115  LYS115     -0.1245
     78  CA        -6.1490   21.2190  -27.3130 C.3   115  LYS115      0.1561
     79  C         -5.5650   19.8830  -27.6950 C.2   115  LYS115      0.2260
     80  O         -4.3560   19.6750  -27.5750 O.2   115  LYS115     -0.2867
     81  CB        -6.2720   22.1270  -28.5410 C.3   115  LYS115      0.0271
     82  CG        -7.2900   23.2680  -28.3540 C.3   115  LYS115      0.0035
     83  CD        -8.1730   23.4470  -29.5780 C.3   115  LYS115      0.0206
     84  CE        -9.5240   24.1070  -29.2070 C.3   115  LYS115      0.1093
     85  NZ        -9.4080   25.4830  -28.5910 N.3   115  LYS115     -0.1314
@<TRIPOS>BOND
     1    43    42    2
     2     7     5    1
     3     2     3    1
     4     2     5    1
     5     2     1    1
     6     3     4    2
     7     6     5    1
     8     6     8    1
     9    42    41    1
    10    41    40    1
    11    41    44    1
    12    45    44    1
    13    45    46    1
    14    47    48    1
    15    47    46    1
    16     9    10    1
    17    14    13    1
    18    14    15    1
    19    12    11    2
    20    17    15   ar
    21    13    10    1
    22    10    11    1
    23    15    16   ar
    24    49    50    1
    25    53    50    1
    26    53    54    1
    27    50    51    1
    28    54    55    2
    29    54    56   am
    30    25    23   am
    31    51    52    2
    32    51    57   am
    33    22    23    1
    34    22    19    1
    35    23    24    2
    36    57    58    1
    37    18    19    1
    38    19    20    1
    39    63    62   ar
    40    60    59    2
    41    58    59    1
    42    58    61    1
    43    62    61    1
    44    62    64   ar
    45    59    65   am
    46    20    21    2
    47    38    37   ar
    48    69    66    1
    49    30    27    1
    50    65    66    1
    51    39    37   ar
    52    37    36    1
    53    66    67    1
    54    26    27    1
    55    27    28    1
    56    83    84    1
    57    83    82    1
    58    36    35    1
    59    84    85    1
    60    67    68    2
    61    67    70   am
    62    35    32    1
    63    76    70    1
    64    76    75    1
    65    28    29    2
    66    81    82    1
    67    81    78    1
    68    70    71    1
    69    34    33    2
    70    75    74    1
    71    79    80    2
    72    79    78    1
    73    32    33    1
    74    32    31    1
    75    78    77    1
    76    73    72    2
    77    71    72    1
    78    71    74    1
