@<TRIPOS>MOLECULE
tmp/3p7iA00.pdb
 127 121 0 0 0
SMALL
GASTEIGER

@<TRIPOS>ATOM
      1  N          2.5280  -24.8870   17.5350 N.3     8  ILE8       -0.1245
      2  CA         1.0990  -25.2560   17.8100 C.3     8  ILE8        0.1561
      3  C          0.7730  -26.6340   17.2370 C.2     8  ILE8        0.2260
      4  O          1.3280  -27.0700   16.2060 O.2     8  ILE8       -0.2867
      5  CB         0.1080  -24.1810   17.3230 C.3     8  ILE8        0.0252
      6  CG1        0.3820  -23.7830   15.8380 C.3     8  ILE8        0.0019
      7  CG2        0.1660  -23.0250   18.3320 C.3     8  ILE8        0.0019
      8  CD1       -0.8810  -23.0880   15.1710 C.3     8  ILE8        0.0001
      9  N         -1.1700  -28.3530   15.3740 N.3    10  THR10      -0.1218
     10  CA        -2.0410  -28.5630   14.1860 C.3    10  THR10       0.1862
     11  C         -2.0220  -30.0690   13.7770 C.2    10  THR10       0.2287
     12  O         -2.9670  -30.5500   13.1370 O.2    10  THR10      -0.2866
     13  CB        -1.4880  -27.7810   12.9810 C.3    10  THR10       0.1770
     14  OG1       -0.0770  -28.0470   12.8940 O.3    10  THR10      -0.2211
     15  CG2       -1.5820  -26.2610   13.2830 C.3    10  THR10       0.0375
     16  N         -3.2590  -25.5470   21.8520 N.3    43  TYR43      -0.1241
     17  CA        -2.6260  -24.2300   21.6360 C.3    43  TYR43       0.1605
     18  C         -2.3550  -23.4350   22.9240 C.2    43  TYR43       0.2264
     19  O         -1.2740  -22.8060   23.0290 O.2    43  TYR43      -0.2867
     20  CB        -3.4040  -23.3410   20.6190 C.3    43  TYR43       0.0534
     21  CG        -3.5780  -23.8840   19.2240 C.ar   43  TYR43      -0.0201
     22  CD1       -3.2260  -25.1840   18.8590 C.ar   43  TYR43      -0.0009
     23  CD2       -4.1440  -23.0610   18.2790 C.ar   43  TYR43      -0.0009
     24  CE1       -3.3780  -25.6630   17.5170 C.ar   43  TYR43       0.0417
     25  CE2       -4.3330  -23.4890   16.9480 C.ar   43  TYR43       0.0417
     26  CZ        -3.9980  -24.8140   16.6010 C.ar   43  TYR43       0.1957
     27  OH        -4.2480  -25.1520   15.2860 O.3    43  TYR43      -0.2866
     28  N          5.4710  -20.2680   16.4730 N.3    59  TRP59      -0.1241
     29  CA         4.5160  -20.2210   15.3520 C.3    59  TRP59       0.1605
     30  C          3.1190  -20.4090   15.9100 C.2    59  TRP59       0.2264
     31  O          2.8470  -21.4730   16.5100 O.2    59  TRP59      -0.2867
     32  CB         4.8930  -21.3310   14.3810 C.3    59  TRP59       0.0550
     33  CG         3.8250  -21.6830   13.3420 C.ar   59  TRP59       0.0003
     34  CD1        3.2450  -20.8430   12.5030 C.ar   59  TRP59       0.0946
     35  CD2        3.2380  -22.9680   13.1270 C.ar   59  TRP59       0.0152
     36  NE1        2.3200  -21.4960   11.6940 N.ar   59  TRP59      -0.2442
     37  CE2        2.3220  -22.8330   12.0500 C.ar   59  TRP59       0.0810
     38  CE3        3.4140  -24.2230   13.7210 C.ar   59  TRP59       0.0012
     39  CZ2        1.5860  -23.8960   11.5490 C.ar   59  TRP59       0.0191
     40  CZ3        2.7280  -25.3060   13.1780 C.ar   59  TRP59       0.0001
     41  CH2        1.7390  -25.1160   12.1590 C.ar   59  TRP59       0.0015
     42  N         -1.3600  -19.5210   15.3270 N.3    61  GLY61      -0.1225
     43  CA        -2.3510  -19.0320   14.3610 C.3    61  GLY61       0.1811
     44  C         -2.7290  -17.6230   14.7660 C.2    61  GLY61       0.2280
     45  O         -2.2400  -17.1120   15.7710 O.2    61  GLY61      -0.2866
     46  N         -5.2790  -18.6460    4.0490 N.3    89  TYR89      -0.1241
     47  CA        -5.8170  -20.0350    3.9900 C.3    89  TYR89       0.1605
     48  C         -7.2740  -19.9110    4.4320 C.2    89  TYR89       0.2264
     49  O         -7.7420  -18.8040    4.7370 O.2    89  TYR89      -0.2867
     50  CB        -4.9990  -21.0210    4.8910 C.3    89  TYR89       0.0534
     51  CG        -5.1640  -20.7530    6.3650 C.ar   89  TYR89      -0.0201
     52  CD1       -4.6650  -19.5990    6.9450 C.ar   89  TYR89      -0.0009
     53  CD2       -5.8310  -21.6770    7.1580 C.ar   89  TYR89      -0.0009
     54  CE1       -4.7990  -19.3660    8.2350 C.ar   89  TYR89       0.0417
     55  CE2       -6.0380  -21.4630    8.5160 C.ar   89  TYR89       0.0417
     56  CZ        -5.5250  -20.2570    9.0460 C.ar   89  TYR89       0.1957
     57  OH        -5.6950  -19.9710   10.3330 O.3    89  TYR89      -0.2866
     58  N         -8.6020  -22.3420   20.9830 N.3   122  ASN122     -0.1225
     59  CA        -7.7500  -21.2460   20.5670 C.3   122  ASN122      0.1785
     60  C         -7.3450  -21.2450   19.0930 C.2   122  ASN122      0.2598
     61  O         -6.4610  -20.5490   18.7380 O.2   122  ASN122     -0.2718
     62  CB        -6.5240  -21.1190   21.5000 C.3   122  ASN122      0.1169
     63  CG        -6.9090  -20.7600   22.9400 C.2   122  ASN122      0.2627
     64  OD1       -6.8420  -21.5600   23.8270 O.2   122  ASN122     -0.2716
     65  ND2       -7.3580  -19.5770   23.1220 N.am  122  ASN122     -0.0877
     66  N         -8.0230  -22.0380   18.2650 N.am  123  SER123     -0.1938
     67  CA        -7.7290  -22.1200   16.8400 C.3   123  SER123      0.2055
     68  C         -8.6170  -21.1660   16.0530 C.2   123  SER123      0.2644
     69  O         -9.8460  -21.1390   16.2060 O.2   123  SER123     -0.2714
     70  CB        -8.0270  -23.5950   16.3200 C.3   123  SER123      0.2130
     71  OG        -7.9410  -23.5340   14.8880 O.3   123  SER123     -0.2179
     72  N         -7.9610  -20.4300   15.1470 N.am  124  THR124     -0.1936
     73  CA        -8.6480  -19.4570   14.2700 C.3   124  THR124      0.2028
     74  C         -9.6220  -20.2390   13.3680 C.2   124  THR124      0.2642
     75  O        -10.8670  -19.9650   13.3150 O.2   124  THR124     -0.2714
     76  CB        -7.6110  -18.7440   13.3840 C.3   124  THR124      0.1808
     77  OG1       -6.4440  -18.4350   14.1460 O.3   124  THR124     -0.2208
     78  CG2       -8.2700  -17.4080   12.8700 C.3   124  THR124      0.0379
     79  N         -9.0550  -21.1500   12.5920 N.am  125  SER125     -0.1949
     80  CA        -9.8830  -21.9210   11.5770 C.3   125  SER125      0.1924
     81  C        -10.6970  -23.0630   12.2420 C.2   125  SER125      0.2314
     82  O        -11.7790  -23.4430   11.7470 O.2   125  SER125     -0.2863
     83  CB        -8.9670  -22.5230   10.5260 C.3   125  SER125      0.2116
     84  OG        -7.9750  -23.4420   11.0650 O.3   125  SER125     -0.2180
     85  N         -6.6520  -30.1390   14.3730 N.3   153  HIS153     -0.1241
     86  CA        -7.0850  -30.3150   12.9640 C.3   153  HIS153      0.1621
     87  C         -6.7920  -31.7640   12.5170 C.2   153  HIS153      0.2264
     88  O         -7.5980  -32.3740   11.8460 O.2   153  HIS153     -0.2867
     89  CB        -6.3160  -29.3850   12.0390 C.3   153  HIS153      0.0745
     90  CG        -6.5960  -27.9410   12.3310 C.ar  153  HIS153      0.0817
     91  ND1       -7.9000  -27.4610   12.3590 N.ar  153  HIS153     -0.2268
     92  CD2       -5.7920  -26.9160   12.6700 C.ar  153  HIS153      0.1154
     93  CE1       -7.8650  -26.1700   12.6540 C.ar  153  HIS153      0.1986
     94  NE2       -6.6010  -25.8220   12.8510 N.ar  153  HIS153     -0.2212
     95  N         -9.0700  -27.0180    8.1170 N.3   171  ASN171     -0.1240
     96  CA        -8.6430  -25.9050    7.2570 C.3   171  ASN171      0.1653
     97  C         -7.8990  -26.4040    6.0390 C.2   171  ASN171      0.2266
     98  O         -7.5370  -27.5870    5.9850 O.2   171  ASN171     -0.2867
     99  CB        -7.7960  -24.8730    8.0820 C.3   171  ASN171      0.1155
    100  CG        -6.4290  -25.3730    8.4650 C.2   171  ASN171      0.2627
    101  OD1       -5.6110  -25.6340    7.5920 O.2   171  ASN171     -0.2716
    102  ND2       -6.2140  -25.6480    9.7320 N.am  171  ASN171     -0.0877
    103  N         -4.9850  -25.7160    4.8650 N.3   173  GLU173     -0.1231
    104  CA        -3.5540  -26.0980    5.0220 C.3   173  GLU173      0.1699
    105  C         -3.4540  -27.5750    5.4100 C.2   173  GLU173      0.2592
    106  O         -2.6990  -28.3280    4.7880 O.2   173  GLU173     -0.2718
    107  CB        -2.9010  -25.2700    6.0620 C.3   173  GLU173      0.0402
    108  CG        -2.8080  -23.8230    5.6790 C.3   173  GLU173      0.1161
    109  CD        -2.1910  -22.9910    6.7600 C.2   173  GLU173      0.3649
    110  OE1       -2.3210  -23.3530    7.9610 O.co2 173  GLU173     -0.2457
    111  OE2       -1.5550  -21.9900    6.3940 O.co2 173  GLU173     -0.2457
    112  N         -4.0860  -27.8280    6.5650 N.am  174  ASN174     -0.1974
    113  CA        -4.1880  -29.1430    7.2150 C.3   174  ASN174      0.1688
    114  C         -4.7080  -30.1870    6.2690 C.2   174  ASN174      0.2292
    115  O         -4.2810  -31.3640    6.3300 O.2   174  ASN174     -0.2864
    116  CB        -5.0470  -29.0680    8.4850 C.3   174  ASN174      0.1181
    117  CG        -4.2090  -28.7730    9.7450 C.2   174  ASN174      0.2629
    118  OD1       -4.2090  -27.6600   10.2390 O.2   174  ASN174     -0.2716
    119  ND2       -3.4730  -29.7850   10.2430 N.am  174  ASN174     -0.0877
    120  N         -0.4650  -17.2780    9.0250 N.3   201  ASP201     -0.1239
    121  CA        -0.0870  -17.3410   10.4510 C.3   201  ASP201      0.1674
    122  C          1.1420  -16.5340   10.7820 C.2   201  ASP201      0.2266
    123  O          2.0840  -16.4100    9.9440 O.2   201  ASP201     -0.2867
    124  CB         0.3410  -18.7850   10.7450 C.3   201  ASP201      0.1410
    125  CG        -0.7780  -19.7900   10.5390 C.2   201  ASP201      0.3668
    126  OD1       -1.9740  -19.4880   10.7670 O.co2 201  ASP201     -0.2456
    127  OD2       -0.4120  -20.9550   10.3010 O.co2 201  ASP201     -0.2456
@<TRIPOS>BOND
     1    47    46    1
     2    47    48    1
     3    47    50    1
     4    48    49    2
     5   106   105    2
     6   103   104    1
     7    50    51    1
     8   104   105    1
     9   104   107    1
    10   105   112   am
    11   108   107    1
    12   108   109    1
    13    98    97    2
    14    97    96    1
    15   114   115    2
    16   114   113    1
    17    51    52   ar
    18    51    53   ar
    19   111   109   ar
    20   112   113    1
    21   109   110   ar
    22    52    54   ar
    23    53    55   ar
    24   113   116    1
    25    96    99    1
    26    96    95    1
    27   101   100    2
    28    99   100    1
    29    54    56   ar
    30   100   102   am
    31   116   117    1
    32    55    56   ar
    33   120   121    1
    34    56    57    1
    35   117   118    2
    36   117   119   am
    37   123   122    2
    38   127   125   ar
    39   121   124    1
    40   121   122    1
    41    83    84    1
    42    83    80    1
    43   125   124    1
    44   125   126   ar
    45    39    37   ar
    46    39    41   ar
    47    80    81    1
    48    80    79    1
    49    36    37   ar
    50    36    34   ar
    51    82    81    2
    52    88    87    2
    53    89    90    1
    54    89    86    1
    55    37    35   ar
    56    41    40   ar
    57    90    91   ar
    58    90    92   ar
    59    91    93   ar
    60    34    33   ar
    61    87    86    1
    62    79    74   am
    63    93    94   ar
    64    92    94   ar
    65    78    76    1
    66    14    13    1
    67    86    85    1
    68    13    15    1
    69    13    10    1
    70    35    33   ar
    71    35    38   ar
    72    12    11    2
    73    40    38   ar
    74    75    74    2
    75    33    32    1
    76    74    73    1
    77    76    77    1
    78    76    73    1
    79    11    10    1
    80    10     9    1
    81    73    72    1
    82    43    44    1
    83    43    42    1
    84    32    29    1
    85    44    45    2
    86    71    70    1
    87    72    68   am
    88     8     6    1
    89    27    26    1
    90    29    30    1
    91    29    28    1
    92     6     5    1
    93    30    31    2
    94    68    69    2
    95    68    67    1
    96     4     3    2
    97    70    67    1
    98    26    25   ar
    99    26    24   ar
   100    67    66    1
   101    25    23   ar
   102     3     2    1
   103     5     2    1
   104     5     7    1
   105    24    22   ar
   106     1     2    1
   107    66    60   am
   108    23    21   ar
   109    61    60    2
   110    22    21   ar
   111    60    59    1
   112    21    20    1
   113    59    58    1
   114    59    62    1
   115    20    17    1
   116    62    63    1
   117    17    16    1
   118    17    18    1
   119    18    19    2
   120    63    65   am
   121    63    64    2
