@<TRIPOS>MOLECULE
tmp/3p7nA00.pdb
 177 161 0 0 0
SMALL
GASTEIGER

@<TRIPOS>ATOM
      1  N          7.2080  -10.6710   28.8670 N.3    17  VAL17      -0.1245
      2  CA         5.7870  -10.4720   29.0950 C.3    17  VAL17       0.1561
      3  C          5.0760  -11.8130   29.0250 C.2    17  VAL17       0.2260
      4  O          5.6260  -12.7870   28.5130 O.2    17  VAL17      -0.2867
      5  CB         5.1830   -9.5580   28.0200 C.3    17  VAL17       0.0252
      6  CG1        5.8510   -8.1930   28.0460 C.3    17  VAL17       0.0019
      7  CG2        5.3270  -10.2010   26.6470 C.3    17  VAL17       0.0019
      8  N          1.0770  -13.4270   28.0410 N.3    19  SER19      -0.1217
      9  CA        -0.2960  -13.2150   27.6070 C.3    19  SER19       0.1889
     10  C         -1.1520  -14.4390   27.9120 C.2    19  SER19       0.2288
     11  O         -0.6360  -15.5050   28.2520 O.2    19  SER19      -0.2866
     12  CB        -0.3520  -12.8840   26.1140 C.3    19  SER19       0.2089
     13  OG        -0.1390  -14.0400   25.3240 O.3    19  SER19      -0.2183
     14  N         -5.9540  -12.1630   23.2250 N.3    26  ASN26      -0.1240
     15  CA        -4.7060  -12.6390   23.8180 C.3    26  ASN26       0.1653
     16  C         -3.8390  -11.5150   24.3940 C.2    26  ASN26       0.2266
     17  O         -2.6810  -11.3590   24.0060 O.2    26  ASN26      -0.2867
     18  CB        -3.9130  -13.4390   22.7780 C.3    26  ASN26       0.1155
     19  CG        -2.7430  -14.1910   23.3820 C.2    26  ASN26       0.2627
     20  OD1       -2.7260  -14.4800   24.5790 O.2    26  ASN26      -0.2716
     21  ND2       -1.7580  -14.5170   22.5520 N.am   26  ASN26      -0.0877
     22  N         -1.7620   -9.0940   27.2960 N.3    28  LEU28      -0.1245
     23  CA        -0.7540   -9.3790   28.3090 C.3    28  LEU28       0.1561
     24  C         -1.4020   -9.3710   29.6880 C.2    28  LEU28       0.2260
     25  O         -2.3360   -8.6100   29.9360 O.2    28  LEU28      -0.2867
     26  CB         0.3710   -8.3420   28.2610 C.3    28  LEU28       0.0270
     27  CG         0.9120   -7.9620   26.8820 C.3    28  LEU28       0.0019
     28  CD1        2.0320   -6.9370   27.0080 C.3    28  LEU28       0.0001
     29  CD2        1.3860   -9.1940   26.1280 C.3    28  LEU28       0.0001
     30  N         -3.2820   -6.2380   24.0160 N.3    50  ASN50      -0.1225
     31  CA        -2.4930   -7.0580   23.1070 C.3    50  ASN50       0.1785
     32  C         -1.1650   -6.3670   22.8280 C.2    50  ASN50       0.2597
     33  O         -1.1200   -5.1510   22.6380 O.2    50  ASN50      -0.2718
     34  CB        -3.2520   -7.3150   21.8040 C.3    50  ASN50       0.1169
     35  CG        -2.5240   -8.2790   20.8880 C.2    50  ASN50       0.2627
     36  OD1       -1.5110   -7.9310   20.2850 O.2    50  ASN50      -0.2716
     37  ND2       -3.0410   -9.4970   20.7760 N.am   50  ASN50      -0.0877
     38  N         -0.0860   -7.1420   22.8040 N.am   51  CYS51      -0.1956
     39  CA         1.2600   -6.5840   22.7210 C.3    51  CYS51       0.1843
     40  C          1.5440   -5.8730   21.3980 C.2    51  CYS51       0.2625
     41  O          2.6760   -5.4640   21.1410 O.2    51  CYS51      -0.2714
     42  CB         2.3040   -7.6770   22.9630 C.3    51  CYS51       0.0997
     43  SG         3.9190   -7.0640   23.4940 S.3    51  CYS51      -0.0797
     44  N          0.5210   -5.7210   20.5650 N.am   52  ARG52      -0.1977
     45  CA         0.6980   -5.0750   19.2690 C.3    52  ARG52       0.1597
     46  C          0.8810   -3.5660   19.4030 C.2    52  ARG52       0.2287
     47  O          1.1020   -2.8730   18.4110 O.2    52  ARG52      -0.2864
     48  CB        -0.4800   -5.3760   18.3380 C.3    52  ARG52       0.0334
     49  CG        -1.7450   -4.5920   18.6520 C.3    52  ARG52       0.0492
     50  CD        -2.7930   -4.7900   17.5680 C.3    52  ARG52       0.2205
     51  NE        -3.1040   -6.2010   17.3650 N.pl3  52  ARG52      -0.0865
     52  CZ        -4.0120   -6.8720   18.0660 C.cat  52  ARG52       0.5346
     53  NH1       -4.6990   -6.2600   19.0200 N.pl3  52  ARG52       0.1354
     54  NH2       -4.2300   -8.1560   17.8150 N.pl3  52  ARG52       0.1354
     55  N          3.2650   -2.1620   20.4370 N.3    54  LEU54      -0.1231
     56  CA         4.6560   -1.8840   20.1100 C.3    54  LEU54       0.1693
     57  C          4.8230   -1.7780   18.5990 C.2    54  LEU54       0.2591
     58  O          5.8720   -1.3680   18.1040 O.2    54  LEU54      -0.2718
     59  CB         5.5690   -2.9790   20.6640 C.3    54  LEU54       0.0284
     60  CG         5.6670   -3.1020   22.1850 C.3    54  LEU54       0.0019
     61  CD1        6.5120   -4.3100   22.5630 C.3    54  LEU54       0.0001
     62  CD2        6.2390   -1.8280   22.7890 C.3    54  LEU54       0.0001
     63  N          3.7760   -2.1540   17.8720 N.am   55  ALA55      -0.1980
     64  CA         3.7900   -2.0870   16.4180 C.3    55  ALA55       0.1597
     65  C          3.4700   -0.6760   15.9330 C.2    55  ALA55       0.2287
     66  O          2.7330    0.0640   16.5860 O.2    55  ALA55      -0.2864
     67  CB         2.8060   -3.0850   15.8340 C.3    55  ALA55       0.0319
     68  N          6.5320   -1.2910   10.8820 N.3    59  THR59      -0.1218
     69  CA         6.5170   -2.6910   11.2900 C.3    59  THR59       0.1862
     70  C          6.2100   -3.6110   10.1120 C.2    59  THR59       0.2287
     71  O          5.1000   -3.6040    9.5790 O.2    59  THR59      -0.2866
     72  CB         5.4960   -2.9400   12.4150 C.3    59  THR59       0.1770
     73  OG1        5.8030   -2.1000   13.5350 O.3    59  THR59      -0.2211
     74  CG2        5.5280   -4.3990   12.8540 C.3    59  THR59       0.0375
     75  N          5.3420   -9.7140   11.7240 N.3    64  THR64      -0.1218
     76  CA         4.1530   -9.7430   12.5660 C.3    64  THR64       0.1862
     77  C          3.3910  -11.0410   12.3330 C.2    64  THR64       0.2287
     78  O          2.7980  -11.6150   13.2600 O.2    64  THR64      -0.2866
     79  CB         3.1750   -8.6150   12.1950 C.3    64  THR64       0.1770
     80  OG1        3.7170   -7.3410   12.5520 O.3    64  THR64      -0.2211
     81  CG2        1.8380   -8.8030   12.9050 C.3    64  THR64       0.0375
     82  N          4.7080  -14.3400   13.6680 N.3    67  ILE67      -0.1231
     83  CA         4.4220  -14.3310   15.1000 C.3    67  ILE67       0.1692
     84  C          3.0190  -14.8740   15.3510 C.2    67  ILE67       0.2591
     85  O          2.8270  -15.7420   16.2010 O.2    67  ILE67      -0.2718
     86  CB         4.5320  -12.9210   15.7260 C.3    67  ILE67       0.0266
     87  CG1        5.9730  -12.4120   15.6750 C.3    67  ILE67       0.0019
     88  CG2        4.0490  -12.9480   17.1700 C.3    67  ILE67       0.0020
     89  CD1        6.1390  -11.0030   16.2140 C.3    67  ILE67       0.0001
     90  N          2.0400  -14.3650   14.6050 N.am   68  ARG68      -0.1980
     91  CA         0.6620  -14.8250   14.7550 C.3    68  ARG68       0.1597
     92  C          0.5410  -16.2920   14.3500 C.2    68  ARG68       0.2287
     93  O         -0.2780  -17.0360   14.8920 O.2    68  ARG68      -0.2864
     94  CB        -0.3150  -13.9490   13.9550 C.3    68  ARG68       0.0334
     95  CG        -0.4320  -14.2780   12.4700 C.3    68  ARG68       0.0492
     96  CD        -1.6860  -13.6430   11.8730 C.3    68  ARG68       0.2205
     97  NE        -1.7380  -12.2040   12.1130 N.pl3  68  ARG68      -0.0865
     98  CZ        -1.2620  -11.2900   11.2740 C.cat  68  ARG68       0.5346
     99  NH1       -0.6990  -11.6640   10.1330 N.pl3  68  ARG68       0.1354
    100  NH2       -1.3480  -10.0010   11.5720 N.pl3  68  ARG68       0.1354
    101  N          1.8820  -18.3070   17.1760 N.3    71  VAL71      -0.1245
    102  CA         0.9010  -18.2460   18.2550 C.3    71  VAL71       0.1561
    103  C         -0.2550  -19.2200   18.0350 C.2    71  VAL71       0.2260
    104  O         -0.6980  -19.8860   18.9710 O.2    71  VAL71      -0.2867
    105  CB         0.3330  -16.8190   18.4300 C.3    71  VAL71       0.0252
    106  CG1       -1.0550  -16.8670   19.0570 C.3    71  VAL71       0.0019
    107  CG2        1.2800  -15.9630   19.2620 C.3    71  VAL71       0.0019
    108  N         11.9510   -7.6390   14.4320 N.3    81  ILE81      -0.1245
    109  CA        10.8810   -6.8220   13.8850 C.3    81  ILE81       0.1561
    110  C         11.0820   -5.3680   14.3010 C.2    81  ILE81       0.2260
    111  O         11.6910   -5.0930   15.3340 O.2    81  ILE81      -0.2867
    112  CB         9.5250   -7.3330   14.4210 C.3    81  ILE81       0.0252
    113  CG1        8.3650   -6.9300   13.5110 C.3    81  ILE81       0.0019
    114  CG2        9.3000   -6.8660   15.8540 C.3    81  ILE81       0.0019
    115  CD1        7.0330   -7.4950   13.9710 C.3    81  ILE81       0.0001
    116  N          9.8790   -2.2390   15.9850 N.3    83  ASN83      -0.1240
    117  CA         8.8900   -1.7650   16.9450 C.3    83  ASN83       0.1653
    118  C          9.1190   -0.3110   17.3350 C.2    83  ASN83       0.2266
    119  O         10.0490    0.3320   16.8530 O.2    83  ASN83      -0.2867
    120  CB         8.8760   -2.6460   18.1960 C.3    83  ASN83       0.1155
    121  CG         8.2310   -3.9930   17.9510 C.2    83  ASN83       0.2627
    122  OD1        8.3090   -4.8930   18.7860 O.2    83  ASN83      -0.2716
    123  ND2        7.5930   -4.1400   16.7970 N.am   83  ASN83      -0.0877
    124  N         13.5560   -4.8640   17.3510 N.3    93  ASN93      -0.1240
    125  CA        13.2130   -5.7370   18.4590 C.3    93  ASN93       0.1653
    126  C         13.3870   -7.2030   18.0930 C.2    93  ASN93       0.2266
    127  O         12.6450   -7.7370   17.2680 O.2    93  ASN93      -0.2867
    128  CB        11.7700   -5.4650   18.8950 C.3    93  ASN93       0.1155
    129  CG        11.3750   -6.2300   20.1420 C.2    93  ASN93       0.2627
    130  OD1       12.2100   -6.8580   20.7940 O.2    93  ASN93      -0.2716
    131  ND2       10.0940   -6.1730   20.4870 N.am   93  ASN93      -0.0877
    132  N         12.3570  -10.2100   19.0250 N.3    95  VAL95      -0.1245
    133  CA        11.2570  -10.6510   19.8690 C.3    95  VAL95       0.1561
    134  C         11.0410  -12.1580   19.7970 C.2    95  VAL95       0.2260
    135  O         10.8860  -12.7280   18.7160 O.2    95  VAL95      -0.2867
    136  CB         9.9450   -9.9170   19.5040 C.3    95  VAL95       0.0252
    137  CG1        9.5520  -10.2110   18.0670 C.3    95  VAL95       0.0019
    138  CG2        8.8280  -10.3080   20.4560 C.3    95  VAL95       0.0019
    139  N          8.5140  -15.2450   20.9760 N.3    97  VAL97      -0.1245
    140  CA         7.1850  -15.5540   21.4730 C.3    97  VAL97       0.1561
    141  C          6.9920  -17.0630   21.4420 C.2    97  VAL97       0.2260
    142  O          7.1540  -17.7040   20.4010 O.2    97  VAL97      -0.2867
    143  CB         6.0830  -14.8480   20.6680 C.3    97  VAL97       0.0252
    144  CG1        4.7100  -15.3060   21.1320 C.3    97  VAL97       0.0019
    145  CG2        6.2220  -13.3350   20.7880 C.3    97  VAL97       0.0019
    146  N          1.2660  -17.5650   26.6950 N.3   110  PHE110     -0.1227
    147  CA         2.3580  -17.1750   25.8210 C.3   110  PHE110      0.1736
    148  C          3.3770  -16.2880   26.5120 C.2   110  PHE110      0.2595
    149  O          3.0330  -15.3250   27.1970 O.2   110  PHE110     -0.2718
    150  CB         1.8440  -16.5410   24.5290 C.3   110  PHE110      0.0547
    151  CG         1.3210  -17.5410   23.5430 C.ar  110  PHE110     -0.0202
    152  CD1        2.1910  -18.2460   22.7270 C.ar  110  PHE110     -0.0042
    153  CD2       -0.0360  -17.7930   23.4460 C.ar  110  PHE110     -0.0042
    154  CE1        1.7150  -19.1770   21.8230 C.ar  110  PHE110     -0.0003
    155  CE2       -0.5180  -18.7220   22.5450 C.ar  110  PHE110     -0.0003
    156  CZ         0.3580  -19.4150   21.7330 C.ar  110  PHE110     -0.0000
    157  N          4.6390  -16.6550   26.3370 N.am  111  LEU111     -0.1966
    158  CA         5.7490  -15.8730   26.8370 C.3   111  LEU111      0.1728
    159  C          6.3340  -15.0720   25.6950 C.2   111  LEU111      0.2616
    160  O          6.5510  -15.5940   24.6020 O.2   111  LEU111     -0.2715
    161  CB         6.8300  -16.7860   27.4050 C.3   111  LEU111      0.0311
    162  CG         8.2350  -16.1840   27.4100 C.3   111  LEU111      0.0022
    163  CD1        8.3550  -15.0890   28.4620 C.3   111  LEU111      0.0001
    164  CD2        9.2770  -17.2670   27.6310 C.3   111  LEU111      0.0001
    165  N          6.5790  -13.7960   25.9510 N.am  112  GLY112     -0.1955
    166  CA         7.2880  -12.9640   25.0070 C.3   112  GLY112      0.1869
    167  C          8.5260  -12.4210   25.6810 C.2   112  GLY112      0.2309
    168  O          8.5020  -12.0920   26.8650 O.2   112  GLY112     -0.2863
    169  N         11.7540   -9.5480   24.6740 N.3   114  GLN114     -0.1245
    170  CA        12.1710   -8.5390   23.7140 C.3   114  GLN114      0.1566
    171  C         13.5800   -8.0550   24.0140 C.2   114  GLN114      0.2260
    172  O         13.8950   -7.6850   25.1460 O.2   114  GLN114     -0.2867
    173  CB        11.2030   -7.3530   23.7340 C.3   114  GLN114      0.0367
    174  CG         9.8000   -7.6690   23.2380 C.3   114  GLN114      0.0905
    175  CD         8.9070   -8.2650   24.3080 C.2   114  GLN114      0.2608
    176  OE1        9.3010   -8.3930   25.4680 O.2   114  GLN114     -0.2717
    177  NE2        7.6880   -8.6270   23.9230 N.am  114  GLN114     -0.0878
@<TRIPOS>BOND
     1    71    70    2
     2    70    69    1
     3    99    98    1
     4    68    69    1
     5    98   100    1
     6    98    97    2
     7    69    72    1
     8    75    76    1
     9    96    97    1
    10    96    95    1
    11    79    80    1
    12    79    76    1
    13    79    81    1
    14    77    76    1
    15    77    78    2
    16    72    74    1
    17    72    73    1
    18    95    94    1
    19   113   115    1
    20   113   112    1
    21    82    83    1
    22   109   110    1
    23   109   112    1
    24   109   108    1
    25    94    91    1
    26   110   111    2
    27    92    91    1
    28    92    93    2
    29   112   114    1
    30    90    91    1
    31    90    84   am
    32    83    84    1
    33    83    86    1
    34    84    85    2
    35    87    86    1
    36    87    89    1
    37    86    88    1
    38    67    64    1
    39    65    64    1
    40    65    66    2
    41   116   117    1
    42    64    63    1
    43   123   121   am
    44   119   118    2
    45   117   118    1
    46   117   120    1
    47   101   102    1
    48   127   126    2
    49   124   125    1
    50    51    50    1
    51    51    52    2
    52    50    49    1
    53    54    52    1
    54    63    57   am
    55   121   120    1
    56   121   122    2
    57   103   102    1
    58   103   104    2
    59    52    53    1
    60   137   136    1
    61   126   125    1
    62    58    57    2
    63   102   105    1
    64    48    49    1
    65    48    45    1
    66    47    46    2
    67   105   106    1
    68   105   107    1
    69   125   128    1
    70    57    56    1
    71   135   134    2
    72   128   129    1
    73   132   133    1
    74    45    46    1
    75    45    44    1
    76   136   133    1
    77   136   138    1
    78   134   133    1
    79    56    55    1
    80    56    59    1
    81   129   131   am
    82   129   130    2
    83    36    35    2
    84   142   141    2
    85    44    40   am
    86    59    60    1
    87   143   145    1
    88   143   144    1
    89   143   140    1
    90    37    35   am
    91    35    34    1
    92   139   140    1
    93    41    40    2
    94    40    39    1
    95   141   140    1
    96   156   154   ar
    97   156   155   ar
    98    34    31    1
    99   154   152   ar
   100    60    61    1
   101    60    62    1
   102   155   153   ar
   103    21    19   am
   104    33    32    2
   105    39    38    1
   106    39    42    1
   107   152   151   ar
   108    18    19    1
   109    18    15    1
   110    38    32   am
   111    32    31    1
   112    42    43    1
   113    31    30    1
   114    14    15    1
   115   174   173    1
   116   174   175    1
   117    19    20    2
   118   153   151   ar
   119   151   150    1
   120   170   173    1
   121   170   171    1
   122   170   169    1
   123    15    16    1
   124   177   175   am
   125    17    16    2
   126   171   172    2
   127   175   176    2
   128   150   147    1
   129   160   159    2
   130   166   167    1
   131   166   165    1
   132    13    12    1
   133   167   168    2
   134   159   165   am
   135   159   158    1
   136   147   148    1
   137   147   146    1
   138    12     9    1
   139    29    27    1
   140   157   148   am
   141   157   158    1
   142   148   149    2
   143     7     5    1
   144   158   161    1
   145    27    28    1
   146    27    26    1
   147    22    23    1
   148   161   162    1
   149   162   164    1
   150   162   163    1
   151     9    10    1
   152     9     8    1
   153    10    11    2
   154     5     6    1
   155     5     2    1
   156    26    23    1
   157    23    24    1
   158     4     3    2
   159     1     2    1
   160     3     2    1
   161    24    25    2
