@<TRIPOS>MOLECULE
tmp/3p7oA00.pdb
 152 145 0 0 0
SMALL
GASTEIGER

@<TRIPOS>ATOM
      1  N         20.4190  -19.1570   16.5150 N.3   100  PHE100     -0.1241
      2  CA        19.5910  -18.0730   16.0200 C.3   100  PHE100      0.1605
      3  C         19.9990  -17.6220   14.6270 C.2   100  PHE100      0.2264
      4  O         21.1630  -17.7270   14.2420 O.2   100  PHE100     -0.2867
      5  CB        19.5440  -16.9050   17.0180 C.3   100  PHE100      0.0534
      6  CG        20.8410  -16.1600   17.1670 C.ar  100  PHE100     -0.0203
      7  CD1       21.8010  -16.5870   18.0620 C.ar  100  PHE100     -0.0042
      8  CD2       21.0790  -15.0050   16.4350 C.ar  100  PHE100     -0.0042
      9  CE1       22.9930  -15.8900   18.2090 C.ar  100  PHE100     -0.0003
     10  CE2       22.2700  -14.2910   16.5760 C.ar  100  PHE100     -0.0003
     11  CZ        23.2280  -14.7320   17.4630 C.ar  100  PHE100     -0.0000
     12  N         19.6910  -14.3090   12.0500 N.3   102  SER102     -0.1217
     13  CA        19.3140  -12.9440   11.7500 C.3   102  SER102      0.1889
     14  C         19.4750  -12.7980   10.2380 C.2   102  SER102      0.2288
     15  O         19.5120  -13.7990    9.5170 O.2   102  SER102     -0.2866
     16  CB        20.2150  -11.9660   12.4940 C.3   102  SER102      0.2089
     17  OG        21.5740  -12.1530   12.1260 O.3   102  SER102     -0.2183
     18  N          8.6410   -4.8620   13.0170 N.3   161  PHE161     -0.1241
     19  CA         9.8760   -5.2970   12.3880 C.3   161  PHE161      0.1605
     20  C          9.6380   -5.6360   10.9230 C.2   161  PHE161      0.2264
     21  O         10.1470   -4.9550   10.0340 O.2   161  PHE161     -0.2867
     22  CB        10.4370   -6.5080   13.1210 C.3   161  PHE161      0.0534
     23  CG        11.7050   -7.0240   12.5400 C.ar  161  PHE161     -0.0203
     24  CD1       11.8210   -8.3510   12.1710 C.ar  161  PHE161     -0.0042
     25  CD2       12.7840   -6.1830   12.3550 C.ar  161  PHE161     -0.0042
     26  CE1       12.9980   -8.8300   11.6360 C.ar  161  PHE161     -0.0003
     27  CE2       13.9610   -6.6520   11.8220 C.ar  161  PHE161     -0.0003
     28  CZ        14.0720   -7.9760   11.4620 C.ar  161  PHE161     -0.0000
     29  N         27.3310    6.5670   17.0170 N.3   291  HIS291     -0.1241
     30  CA        26.9730    6.4750   18.4040 C.3   291  HIS291      0.1621
     31  C         27.4970    7.5840   19.2730 C.2   291  HIS291      0.2264
     32  O         27.1470    7.6830   20.4410 O.2   291  HIS291     -0.2867
     33  CB        27.1750    5.0660   18.9520 C.3   291  HIS291      0.0745
     34  CG        25.9170    4.2570   18.8780 C.ar  291  HIS291      0.0817
     35  ND1       25.8970    2.8790   18.8990 N.ar  291  HIS291     -0.2268
     36  CD2       24.6240    4.6540   18.7540 C.ar  291  HIS291      0.1154
     37  CE1       24.6440    2.4610   18.8140 C.ar  291  HIS291      0.1986
     38  NE2       23.8530    3.5190   18.7190 N.ar  291  HIS291     -0.2212
     39  N         24.1570    9.1540   18.5700 N.3   294  GLY294     -0.1210
     40  CA        23.1750    8.4560   19.3830 C.3   294  GLY294      0.1956
     41  C         23.2690    8.8920   20.8390 C.2   294  GLY294      0.2611
     42  O         22.2720    9.0260   21.5330 O.2   294  GLY294     -0.2717
     43  N         24.4900    9.1260   21.2940 N.am  295  HIS295     -0.1975
     44  CA        24.7310    9.4750   22.6820 C.3   295  HIS295      0.1656
     45  C         24.0890   10.8070   23.0550 C.2   295  HIS295      0.2291
     46  O         23.5950   10.9660   24.1730 O.2   295  HIS295     -0.2864
     47  CB        26.2370    9.5030   22.9560 C.3   295  HIS295      0.0771
     48  CG        26.6050   10.1640   24.2420 C.ar  295  HIS295      0.0820
     49  ND1       27.3700   11.3100   24.2970 N.ar  295  HIS295     -0.2267
     50  CD2       26.3130    9.8460   25.5250 C.ar  295  HIS295      0.1154
     51  CE1       27.5360   11.6660   25.5570 C.ar  295  HIS295      0.1986
     52  NE2       26.9030   10.7970   26.3210 N.ar  295  HIS295     -0.2212
     53  N         19.9200   10.5330   22.1240 N.3   298  GLY298     -0.1225
     54  CA        19.2220    9.7420   23.1240 C.3   298  GLY298      0.1811
     55  C         19.6180   10.0860   24.5610 C.2   298  GLY298      0.2280
     56  O         19.2770    9.3520   25.4790 O.2   298  GLY298     -0.2866
     57  N         19.4300   11.9710   28.1840 N.3   300  GLU300     -0.1245
     58  CA        18.2840   12.2340   29.0370 C.3   300  GLU300      0.1567
     59  C         18.6860   13.2450   30.0680 C.2   300  GLU300      0.2260
     60  O         19.8640   13.5630   30.2210 O.2   300  GLU300     -0.2867
     61  CB        17.7890   10.9390   29.6890 C.3   300  GLU300      0.0388
     62  CG        17.2740    9.9460   28.6450 C.3   300  GLU300      0.1160
     63  CD        16.9750    8.5470   29.1890 C.2   300  GLU300      0.3649
     64  OE1       16.3260    7.7630   28.4450 O.co2 300  GLU300     -0.2457
     65  OE2       17.3970    8.2370   30.3350 O.co2 300  GLU300     -0.2457
     66  N         12.3910    8.1860   25.5230 N.3   318  LEU318     -0.1231
     67  CA        13.0830    8.4470   24.2790 C.3   318  LEU318      0.1693
     68  C         14.2470    7.4740   24.1440 C.2   318  LEU318      0.2592
     69  O         15.0640    7.3540   25.0500 O.2   318  LEU318     -0.2718
     70  CB        13.6200    9.8830   24.2970 C.3   318  LEU318      0.0284
     71  CG        14.4970   10.5010   23.1930 C.3   318  LEU318      0.0019
     72  CD1       15.2530    9.4770   22.3520 C.3   318  LEU318      0.0001
     73  CD2       13.6760   11.4330   22.3110 C.3   318  LEU318      0.0001
     74  N         14.3270    6.7950   23.0040 N.am  319  VAL319     -0.1966
     75  CA        15.5130    6.0350   22.6470 C.3   319  VAL319      0.1727
     76  C         15.9900    6.4560   21.2620 C.2   319  VAL319      0.2617
     77  O         15.2090    6.4600   20.3080 O.2   319  VAL319     -0.2715
     78  CB        15.2450    4.5330   22.6760 C.3   319  VAL319      0.0290
     79  CG1       16.3340    3.7890   21.9410 C.3   319  VAL319      0.0023
     80  CG2       15.1490    4.0500   24.1180 C.3   319  VAL319      0.0023
     81  N         17.2610    6.8340   21.1590 N.am  320  GLY320     -0.1940
     82  CA        17.8170    7.2600   19.8900 C.3   320  GLY320      0.2014
     83  C         19.2230    6.7740   19.5790 C.2   320  GLY320      0.2639
     84  O         20.0470    6.5940   20.4790 O.2   320  GLY320     -0.2714
     85  N         19.5040    6.5750   18.2940 N.am  321  GLY321     -0.1939
     86  CA        20.8300    6.1550   17.8760 C.3   321  GLY321      0.2014
     87  C         20.8590    5.1900   16.7060 C.2   321  GLY321      0.2639
     88  O         19.8840    5.0540   15.9690 O.2   321  GLY321     -0.2714
     89  N         21.9820    4.5030   16.5400 N.am  322  GLN322     -0.1963
     90  CA        22.1860    3.7190   15.3310 C.3   322  GLN322      0.1733
     91  C         21.6490    2.2900   15.4420 C.2   322  GLN322      0.2616
     92  O         21.6950    1.6700   16.5010 O.2   322  GLN322     -0.2715
     93  CB        23.6500    3.7800   14.8540 C.3   322  GLN322      0.0408
     94  CG        24.6320    2.8710   15.5790 C.3   322  GLN322      0.0908
     95  CD        26.0520    3.0080   15.0390 C.2   322  GLN322      0.2608
     96  OE1       26.4910    4.0990   14.7110 O.2   322  GLN322     -0.2717
     97  NE2       26.7660    1.8900   14.9370 N.am  322  GLN322     -0.0878
     98  N         21.1280    1.7910   14.3280 N.am  323  LYS323     -0.1963
     99  CA        20.4140    0.5210   14.2970 C.3   323  LYS323      0.1728
    100  C         20.9220   -0.3880   13.1690 C.2   323  LYS323      0.2616
    101  O         21.1010    0.0430   12.0270 O.2   323  LYS323     -0.2715
    102  CB        18.9150    0.7930   14.1530 C.3   323  LYS323      0.0311
    103  CG        18.0520   -0.4340   14.0130 C.3   323  LYS323      0.0038
    104  CD        16.6000   -0.0140   13.8320 C.3   323  LYS323      0.0206
    105  CE        15.8970   -0.8330   12.7560 C.3   323  LYS323      0.1093
    106  NZ        14.6340   -0.1700   12.2950 N.3   323  LYS323     -0.1314
    107  N         21.1650   -1.6490   13.5000 N.am  324  GLU324     -0.1977
    108  CA        21.7060   -2.6070   12.5410 C.3   324  GLU324      0.1602
    109  C         20.8080   -2.7450   11.3120 C.2   324  GLU324      0.2287
    110  O         19.5840   -2.6140   11.3950 O.2   324  GLU324     -0.2864
    111  CB        21.8770   -3.9770   13.2050 C.3   324  GLU324      0.0415
    112  CG        22.8690   -4.9070   12.5200 C.3   324  GLU324      0.1163
    113  CD        24.2870   -4.7170   13.0370 C.2   324  GLU324      0.3649
    114  OE1       24.5880   -5.2320   14.1370 O.co2 324  GLU324     -0.2457
    115  OE2       25.0940   -4.0490   12.3510 O.co2 324  GLU324     -0.2457
    116  N         17.6730    5.7970   14.2620 N.3   333  ILE333     -0.1245
    117  CA        16.2960    5.8900   14.7300 C.3   333  ILE333      0.1561
    118  C         16.1280    6.7890   15.9520 C.2   333  ILE333      0.2260
    119  O         17.0760    7.0710   16.7050 O.2   333  ILE333     -0.2867
    120  CB        15.6790    4.4870   14.9950 C.3   333  ILE333      0.0252
    121  CG1       16.4800    3.7330   16.0580 C.3   333  ILE333      0.0019
    122  CG2       15.6660    3.6610   13.7290 C.3   333  ILE333      0.0019
    123  CD1       16.3670    4.2840   17.4800 C.3   333  ILE333      0.0001
    124  N         28.8770  -14.4290   21.4240 N.3   395  LYS395     -0.1245
    125  CA        29.1610  -13.0420   21.0530 C.3   395  LYS395      0.1561
    126  C         30.4780  -12.9430   20.2920 C.2   395  LYS395      0.2260
    127  O         30.5820  -12.2210   19.3120 O.2   395  LYS395     -0.2867
    128  CB        29.1770  -12.1240   22.2870 C.3   395  LYS395      0.0271
    129  CG        29.2120  -10.6140   21.9290 C.3   395  LYS395      0.0035
    130  CD        28.0040  -10.2410   21.0480 C.3   395  LYS395      0.0206
    131  CE        28.1490   -8.8680   20.3650 C.3   395  LYS395      0.1093
    132  NZ        27.0760   -8.5920   19.3340 N.3   395  LYS395     -0.1314
    133  N         20.6110    9.7590   35.0060 N.3   568  TYR568     -0.1241
    134  CA        21.1960    9.3330   33.7230 C.3   568  TYR568      0.1605
    135  C         22.7230    9.4440   33.6900 C.2   568  TYR568      0.2264
    136  O         23.4230    8.5290   33.2370 O.2   568  TYR568     -0.2867
    137  CB        20.5920   10.1020   32.5490 C.3   568  TYR568      0.0534
    138  CG        20.8190    9.4330   31.2040 C.ar  568  TYR568     -0.0201
    139  CD1       20.1890    8.2330   30.8900 C.ar  568  TYR568     -0.0009
    140  CD2       21.6470   10.0070   30.2440 C.ar  568  TYR568     -0.0009
    141  CE1       20.3880    7.6100   29.6670 C.ar  568  TYR568      0.0417
    142  CE2       21.8530    9.3960   29.0080 C.ar  568  TYR568      0.0417
    143  CZ        21.2170    8.1900   28.7240 C.ar  568  TYR568      0.1957
    144  OH        21.4120    7.5590   27.5050 O.3   568  TYR568     -0.2866
    145  N         25.2450    6.3000   32.6470 N.3   572  LEU572     -0.1245
    146  CA        26.3660    6.3900   31.7110 C.3   572  LEU572      0.1561
    147  C         27.6600    6.1320   32.4390 C.2   572  LEU572      0.2260
    148  O         28.5810    5.5480   31.8790 O.2   572  LEU572     -0.2867
    149  CB        26.4590    7.7670   31.0650 C.3   572  LEU572      0.0270
    150  CG        25.2400    8.2050   30.2790 C.3   572  LEU572      0.0019
    151  CD1       25.3290    9.6900   29.9830 C.3   572  LEU572      0.0001
    152  CD2       25.1760    7.3930   29.0220 C.3   572  LEU572      0.0001
@<TRIPOS>BOND
     1    15    14    2
     2    21    20    2
     3    14    13    1
     4    20    19    1
     5   109   110    2
     6   109   108    1
     7    28    26   ar
     8    28    27   ar
     9    26    24   ar
    10    13    12    1
    11    13    16    1
    12    27    25   ar
    13   101   100    2
    14    17    16    1
    15    24    23   ar
    16   106   105    1
    17   115   113   ar
    18    25    23   ar
    19    19    18    1
    20    19    22    1
    21   112   113    1
    22   112   111    1
    23    23    22    1
    24   108   111    1
    25   108   107    1
    26   105   104    1
    27   113   114   ar
    28   100   107   am
    29   100    99    1
    30   122   120    1
    31   104   103    1
    32   103   102    1
    33   102    99    1
    34     4     3    2
    35   116   117    1
    36    99    98    1
    37    98    91   am
    38     3     2    1
    39    96    95    2
    40   117   120    1
    41   117   118    1
    42    93    90    1
    43    93    94    1
    44    97    95   am
    45   120   121    1
    46    95    94    1
    47    90    91    1
    48    90    89    1
    49    91    92    2
    50   118   119    2
    51    88    87    2
    52     2     1    1
    53     2     5    1
    54   121   123    1
    55     8    10   ar
    56     8     6   ar
    57    89    87   am
    58    10    11   ar
    59    87    86    1
    60    29    30    1
    61     5     6    1
    62     6     7   ar
    63    11     9   ar
    64    86    85    1
    65     7     9   ar
    66    85    83   am
    67    30    33    1
    68    30    31    1
    69    39    40    1
    70    38    36   ar
    71    38    37   ar
    72    36    34   ar
    73    37    35   ar
    74    34    35   ar
    75    34    33    1
    76    31    32    2
    77   127   126    2
    78   132   131    1
    79    40    41    1
    80    83    82    1
    81    83    84    2
    82    82    81    1
    83   126   125    1
    84    77    76    2
    85   131   130    1
    86    41    43   am
    87    41    42    2
    88   130   129    1
    89   125   124    1
    90   125   128    1
    91    81    76   am
    92    76    75    1
    93    43    44    1
    94   129   128    1
    95    79    78    1
    96    53    54    1
    97    73    71    1
    98    72    71    1
    99    75    78    1
   100    75    74    1
   101    78    80    1
   102    44    47    1
   103    44    45    1
   104    47    48    1
   105    74    68   am
   106    45    46    2
   107    54    55    1
   108    71    70    1
   109    68    67    1
   110    68    69    2
   111    48    49   ar
   112    48    50   ar
   113    67    70    1
   114    67    66    1
   115    49    51   ar
   116    55    56    2
   117    50    52   ar
   118    51    52   ar
   119   144   143    1
   120    57    58    1
   121    64    63   ar
   122    62    63    1
   123    62    61    1
   124   143   142   ar
   125   143   141   ar
   126   142   140   ar
   127   152   150    1
   128    58    61    1
   129    58    59    1
   130    63    65   ar
   131   141   139   ar
   132   151   150    1
   133    59    60    2
   134   140   138   ar
   135   150   149    1
   136   139   138   ar
   137   149   146    1
   138   138   137    1
   139   146   147    1
   140   146   145    1
   141   148   147    2
   142   137   134    1
   143   136   135    2
   144   135   134    1
   145   134   133    1
