@<TRIPOS>MOLECULE
tmp/3p7xB02.pdb
 77 74 0 0 0
SMALL
GASTEIGER

@<TRIPOS>ATOM
      1  N         13.1510   66.2020  -26.3690 N.3     5  PHE5       -0.1227
      2  CA        12.5320   65.4310  -25.3510 C.3     5  PHE5        0.1736
      3  C         13.3730   64.1570  -25.1490 C.2     5  PHE5        0.2595
      4  O         13.6160   63.4090  -26.1050 O.2     5  PHE5       -0.2718
      5  CB        11.1200   65.1020  -25.7340 C.3     5  PHE5        0.0547
      6  CG        10.2770   64.7710  -24.5840 C.ar    5  PHE5       -0.0202
      7  CD1        9.6000   65.7930  -23.9140 C.ar    5  PHE5       -0.0042
      8  CD2       10.2340   63.4640  -24.0780 C.ar    5  PHE5       -0.0042
      9  CE1        8.8550   65.5440  -22.7730 C.ar    5  PHE5       -0.0003
     10  CE2        9.4810   63.1670  -22.9130 C.ar    5  PHE5       -0.0003
     11  CZ         8.7700   64.2230  -22.2490 C.ar    5  PHE5       -0.0000
     12  N         13.8550   63.9550  -23.9190 N.am    6  LYS6       -0.1980
     13  CA        14.9360   62.9810  -23.6600 C.3     6  LYS6        0.1596
     14  C         16.0240   63.0950  -24.7120 C.2     6  LYS6        0.2287
     15  O         16.5760   62.0840  -25.1780 O.2     6  LYS6       -0.2864
     16  CB        14.4200   61.5300  -23.5660 C.3     6  LYS6        0.0298
     17  CG        13.3200   61.4070  -22.5440 C.3     6  LYS6        0.0038
     18  CD        13.1090   60.0140  -22.0160 C.3     6  LYS6        0.0206
     19  CE        11.6220   59.8080  -21.6770 C.3     6  LYS6        0.1093
     20  NZ        11.3540   58.4760  -20.9750 N.3     6  LYS6       -0.1314
     21  N          3.4020   67.2680  -20.2140 N.3    52  PRO52      -0.2116
     22  CA         3.2080   66.0830  -21.0280 C.3    52  PRO52       0.1372
     23  C          2.2600   65.0400  -20.4470 C.2    52  PRO52       0.2244
     24  O          1.4320   64.5100  -21.2000 O.2    52  PRO52      -0.2868
     25  CB         4.5970   65.4830  -21.1810 C.3    52  PRO52       0.0268
     26  CG         5.5570   66.7460  -21.0730 C.3    52  PRO52       0.0207
     27  CD         4.7730   67.8260  -20.2950 C.3    52  PRO52       0.0892
     28  N          0.6370   61.7050  -15.2030 N.3    55  ASP55      -0.1225
     29  CA         1.0460   60.3770  -14.7310 C.3    55  ASP55       0.1805
     30  C          2.5700   60.1650  -14.7390 C.2    55  ASP55       0.2598
     31  O          3.0350   59.0150  -14.4980 O.2    55  ASP55      -0.2718
     32  CB         0.2640   59.2430  -15.4710 C.3    55  ASP55       0.1424
     33  CG        -1.1520   59.0330  -14.9000 C.2    55  ASP55       0.3668
     34  OD1       -1.3170   59.0870  -13.6500 O.co2  55  ASP55      -0.2456
     35  OD2       -2.1380   58.8240  -15.6770 O.co2  55  ASP55      -0.2456
     36  N          3.3690   61.2250  -14.9890 N.am   56  THR56      -0.1939
     37  CA         4.8340   61.0830  -14.8680 C.3    56  THR56       0.2028
     38  C          5.2980   61.9500  -13.7430 C.2    56  THR56       0.2643
     39  O          4.5630   62.8920  -13.3860 O.2    56  THR56      -0.2714
     40  CB         5.5640   61.4380  -16.1690 C.3    56  THR56       0.1808
     41  OG1        5.3410   62.8060  -16.4890 O.3    56  THR56      -0.2208
     42  CG2        5.0070   60.5920  -17.3320 C.3    56  THR56       0.0379
     43  N          6.5090   61.6770  -13.2040 N.am   57  GLY57      -0.1939
     44  CA         6.9450   62.2980  -11.9680 C.3    57  GLY57       0.2014
     45  C          7.1590   63.8300  -12.0360 C.2    57  GLY57       0.2639
     46  O          6.8270   64.5690  -11.0510 O.2    57  GLY57      -0.2714
     47  N          7.8180   64.2940  -13.1020 N.am   58  VAL58      -0.1963
     48  CA         8.0970   65.7250  -13.2640 C.3    58  VAL58       0.1727
     49  C          6.7360   66.5140  -13.3410 C.2    58  VAL58       0.2616
     50  O          6.5650   67.6200  -12.7490 O.2    58  VAL58      -0.2715
     51  CB         9.0510   66.0330  -14.4570 C.3    58  VAL58       0.0290
     52  CG1        9.3260   67.5060  -14.5490 C.3    58  VAL58       0.0023
     53  CG2       10.4920   65.3360  -14.3200 C.3    58  VAL58       0.0023
     54  N          5.8010   65.9770  -14.1160 N.am   59  CYS59      -0.1968
     55  CA         4.4990   66.6650  -14.3760 C.3    59  CYS59       0.1712
     56  C          3.7000   66.7230  -13.0900 C.2    59  CYS59       0.2296
     57  O          3.0140   67.7010  -12.7890 O.2    59  CYS59      -0.2864
     58  CB         3.6950   65.9790  -15.5190 C.3    59  CYS59       0.0983
     59  SG         4.6520   65.9010  -17.0380 S.3    59  CYS59      -0.0798
     60  N          5.9810   70.5560  -22.1960 N.3   127  ARG127     -0.1245
     61  CA         6.0580   71.2060  -20.8800 C.3   127  ARG127      0.1563
     62  C          6.1870   72.7430  -21.1390 C.2   127  ARG127      0.2260
     63  O          7.0980   73.1580  -21.8520 O.2   127  ARG127     -0.2867
     64  CB         7.2640   70.7400  -20.0240 C.3   127  ARG127      0.0307
     65  CG         7.2490   71.3070  -18.5790 C.3   127  ARG127      0.0489
     66  CD         8.3250   70.6550  -17.6390 C.3   127  ARG127      0.2205
     67  NE         8.4240   69.2060  -17.9230 N.pl3 127  ARG127     -0.0865
     68  CZ         7.5670   68.2580  -17.5390 C.cat 127  ARG127      0.5346
     69  NH1        6.5270   68.5770  -16.7840 N.pl3 127  ARG127      0.1354
     70  NH2        7.7800   66.9720  -17.8940 N.pl3 127  ARG127      0.1354
     71  N         11.9290   67.0400  -20.4030 N.3   148  THR148     -0.1218
     72  CA        12.0280   66.2680  -19.1800 C.3   148  THR148      0.1862
     73  C         12.5610   67.0660  -18.0280 C.2   148  THR148      0.2287
     74  O         12.4870   66.5770  -16.9020 O.2   148  THR148     -0.2866
     75  CB        12.8570   64.9380  -19.2390 C.3   148  THR148      0.1770
     76  OG1       14.2680   65.1790  -19.5200 O.3   148  THR148     -0.2211
     77  CG2       12.2550   63.9320  -20.2590 C.3   148  THR148      0.0375
@<TRIPOS>BOND
     1     1     2    1
     2     4     3    2
     3     5     2    1
     4     5     6    1
     5     2     3    1
     6    15    14    2
     7     3    12   am
     8    14    13    1
     9     6     8   ar
    10     6     7   ar
    11     8    10   ar
    12    12    13    1
    13     7     9   ar
    14    13    16    1
    15    16    17    1
    16    10    11   ar
    17     9    11   ar
    18    17    18    1
    19    60    61    1
    20    18    19    1
    21    63    62    2
    22    19    20    1
    23    24    23    2
    24    25    26    1
    25    25    22    1
    26    62    61    1
    27    26    27    1
    28    22    23    1
    29    22    21    1
    30    61    64    1
    31    71    72    1
    32    27    21    1
    33    77    75    1
    34    64    65    1
    35    76    75    1
    36    75    72    1
    37    72    73    1
    38    65    66    1
    39    73    74    2
    40    67    66    1
    41    67    68    2
    42    70    68    1
    43    68    69    1
    44    42    40    1
    45    59    58    1
    46    41    40    1
    47    40    37    1
    48    35    33   ar
    49    58    55    1
    50    32    33    1
    51    32    29    1
    52    28    29    1
    53    36    37    1
    54    36    30   am
    55    33    34   ar
    56    37    38    1
    57    30    29    1
    58    30    31    2
    59    52    51    1
    60    51    53    1
    61    51    48    1
    62    55    54    1
    63    55    56    1
    64    54    49   am
    65    38    39    2
    66    38    43   am
    67    49    48    1
    68    49    50    2
    69    48    47    1
    70    43    44    1
    71    47    45   am
    72    56    57    2
    73    45    44    1
    74    45    46    2
