@<TRIPOS>MOLECULE
tmp/3p7xB00.pdb
 85 81 0 0 0
SMALL
GASTEIGER

@<TRIPOS>ATOM
      1  N         13.1510   66.2020  -26.3690 N.3     5  PHE5       -0.1227
      2  CA        12.5320   65.4310  -25.3510 C.3     5  PHE5        0.1736
      3  C         13.3730   64.1570  -25.1490 C.2     5  PHE5        0.2595
      4  O         13.6160   63.4090  -26.1050 O.2     5  PHE5       -0.2718
      5  CB        11.1200   65.1020  -25.7340 C.3     5  PHE5        0.0547
      6  CG        10.2770   64.7710  -24.5840 C.ar    5  PHE5       -0.0202
      7  CD1        9.6000   65.7930  -23.9140 C.ar    5  PHE5       -0.0042
      8  CD2       10.2340   63.4640  -24.0780 C.ar    5  PHE5       -0.0042
      9  CE1        8.8550   65.5440  -22.7730 C.ar    5  PHE5       -0.0003
     10  CE2        9.4810   63.1670  -22.9130 C.ar    5  PHE5       -0.0003
     11  CZ         8.7700   64.2230  -22.2490 C.ar    5  PHE5       -0.0000
     12  N         13.8550   63.9550  -23.9190 N.am    6  LYS6       -0.1980
     13  CA        14.9360   62.9810  -23.6600 C.3     6  LYS6        0.1596
     14  C         16.0240   63.0950  -24.7120 C.2     6  LYS6        0.2287
     15  O         16.5760   62.0840  -25.1780 O.2     6  LYS6       -0.2864
     16  CB        14.4200   61.5300  -23.5660 C.3     6  LYS6        0.0298
     17  CG        13.3200   61.4070  -22.5440 C.3     6  LYS6        0.0038
     18  CD        13.1090   60.0140  -22.0160 C.3     6  LYS6        0.0206
     19  CE        11.6220   59.8080  -21.6770 C.3     6  LYS6        0.1093
     20  NZ        11.3540   58.4760  -20.9750 N.3     6  LYS6       -0.1314
     21  N         15.8840   63.8270  -27.7310 N.3     8  GLY8       -0.1210
     22  CA        15.4700   63.6920  -29.1380 C.3     8  GLY8        0.1940
     23  C         14.7430   64.9650  -29.6150 C.2     8  GLY8        0.2454
     24  O         13.9910   65.5830  -28.8430 O.2     8  GLY8       -0.2732
     25  N         14.9580   65.3760  -30.8960 N.am    9  PRO9       -0.2717
     26  CA        14.2840   66.6350  -31.3430 C.3     9  PRO9        0.1535
     27  C         12.8100   66.4060  -31.5290 C.2     9  PRO9        0.2598
     28  O         12.3900   65.3000  -31.8900 O.2     9  PRO9       -0.2715
     29  CB        14.9320   66.9420  -32.6950 C.3     9  PRO9        0.0310
     30  CG        16.2840   66.1360  -32.6570 C.3     9  PRO9        0.0237
     31  CD        15.9360   64.8800  -31.9020 C.3     9  PRO9        0.0939
     32  N         12.0310   67.4460  -31.2620 N.am   10  ILE10      -0.1978
     33  CA        10.5750   67.3620  -31.3500 C.3    10  ILE10       0.1596
     34  C         10.1520   68.6680  -32.0490 C.2    10  ILE10       0.2287
     35  O         10.7900   69.7470  -31.8860 O.2    10  ILE10      -0.2864
     36  CB         9.9000   67.3150  -29.9190 C.3    10  ILE10       0.0276
     37  CG1       10.1840   66.0200  -29.1460 C.3    10  ILE10       0.0022
     38  CG2        8.3850   67.6740  -29.9980 C.3    10  ILE10       0.0022
     39  CD1        9.8180   64.7140  -29.8790 C.3    10  ILE10       0.0001
     40  N          3.4020   67.2680  -20.2140 N.3    52  PRO52      -0.2116
     41  CA         3.2080   66.0830  -21.0280 C.3    52  PRO52       0.1372
     42  C          2.2600   65.0400  -20.4470 C.2    52  PRO52       0.2244
     43  O          1.4320   64.5100  -21.2000 O.2    52  PRO52      -0.2868
     44  CB         4.5970   65.4830  -21.1810 C.3    52  PRO52       0.0268
     45  CG         5.5570   66.7460  -21.0730 C.3    52  PRO52       0.0207
     46  CD         4.7730   67.8260  -20.2950 C.3    52  PRO52       0.0892
     47  N          3.3690   61.2250  -14.9890 N.3    56  THR56      -0.1218
     48  CA         4.8340   61.0830  -14.8680 C.3    56  THR56       0.1862
     49  C          5.2980   61.9500  -13.7430 C.2    56  THR56       0.2287
     50  O          4.5630   62.8920  -13.3860 O.2    56  THR56      -0.2866
     51  CB         5.5640   61.4380  -16.1690 C.3    56  THR56       0.1770
     52  OG1        5.3410   62.8060  -16.4890 O.3    56  THR56      -0.2211
     53  CG2        5.0070   60.5920  -17.3320 C.3    56  THR56       0.0375
     54  N          5.3240   64.6040  -32.8420 N.3   121  GLU121     -0.1231
     55  CA         5.6900   63.1800  -32.9140 C.3   121  GLU121      0.1699
     56  C          5.0010   62.3480  -31.8200 C.2   121  GLU121      0.2592
     57  O          4.9780   61.1340  -31.8910 O.2   121  GLU121     -0.2718
     58  CB         7.2200   63.0560  -32.8010 C.3   121  GLU121      0.0402
     59  CG         7.9750   63.6310  -34.0260 C.3   121  GLU121      0.1161
     60  CD         8.2310   65.1640  -33.9370 C.2   121  GLU121      0.3649
     61  OE1        7.5720   65.9350  -33.1730 O.co2 121  GLU121     -0.2457
     62  OE2        9.1630   65.5950  -34.6310 O.co2 121  GLU121     -0.2457
     63  N          4.5070   62.9840  -30.7760 N.am  122  LEU122     -0.1980
     64  CA         4.0370   62.2100  -29.6130 C.3   122  LEU122      0.1596
     65  C          2.5630   62.3810  -29.3060 C.2   122  LEU122      0.2287
     66  O          2.0300   61.6310  -28.4660 O.2   122  LEU122     -0.2864
     67  CB         4.8370   62.5990  -28.3450 C.3   122  LEU122      0.0297
     68  CG         6.3650   62.4350  -28.3330 C.3   122  LEU122      0.0022
     69  CD1        7.0010   63.1150  -27.1170 C.3   122  LEU122      0.0001
     70  CD2        6.7270   60.9320  -28.2930 C.3   122  LEU122      0.0001
     71  N          1.4190   64.6510  -27.3650 N.3   124  LEU124     -0.1245
     72  CA         1.4070   65.1220  -25.9910 C.3   124  LEU124      0.1561
     73  C          1.7160   66.6240  -26.0610 C.2   124  LEU124      0.2260
     74  O          2.3570   67.1060  -27.0210 O.2   124  LEU124     -0.2867
     75  CB         2.5060   64.4510  -25.2090 C.3   124  LEU124      0.0270
     76  CG         2.3850   62.8970  -25.0790 C.3   124  LEU124      0.0019
     77  CD1        3.6270   62.3820  -24.3370 C.3   124  LEU124      0.0001
     78  CD2        1.0530   62.5200  -24.3550 C.3   124  LEU124      0.0001
     79  N         11.9290   67.0400  -20.4030 N.3   148  THR148     -0.1218
     80  CA        12.0280   66.2680  -19.1800 C.3   148  THR148      0.1862
     81  C         12.5610   67.0660  -18.0280 C.2   148  THR148      0.2287
     82  O         12.4870   66.5770  -16.9020 O.2   148  THR148     -0.2866
     83  CB        12.8570   64.9380  -19.2390 C.3   148  THR148      0.1770
     84  OG1       14.2680   65.1790  -19.5200 O.3   148  THR148     -0.2211
     85  CG2       12.2550   63.9320  -20.2590 C.3   148  THR148      0.0375
@<TRIPOS>BOND
     1    62    60   ar
     2    59    60    1
     3    59    58    1
     4    60    61   ar
     5    55    54    1
     6    55    58    1
     7    55    56    1
     8    29    30    1
     9    29    26    1
    10    30    31    1
    11    34    35    2
    12    34    33    1
    13    31    25    1
    14    57    56    2
    15    28    27    2
    16    56    63   am
    17    27    26    1
    18    27    32   am
    19    33    32    1
    20    33    36    1
    21    26    25    1
    22    25    23   am
    23    63    64    1
    24    38    36    1
    25    36    37    1
    26    39    37    1
    27    23    22    1
    28    23    24    2
    29    64    65    1
    30    64    67    1
    31    65    66    2
    32    22    21    1
    33    67    68    1
    34    68    70    1
    35    68    69    1
    36    71    72    1
    37    74    73    2
    38     1     2    1
    39     4     3    2
    40    73    72    1
    41    72    75    1
    42     5     2    1
    43     5     6    1
    44     2     3    1
    45    75    76    1
    46    15    14    2
    47     3    12   am
    48    76    78    1
    49    76    77    1
    50    14    13    1
    51     6     8   ar
    52     6     7   ar
    53     8    10   ar
    54    12    13    1
    55     7     9   ar
    56    13    16    1
    57    16    17    1
    58    10    11   ar
    59     9    11   ar
    60    17    18    1
    61    18    19    1
    62    19    20    1
    63    43    42    2
    64    44    45    1
    65    44    41    1
    66    45    46    1
    67    41    42    1
    68    41    40    1
    69    79    80    1
    70    46    40    1
    71    85    83    1
    72    84    83    1
    73    83    80    1
    74    80    81    1
    75    81    82    2
    76    53    51    1
    77    52    51    1
    78    51    48    1
    79    47    48    1
    80    48    49    1
    81    49    50    2
