@<TRIPOS>MOLECULE
tmp/3p7xC03.pdb
 105 99 0 0 0
SMALL
GASTEIGER

@<TRIPOS>ATOM
      1  N         -4.8060   33.0240   20.7530 N.3    30  ASP30      -0.1225
      2  CA        -5.6160   33.2820   21.9390 C.3    30  ASP30       0.1805
      3  C         -5.5330   34.7600   22.3160 C.2    30  ASP30       0.2598
      4  O         -4.8830   35.5400   21.6330 O.2    30  ASP30      -0.2718
      5  CB        -5.3110   32.3000   23.1280 C.3    30  ASP30       0.1424
      6  CG        -3.9760   32.5830   23.8460 C.2    30  ASP30       0.3668
      7  OD1       -3.2890   33.6210   23.6030 O.co2  30  ASP30      -0.2456
      8  OD2       -3.6010   31.7180   24.6750 O.co2  30  ASP30      -0.2456
      9  N         -6.2690   35.1580   23.3470 N.am   31  ASN31      -0.1960
     10  CA        -6.3710   36.5530   23.7760 C.3    31  ASN31       0.1819
     11  C         -5.0130   37.1670   24.1940 C.2    31  ASN31       0.2621
     12  O         -4.8690   38.3970   24.2290 O.2    31  ASN31      -0.2715
     13  CB        -7.3350   36.6820   24.9850 C.3    31  ASN31       0.1195
     14  CG        -8.7520   36.3410   24.6240 C.2    31  ASN31       0.2630
     15  OD1       -9.1090   36.1260   23.4240 O.2    31  ASN31      -0.2716
     16  ND2       -9.5730   36.2020   25.6340 N.am   31  ASN31      -0.0877
     17  N         -4.0480   36.3270   24.5200 N.am   32  ASP32      -0.1971
     18  CA        -2.6840   36.8590   24.7920 C.3    32  ASP32       0.1709
     19  C         -1.7150   36.6380   23.6350 C.2    32  ASP32       0.2293
     20  O         -0.5360   36.7490   23.8300 O.2    32  ASP32      -0.2864
     21  CB        -2.0480   36.2240   26.0650 C.3    32  ASP32       0.1436
     22  CG        -2.9420   36.3480   27.2930 C.2    32  ASP32       0.3671
     23  OD1       -3.4630   37.4480   27.5890 O.co2  32  ASP32      -0.2456
     24  OD2       -3.1630   35.3170   27.9460 O.co2  32  ASP32      -0.2456
     25  N         -0.8630   33.8760   22.0530 N.3    34  ASN34      -0.1240
     26  CA        -0.3350   32.5140   21.8850 C.3    34  ASN34       0.1653
     27  C         -1.0070   31.8060   20.7070 C.2    34  ASN34       0.2266
     28  O         -2.2400   31.9420   20.4930 O.2    34  ASN34      -0.2867
     29  CB        -0.5540   31.6520   23.1590 C.3    34  ASN34       0.1155
     30  CG         0.0030   32.3110   24.4130 C.2    34  ASN34       0.2627
     31  OD1        1.1740   32.6170   24.4880 O.2    34  ASN34      -0.2716
     32  ND2       -0.8500   32.5430   25.3960 N.am   34  ASN34      -0.0877
     33  N         -7.0620   20.7760   21.4400 N.3    41  TYR41      -0.1241
     34  CA        -8.2870   20.2530   22.0010 C.3    41  TYR41       0.1605
     35  C         -8.5190   18.7540   21.6610 C.2    41  TYR41       0.2264
     36  O         -9.6790   18.3020   21.5590 O.2    41  TYR41      -0.2867
     37  CB        -9.4810   21.1430   21.5990 C.3    41  TYR41       0.0534
     38  CG        -9.2530   22.6340   21.9120 C.ar   41  TYR41      -0.0201
     39  CD1       -9.4590   23.1620   23.2000 C.ar   41  TYR41      -0.0009
     40  CD2       -8.8070   23.4860   20.9220 C.ar   41  TYR41      -0.0009
     41  CE1       -9.2400   24.5400   23.4690 C.ar   41  TYR41       0.0417
     42  CE2       -8.6030   24.8090   21.1520 C.ar   41  TYR41       0.0417
     43  CZ        -8.8210   25.3440   22.4320 C.ar   41  TYR41       0.1957
     44  OH        -8.5530   26.6940   22.6270 O.3    41  TYR41      -0.2866
     45  N        -11.6070   15.6890   22.3680 N.3    44  LYS44      -0.1245
     46  CA       -12.8170   16.3520   22.8690 C.3    44  LYS44       0.1561
     47  C        -13.7470   16.6270   21.6780 C.2    44  LYS44       0.2260
     48  O        -13.2660   16.9300   20.6170 O.2    44  LYS44      -0.2867
     49  CB       -12.4240   17.6750   23.5290 C.3    44  LYS44       0.0271
     50  CG       -11.3340   17.5370   24.6410 C.3    44  LYS44       0.0035
     51  CD       -11.3700   18.6280   25.6820 C.3    44  LYS44       0.0206
     52  CE       -10.4100   18.3520   26.8740 C.3    44  LYS44       0.1093
     53  NZ       -10.9360   17.2670   27.6600 N.3    44  LYS44      -0.1314
     54  N        -16.0350   21.1220   24.1540 N.3    76  ILE76      -0.1245
     55  CA       -15.4120   22.4210   24.0320 C.3    76  ILE76       0.1561
     56  C        -16.2950   23.3290   23.1210 C.2    76  ILE76       0.2260
     57  O        -16.8090   22.8640   22.0630 O.2    76  ILE76      -0.2867
     58  CB       -14.0160   22.1710   23.3260 C.3    76  ILE76       0.0252
     59  CG1      -13.0480   21.4600   24.3080 C.3    76  ILE76       0.0019
     60  CG2      -13.3470   23.4720   22.9280 C.3    76  ILE76       0.0019
     61  CD1      -12.6410   22.3390   25.4980 C.3    76  ILE76       0.0001
     62  N        -14.5280   39.5630   26.4640 N.3    92  CYS92      -0.1235
     63  CA       -14.7190   38.6480   27.5720 C.3    92  CYS92       0.1677
     64  C        -14.8110   39.4620   28.9050 C.2    92  CYS92       0.2270
     65  O        -15.5820   39.0830   29.7730 O.2    92  CYS92      -0.2867
     66  CB       -13.5420   37.6520   27.6450 C.3    92  CYS92       0.0956
     67  SG       -13.6620   36.3850   26.2760 S.3    92  CYS92      -0.0801
     68  N        -15.0290   34.2730   32.4040 N.3    98  ASP98      -0.1225
     69  CA       -13.7330   33.6230   32.3220 C.3    98  ASP98       0.1805
     70  C        -13.9340   32.2370   31.6990 C.2    98  ASP98       0.2598
     71  O        -13.0360   31.4250   31.6430 O.2    98  ASP98      -0.2718
     72  CB       -13.0720   33.5130   33.7280 C.3    98  ASP98       0.1424
     73  CG       -13.8210   32.5270   34.6690 C.2    98  ASP98       0.3668
     74  OD1      -14.9090   31.9680   34.3110 O.co2  98  ASP98      -0.2456
     75  OD2      -13.3240   32.3240   35.8060 O.co2  98  ASP98      -0.2456
     76  N        -15.1240   31.9540   31.2250 N.am   99  ASN99      -0.1960
     77  CA       -15.3970   30.5980   30.7580 C.3    99  ASN99       0.1819
     78  C        -15.6600   30.5110   29.2090 C.2    99  ASN99       0.2621
     79  O        -16.2020   29.5240   28.7780 O.2    99  ASN99      -0.2715
     80  CB       -16.5710   29.9650   31.5790 C.3    99  ASN99       0.1195
     81  CG       -17.9070   30.7490   31.3810 C.2    99  ASN99       0.2630
     82  OD1      -18.0230   31.6180   30.5070 O.2    99  ASN99      -0.2716
     83  ND2      -18.8920   30.4650   32.2170 N.am   99  ASN99      -0.0877
     84  N        -15.3110   31.5390   28.4120 N.am  100  VAL100     -0.1963
     85  CA       -15.6740   31.5490   27.0140 C.3   100  VAL100      0.1727
     86  C        -14.3290   31.5530   26.2250 C.2   100  VAL100      0.2616
     87  O        -13.4860   32.4540   26.4150 O.2   100  VAL100     -0.2715
     88  CB       -16.4380   32.7890   26.6200 C.3   100  VAL100      0.0290
     89  CG1      -16.6330   32.8450   25.0220 C.3   100  VAL100      0.0023
     90  CG2      -17.7990   32.8370   27.3190 C.3   100  VAL100      0.0023
     91  N        -14.1000   30.5580   25.3700 N.am  101  ILE101     -0.1963
     92  CA       -12.8570   30.5510   24.5440 C.3   101  ILE101      0.1727
     93  C        -13.1220   31.4040   23.3070 C.2   101  ILE101      0.2616
     94  O        -14.0110   31.0920   22.5290 O.2   101  ILE101     -0.2715
     95  CB       -12.5380   29.0940   24.0610 C.3   101  ILE101      0.0290
     96  CG1      -12.3440   28.2410   25.3240 C.3   101  ILE101      0.0022
     97  CG2      -11.2050   29.1240   23.1800 C.3   101  ILE101      0.0023
     98  CD1      -12.1660   26.6950   25.0830 C.3   101  ILE101      0.0001
     99  N        -12.3140   32.4510   23.0910 N.am  102  THR102     -0.1951
    100  CA       -12.4040   33.1840   21.8640 C.3   102  THR102      0.1897
    101  C        -11.0340   33.1500   21.1960 C.2   102  THR102      0.2313
    102  O         -9.9600   33.2350   21.8710 O.2   102  THR102     -0.2863
    103  CB       -12.8600   34.6480   22.0380 C.3   102  THR102      0.1794
    104  OG1      -12.0380   35.2770   23.0380 O.3   102  THR102     -0.2208
    105  CG2      -14.3840   34.7350   22.5050 C.3   102  THR102      0.0378
@<TRIPOS>BOND
     1    28    27    2
     2    48    47    2
     3    27    26    1
     4     1     2    1
     5    40    42   ar
     6    40    38   ar
     7    42    43   ar
     8   101   100    1
     9   101   102    2
    10    33    34    1
    11    36    35    2
    12    37    38    1
    13    37    34    1
    14     4     3    2
    15    35    34    1
    16    47    46    1
    17   100   103    1
    18   100    99    1
    19    26    25    1
    20    26    29    1
    21    38    39   ar
    22     2     3    1
    23     2     5    1
    24   103   105    1
    25   103   104    1
    26    57    56    2
    27     3     9   am
    28    45    46    1
    29    43    44    1
    30    43    41   ar
    31    94    93    2
    32    46    49    1
    33    60    58    1
    34    99    93   am
    35    56    55    1
    36     5     6    1
    37    29    30    1
    38    97    95    1
    39    39    41   ar
    40    93    92    1
    41    58    55    1
    42    58    59    1
    43     9    10    1
    44    15    14    2
    45    49    50    1
    46     7     6   ar
    47    19    20    2
    48    19    18    1
    49    10    11    1
    50    10    13    1
    51     6     8   ar
    52    55    54    1
    53    95    92    1
    54    95    96    1
    55    11    12    2
    56    11    17   am
    57    59    61    1
    58    30    31    2
    59    30    32   am
    60    17    18    1
    61    92    91    1
    62    14    13    1
    63    14    16   am
    64    50    51    1
    65    18    21    1
    66    89    88    1
    67    98    96    1
    68    91    86   am
    69    51    52    1
    70    21    22    1
    71    86    87    2
    72    86    85    1
    73    67    66    1
    74    62    63    1
    75    88    85    1
    76    88    90    1
    77    52    53    1
    78    85    84    1
    79    22    23   ar
    80    22    24   ar
    81    63    66    1
    82    63    64    1
    83    84    78   am
    84    79    78    2
    85    64    65    2
    86    78    77    1
    87    82    81    2
    88    77    76    1
    89    77    80    1
    90    76    70   am
    91    81    80    1
    92    81    83   am
    93    71    70    2
    94    70    69    1
    95    69    68    1
    96    69    72    1
    97    72    73    1
    98    74    73   ar
    99    73    75   ar
