@<TRIPOS>MOLECULE
tmp/3p7yA01.pdb
 158 153 0 0 0
SMALL
GASTEIGER

@<TRIPOS>ATOM
      1  N         24.6090    4.7750   26.0690 N.3    23  PRO23      -0.2116
      2  CA        24.4580    4.4220   24.6610 C.3    23  PRO23       0.1372
      3  C         24.8550    5.5920   23.7560 C.2    23  PRO23       0.2244
      4  O         24.4060    6.7310   23.9500 O.2    23  PRO23      -0.2868
      5  CB        22.9640    4.0880   24.5480 C.3    23  PRO23       0.0268
      6  CG        22.3030    4.8790   25.6550 C.3    23  PRO23       0.0207
      7  CD        23.3170    4.8600   26.7740 C.3    23  PRO23       0.0892
      8  N         25.3910    6.4740   19.6820 N.3    25  THR25      -0.1218
      9  CA        25.3480    6.3090   18.2440 C.3    25  THR25       0.1862
     10  C         26.5960    6.9050   17.6110 C.2    25  THR25       0.2287
     11  O         26.9230    8.0680   17.8420 O.2    25  THR25      -0.2866
     12  CB        24.0620    6.9820   17.7220 C.3    25  THR25       0.1770
     13  OG1       22.9360    6.1710   18.0700 O.3    25  THR25      -0.2211
     14  CG2       24.0630    7.1550   16.2250 C.3    25  THR25       0.0375
     15  N         22.5010    2.6800   19.9490 N.3    57  ALA57      -0.1245
     16  CA        21.1650    2.2550   19.5670 C.3    57  ALA57       0.1562
     17  C         21.2510    1.3460   18.3390 C.2    57  ALA57       0.2260
     18  O         21.9460    1.6340   17.3620 O.2    57  ALA57      -0.2867
     19  CB        20.2880    3.4740   19.2780 C.3    57  ALA57       0.0290
     20  N         18.9410    6.0680   10.6820 N.3    67  TYR67      -0.1241
     21  CA        20.2620    6.6720   10.5260 C.3    67  TYR67       0.1605
     22  C         21.1480    5.7520    9.6920 C.2    67  TYR67       0.2264
     23  O         21.2990    4.5720   10.0160 O.2    67  TYR67      -0.2867
     24  CB        20.9400    6.8720   11.8920 C.3    67  TYR67       0.0534
     25  CG        20.2740    7.8700   12.7980 C.ar   67  TYR67      -0.0201
     26  CD1       19.0630    7.5900   13.3870 C.ar   67  TYR67      -0.0009
     27  CD2       20.8490    9.1050   13.0520 C.ar   67  TYR67      -0.0009
     28  CE1       18.4240    8.5010   14.2060 C.ar   67  TYR67       0.0417
     29  CE2       20.2110   10.0280   13.8770 C.ar   67  TYR67       0.0417
     30  CZ        18.9900    9.7210   14.4270 C.ar   67  TYR67       0.1957
     31  OH        18.3280   10.6170   15.2440 O.3    67  TYR67      -0.2866
     32  N         21.3250   -1.5630   23.4070 N.3    99  GLN99      -0.1245
     33  CA        20.1770   -0.6510   23.3630 C.3    99  GLN99       0.1566
     34  C         19.4380   -0.9050   22.0530 C.2    99  GLN99       0.2260
     35  O         20.0050   -0.7920   20.9660 O.2    99  GLN99      -0.2867
     36  CB        20.5900    0.8160   23.4510 C.3    99  GLN99       0.0367
     37  CG        19.3540    1.7020   23.6440 C.3    99  GLN99       0.0905
     38  CD        19.5930    3.1860   23.5200 C.2    99  GLN99       0.2608
     39  OE1       20.0820    3.6510   22.4900 O.2    99  GLN99      -0.2717
     40  NE2       19.1800    3.9420   24.5360 N.am   99  GLN99      -0.0878
     41  N         16.2630    0.0130   19.5060 N.3   101  TRP101     -0.1241
     42  CA        15.3250    1.0720   19.1050 C.3   101  TRP101      0.1605
     43  C         14.5600    0.7450   17.8430 C.2   101  TRP101      0.2264
     44  O         14.9340   -0.1030   17.0170 O.2   101  TRP101     -0.2867
     45  CB        15.9780    2.4610   18.9230 C.3   101  TRP101      0.0550
     46  CG        16.9540    2.6580   17.7930 C.ar  101  TRP101      0.0003
     47  CD1       17.4780    1.7070   16.9640 C.ar  101  TRP101      0.0946
     48  CD2       17.6220    3.8740   17.4710 C.ar  101  TRP101      0.0152
     49  NE1       18.4150    2.2650   16.1300 N.ar  101  TRP101     -0.2442
     50  CE2       18.5260    3.5960   16.4260 C.ar  101  TRP101      0.0810
     51  CE3       17.5410    5.1790   17.9590 C.ar  101  TRP101      0.0012
     52  CZ2       19.3830    4.5630   15.8980 C.ar  101  TRP101      0.0191
     53  CZ3       18.3840    6.1450   17.4190 C.ar  101  TRP101      0.0001
     54  CH2       19.2950    5.8360   16.4050 C.ar  101  TRP101      0.0015
     55  N         14.9410    1.4620   24.0710 N.3   180  HIS180     -0.1241
     56  CA        15.0740    2.9000   23.8550 C.3   180  HIS180      0.1621
     57  C         13.6880    3.5480   23.8310 C.2   180  HIS180      0.2264
     58  O         13.0500    3.6530   22.7830 O.2   180  HIS180     -0.2867
     59  CB        15.8240    3.2140   22.5760 C.3   180  HIS180      0.0745
     60  CG        16.3390    4.6140   22.5220 C.ar  180  HIS180      0.0817
     61  ND1       15.8280    5.6290   23.3090 N.ar  180  HIS180     -0.2268
     62  CD2       17.3430    5.1630   21.7930 C.ar  180  HIS180      0.1154
     63  CE1       16.5040    6.7400   23.0630 C.ar  180  HIS180      0.1986
     64  NE2       17.4190    6.4870   22.1410 N.ar  180  HIS180     -0.2212
     65  N         13.9810   10.1360   23.9390 N.3   183  HIS183     -0.1241
     66  CA        14.6150   10.9860   22.9140 C.3   183  HIS183      0.1621
     67  C         13.8290   11.1360   21.6170 C.2   183  HIS183      0.2264
     68  O         14.3860   11.3890   20.5590 O.2   183  HIS183     -0.2867
     69  CB        16.0500   10.5310   22.6330 C.3   183  HIS183      0.0745
     70  CG        16.9240   10.5810   23.8400 C.ar  183  HIS183      0.0817
     71  ND1       18.1240    9.9070   23.9100 N.ar  183  HIS183     -0.2268
     72  CD2       16.7840   11.2320   25.0210 C.ar  183  HIS183      0.1154
     73  CE1       18.6900   10.1610   25.0800 C.ar  183  HIS183      0.1986
     74  NE2       17.8950   10.9520   25.7770 N.ar  183  HIS183     -0.2212
     75  N         12.1470    8.8650   19.8550 N.3   185  TYR185     -0.1241
     76  CA        12.0810    7.7090   18.9400 C.3   185  TYR185      0.1605
     77  C         10.7230    7.0090   19.1030 C.2   185  TYR185      0.2264
     78  O          9.8100    7.5730   19.7350 O.2   185  TYR185     -0.2867
     79  CB        13.3400    6.8230   19.0740 C.3   185  TYR185      0.0534
     80  CG        14.5570    7.6320   18.7090 C.ar  185  TYR185     -0.0201
     81  CD1       14.7490    8.0730   17.4040 C.ar  185  TYR185     -0.0009
     82  CD2       15.4830    8.0050   19.6710 C.ar  185  TYR185     -0.0009
     83  CE1       15.8360    8.8680   17.0780 C.ar  185  TYR185      0.0417
     84  CE2       16.5690    8.8070   19.3570 C.ar  185  TYR185      0.0417
     85  CZ        16.7380    9.2430   18.0620 C.ar  185  TYR185      0.1957
     86  OH        17.8370   10.0270   17.7910 O.3   185  TYR185     -0.2866
     87  N         15.3000    2.8750   28.9030 N.3   232  ARG232     -0.1245
     88  CA        15.7040    4.2750   28.9570 C.3   232  ARG232      0.1563
     89  C         14.5070    5.1500   28.6360 C.2   232  ARG232      0.2260
     90  O         13.8450    4.9620   27.6130 O.2   232  ARG232     -0.2867
     91  CB        16.8590    4.5770   28.0080 C.3   232  ARG232      0.0307
     92  CG        17.5630    5.8740   28.3890 C.3   232  ARG232      0.0489
     93  CD        18.8030    6.1800   27.5960 C.3   232  ARG232      0.2205
     94  NE        19.7490    6.9620   28.3990 N.pl3 232  ARG232     -0.0865
     95  CZ        20.7480    7.6930   27.9200 C.cat 232  ARG232      0.5346
     96  NH1       20.8740    7.9200   26.6300 N.pl3 232  ARG232      0.1354
     97  NH2       21.6160    8.2200   28.7630 N.pl3 232  ARG232      0.1354
     98  N         12.8730   16.7190   24.0820 N.3   239  PHE239     -0.1227
     99  CA        13.9800   16.0250   23.4140 C.3   239  PHE239      0.1736
    100  C         13.6310   15.8830   21.9410 C.2   239  PHE239      0.2595
    101  O         12.5960   15.3130   21.6040 O.2   239  PHE239     -0.2718
    102  CB        14.2080   14.6420   24.0430 C.3   239  PHE239      0.0547
    103  CG        14.5680   14.6980   25.4950 C.ar  239  PHE239     -0.0202
    104  CD1       13.5980   14.9300   26.4620 C.ar  239  PHE239     -0.0042
    105  CD2       15.8810   14.5410   25.9030 C.ar  239  PHE239     -0.0042
    106  CE1       13.9380   15.0330   27.7980 C.ar  239  PHE239     -0.0003
    107  CE2       16.2180   14.6190   27.2410 C.ar  239  PHE239     -0.0003
    108  CZ        15.2550   14.8830   28.1900 C.ar  239  PHE239     -0.0000
    109  N         14.4790   16.4280   21.0720 N.am  240  GLN240     -0.1979
    110  CA        14.2640   16.4010   19.6170 C.3   240  GLN240      0.1601
    111  C         12.8320   16.7620   19.2290 C.2   240  GLN240      0.2287
    112  O         12.1830   16.0530   18.4510 O.2   240  GLN240     -0.2864
    113  CB        14.6830   15.0430   19.0520 C.3   240  GLN240      0.0394
    114  CG        16.1570   14.8060   19.2320 C.3   240  GLN240      0.0908
    115  CD        16.6870   13.6940   18.3660 C.2   240  GLN240      0.2608
    116  OE1       17.2650   13.9380   17.3060 O.2   240  GLN240     -0.2717
    117  NE2       16.5100   12.4630   18.8200 N.am  240  GLN240     -0.0878
    118  N         17.3530    9.6090   31.2110 N.3   270  SER270     -0.1217
    119  CA        18.0800   10.6390   30.4890 C.3   270  SER270      0.1889
    120  C         17.4620   11.9850   30.8310 C.2   270  SER270      0.2288
    121  O         16.3130   12.2480   30.4730 O.2   270  SER270     -0.2866
    122  CB        18.0010   10.3930   28.9940 C.3   270  SER270      0.2089
    123  OG        18.6200   11.4640   28.3050 O.3   270  SER270     -0.2183
    124  N         18.4350   15.2850   30.3930 N.3   272  THR272     -0.1203
    125  CA        18.5530   16.4640   29.5330 C.3   272  THR272      0.1994
    126  C         19.2450   16.0650   28.2420 C.2   272  THR272      0.2618
    127  O         20.0040   15.0950   28.2290 O.2   272  THR272     -0.2717
    128  CB        19.4070   17.5580   30.2050 C.3   272  THR272      0.1784
    129  OG1       19.5090   18.6750   29.3250 O.3   272  THR272     -0.2211
    130  CG2       20.8120   17.0480   30.5390 C.3   272  THR272      0.0376
    131  N         18.9960   16.8120   27.1670 N.am  273  ASP273     -0.1959
    132  CA        19.8170   16.6780   25.9620 C.3   273  ASP273      0.1840
    133  C         21.0730   17.5580   26.1110 C.2   273  ASP273      0.2621
    134  O         21.3360   18.0990   27.1860 O.2   273  ASP273     -0.2715
    135  CB        19.0090   16.9420   24.6730 C.3   273  ASP273      0.1450
    136  CG        18.6420   18.3920   24.4720 C.2   273  ASP273      0.3671
    137  OD1       19.1480   19.2830   25.1840 O.co2 273  ASP273     -0.2456
    138  OD2       17.8400   18.6560   23.5480 O.co2 273  ASP273     -0.2456
    139  N         21.8700   17.6750   25.0530 N.am  274  LEU274     -0.1977
    140  CA        23.1530   18.3890   25.1750 C.3   274  LEU274      0.1596
    141  C         22.9890   19.8920   25.4290 C.2   274  LEU274      0.2287
    142  O         23.9030   20.5320   25.9380 O.2   274  LEU274     -0.2864
    143  CB        24.0480   18.1370   23.9540 C.3   274  LEU274      0.0297
    144  CG        24.2740   16.6730   23.5480 C.3   274  LEU274      0.0022
    145  CD1       25.4070   16.5970   22.5280 C.3   274  LEU274      0.0001
    146  CD2       24.5640   15.7190   24.7210 C.3   274  LEU274      0.0001
    147  N         30.1990   11.2900   14.8900 N.3   350  TYR350     -0.1241
    148  CA        29.3280   10.5750   13.9380 C.3   350  TYR350      0.1605
    149  C         30.0490   10.2680   12.6350 C.2   350  TYR350      0.2264
    150  O         30.5420   11.1720   11.9560 O.2   350  TYR350     -0.2867
    151  CB        28.0810   11.4120   13.6390 C.3   350  TYR350      0.0534
    152  CG        27.1860   11.6730   14.8250 C.ar  350  TYR350     -0.0201
    153  CD1       26.4340   10.6450   15.3890 C.ar  350  TYR350     -0.0009
    154  CD2       27.0730   12.9420   15.3860 C.ar  350  TYR350     -0.0009
    155  CE1       25.5890   10.8760   16.4620 C.ar  350  TYR350      0.0417
    156  CE2       26.2390   13.1720   16.4720 C.ar  350  TYR350      0.0417
    157  CZ        25.4790   12.1410   17.0020 C.ar  350  TYR350      0.1957
    158  OH        24.6270   12.3710   18.0770 O.3   350  TYR350     -0.2866
@<TRIPOS>BOND
     1    22    23    2
     2    22    21    1
     3    21    20    1
     4    21    24    1
     5    24    25    1
     6   150   149    2
     7   149   148    1
     8    25    27   ar
     9    25    26   ar
    10    27    29   ar
    11    26    28   ar
    12   151   148    1
    13   151   152    1
    14    29    30   ar
    15   148   147    1
    16    28    30   ar
    17    30    31    1
    18   152   154   ar
    19   152   153   ar
    20   154   156   ar
    21   153   155   ar
    22    52    54   ar
    23    52    50   ar
    24    49    50   ar
    25    49    47   ar
    26    14    12    1
    27    54    53   ar
    28    50    48   ar
    29   155   157   ar
    30   156   157   ar
    31    47    46   ar
    32   157   158    1
    33    44    43    2
    34    83    81   ar
    35    83    85   ar
    36   116   115    2
    37    18    17    2
    38    81    80   ar
    39    53    51   ar
    40    48    46   ar
    41    48    51   ar
    42    10    11    2
    43    10     9    1
    44    12    13    1
    45    12     9    1
    46    86    85    1
    47    46    45    1
    48    43    42    1
    49    85    84   ar
    50     9     8    1
    51    17    16    1
    52   115   117   am
    53   115   114    1
    54   112   111    2
    55    80    79    1
    56    80    82   ar
    57    45    42    1
    58    76    79    1
    59    76    77    1
    60    76    75    1
    61   113   114    1
    62   113   110    1
    63    77    78    2
    64    42    41    1
    65   111   110    1
    66    19    16    1
    67    84    82   ar
    68    16    15    1
    69   110   109    1
    70    68    67    2
    71    35    34    2
    72   109   100   am
    73   101   100    2
    74    67    66    1
    75    62    64   ar
    76    62    60   ar
    77   100    99    1
    78    34    33    1
    79    64    63   ar
    80    39    38    2
    81    60    59    1
    82    60    61   ar
    83   145   144    1
    84    59    56    1
    85    69    66    1
    86    69    70    1
    87    58    57    2
    88    66    65    1
    89    63    61   ar
    90    33    32    1
    91    33    36    1
    92    99   102    1
    93    99    98    1
    94    36    37    1
    95    38    37    1
    96    38    40   am
    97   138   136   ar
    98   144   143    1
    99   144   146    1
   100     3     4    2
   101     3     2    1
   102    57    56    1
   103    70    71   ar
   104    70    72   ar
   105    56    55    1
   106    71    73   ar
   107   143   140    1
   108   102   103    1
   109   136   135    1
   110   136   137   ar
   111     5     2    1
   112     5     6    1
   113     2     1    1
   114   135   132    1
   115    72    74   ar
   116   139   140    1
   117   139   133   am
   118    73    74   ar
   119   140   141    1
   120   141   142    2
   121   103   105   ar
   122   103   104   ar
   123     6     7    1
   124   105   107   ar
   125   132   133    1
   126   132   131    1
   127     1     7    1
   128   133   134    2
   129   104   106   ar
   130    96    95    1
   131   131   126   am
   132   107   108   ar
   133    93    92    1
   134    93    94    1
   135    90    89    2
   136   106   108   ar
   137    95    94    2
   138    95    97    1
   139    91    92    1
   140    91    88    1
   141   127   126    2
   142   126   125    1
   143   123   122    1
   144    89    88    1
   145    87    88    1
   146   122   119    1
   147   129   128    1
   148   125   128    1
   149   125   124    1
   150   128   130    1
   151   121   120    2
   152   119   120    1
   153   119   118    1
