@<TRIPOS>MOLECULE
tmp/3p7yA00.pdb
 158 154 0 0 0
SMALL
GASTEIGER

@<TRIPOS>ATOM
      1  N         24.6090    4.7750   26.0690 N.3    23  PRO23      -0.2102
      2  CA        24.4580    4.4220   24.6610 C.3    23  PRO23       0.1504
      3  C         24.8550    5.5920   23.7560 C.2    23  PRO23       0.2576
      4  O         24.4060    6.7310   23.9500 O.2    23  PRO23      -0.2718
      5  CB        22.9640    4.0880   24.5480 C.3    23  PRO23       0.0282
      6  CG        22.3030    4.8790   25.6550 C.3    23  PRO23       0.0208
      7  CD        23.3170    4.8600   26.7740 C.3    23  PRO23       0.0893
      8  N         25.6890    5.3080   22.7640 N.am   24  LEU24      -0.1966
      9  CA        26.2860    6.3480   21.9110 C.3    24  LEU24       0.1728
     10  C         26.2920    5.9080   20.4610 C.2    24  LEU24       0.2617
     11  O         27.1030    5.0820   20.0610 O.2    24  LEU24      -0.2715
     12  CB        27.7130    6.7010   22.3680 C.3    24  LEU24       0.0311
     13  CG        27.8270    7.3240   23.7640 C.3    24  LEU24       0.0022
     14  CD1       29.1980    7.0110   24.3770 C.3    24  LEU24       0.0001
     15  CD2       27.5520    8.8180   23.6860 C.3    24  LEU24       0.0001
     16  N         25.3910    6.4740   19.6820 N.am   25  THR25      -0.1937
     17  CA        25.3480    6.3090   18.2440 C.3    25  THR25       0.2028
     18  C         26.5960    6.9050   17.6110 C.2    25  THR25       0.2642
     19  O         26.9230    8.0680   17.8420 O.2    25  THR25      -0.2714
     20  CB        24.0620    6.9820   17.7220 C.3    25  THR25       0.1808
     21  OG1       22.9360    6.1710   18.0700 O.3    25  THR25      -0.2208
     22  CG2       24.0630    7.1550   16.2250 C.3    25  THR25       0.0379
     23  N         27.3160    6.0890   16.8460 N.am   26  ARG26      -0.1977
     24  CA        28.5810    6.5000   16.2370 C.3    26  ARG26       0.1597
     25  C         28.6020    6.3270   14.7090 C.2    26  ARG26       0.2287
     26  O         29.5050    6.8260   14.0380 O.2    26  ARG26      -0.2864
     27  CB        29.7720    5.7710   16.8840 C.3    26  ARG26       0.0334
     28  CG        29.8500    5.8970   18.4080 C.3    26  ARG26       0.0492
     29  CD        30.0010    7.3210   18.9420 C.3    26  ARG26       0.2205
     30  NE        31.1770    8.0170   18.4220 N.pl3  26  ARG26      -0.0865
     31  CZ        32.4200    7.8740   18.8710 C.cat  26  ARG26       0.5346
     32  NH1       32.6910    7.0960   19.9010 N.pl3  26  ARG26       0.1354
     33  NH2       33.4060    8.5520   18.3130 N.pl3  26  ARG26       0.1354
     34  N         22.5010    2.6800   19.9490 N.3    57  ALA57      -0.1245
     35  CA        21.1650    2.2550   19.5670 C.3    57  ALA57       0.1562
     36  C         21.2510    1.3460   18.3390 C.2    57  ALA57       0.2260
     37  O         21.9460    1.6340   17.3620 O.2    57  ALA57      -0.2867
     38  CB        20.2880    3.4740   19.2780 C.3    57  ALA57       0.0290
     39  N         21.3250   -1.5630   23.4070 N.3    99  GLN99      -0.1245
     40  CA        20.1770   -0.6510   23.3630 C.3    99  GLN99       0.1566
     41  C         19.4380   -0.9050   22.0530 C.2    99  GLN99       0.2260
     42  O         20.0050   -0.7920   20.9660 O.2    99  GLN99      -0.2867
     43  CB        20.5900    0.8160   23.4510 C.3    99  GLN99       0.0367
     44  CG        19.3540    1.7020   23.6440 C.3    99  GLN99       0.0905
     45  CD        19.5930    3.1860   23.5200 C.2    99  GLN99       0.2608
     46  OE1       20.0820    3.6510   22.4900 O.2    99  GLN99      -0.2717
     47  NE2       19.1800    3.9420   24.5360 N.am   99  GLN99      -0.0878
     48  N         16.2630    0.0130   19.5060 N.3   101  TRP101     -0.1241
     49  CA        15.3250    1.0720   19.1050 C.3   101  TRP101      0.1605
     50  C         14.5600    0.7450   17.8430 C.2   101  TRP101      0.2264
     51  O         14.9340   -0.1030   17.0170 O.2   101  TRP101     -0.2867
     52  CB        15.9780    2.4610   18.9230 C.3   101  TRP101      0.0550
     53  CG        16.9540    2.6580   17.7930 C.ar  101  TRP101      0.0003
     54  CD1       17.4780    1.7070   16.9640 C.ar  101  TRP101      0.0946
     55  CD2       17.6220    3.8740   17.4710 C.ar  101  TRP101      0.0152
     56  NE1       18.4150    2.2650   16.1300 N.ar  101  TRP101     -0.2442
     57  CE2       18.5260    3.5960   16.4260 C.ar  101  TRP101      0.0810
     58  CE3       17.5410    5.1790   17.9590 C.ar  101  TRP101      0.0012
     59  CZ2       19.3830    4.5630   15.8980 C.ar  101  TRP101      0.0191
     60  CZ3       18.3840    6.1450   17.4190 C.ar  101  TRP101      0.0001
     61  CH2       19.2950    5.8360   16.4050 C.ar  101  TRP101      0.0015
     62  N         14.9410    1.4620   24.0710 N.3   180  HIS180     -0.1241
     63  CA        15.0740    2.9000   23.8550 C.3   180  HIS180      0.1621
     64  C         13.6880    3.5480   23.8310 C.2   180  HIS180      0.2264
     65  O         13.0500    3.6530   22.7830 O.2   180  HIS180     -0.2867
     66  CB        15.8240    3.2140   22.5760 C.3   180  HIS180      0.0745
     67  CG        16.3390    4.6140   22.5220 C.ar  180  HIS180      0.0817
     68  ND1       15.8280    5.6290   23.3090 N.ar  180  HIS180     -0.2268
     69  CD2       17.3430    5.1630   21.7930 C.ar  180  HIS180      0.1154
     70  CE1       16.5040    6.7400   23.0630 C.ar  180  HIS180      0.1986
     71  NE2       17.4190    6.4870   22.1410 N.ar  180  HIS180     -0.2212
     72  N         13.9810   10.1360   23.9390 N.3   183  HIS183     -0.1241
     73  CA        14.6150   10.9860   22.9140 C.3   183  HIS183      0.1621
     74  C         13.8290   11.1360   21.6170 C.2   183  HIS183      0.2264
     75  O         14.3860   11.3890   20.5590 O.2   183  HIS183     -0.2867
     76  CB        16.0500   10.5310   22.6330 C.3   183  HIS183      0.0745
     77  CG        16.9240   10.5810   23.8400 C.ar  183  HIS183      0.0817
     78  ND1       18.1240    9.9070   23.9100 N.ar  183  HIS183     -0.2268
     79  CD2       16.7840   11.2320   25.0210 C.ar  183  HIS183      0.1154
     80  CE1       18.6900   10.1610   25.0800 C.ar  183  HIS183      0.1986
     81  NE2       17.8950   10.9520   25.7770 N.ar  183  HIS183     -0.2212
     82  N         12.1470    8.8650   19.8550 N.3   185  TYR185     -0.1241
     83  CA        12.0810    7.7090   18.9400 C.3   185  TYR185      0.1605
     84  C         10.7230    7.0090   19.1030 C.2   185  TYR185      0.2264
     85  O          9.8100    7.5730   19.7350 O.2   185  TYR185     -0.2867
     86  CB        13.3400    6.8230   19.0740 C.3   185  TYR185      0.0534
     87  CG        14.5570    7.6320   18.7090 C.ar  185  TYR185     -0.0201
     88  CD1       14.7490    8.0730   17.4040 C.ar  185  TYR185     -0.0009
     89  CD2       15.4830    8.0050   19.6710 C.ar  185  TYR185     -0.0009
     90  CE1       15.8360    8.8680   17.0780 C.ar  185  TYR185      0.0417
     91  CE2       16.5690    8.8070   19.3570 C.ar  185  TYR185      0.0417
     92  CZ        16.7380    9.2430   18.0620 C.ar  185  TYR185      0.1957
     93  OH        17.8370   10.0270   17.7910 O.3   185  TYR185     -0.2866
     94  N         15.3000    2.8750   28.9030 N.3   232  ARG232     -0.1245
     95  CA        15.7040    4.2750   28.9570 C.3   232  ARG232      0.1563
     96  C         14.5070    5.1500   28.6360 C.2   232  ARG232      0.2260
     97  O         13.8450    4.9620   27.6130 O.2   232  ARG232     -0.2867
     98  CB        16.8590    4.5770   28.0080 C.3   232  ARG232      0.0307
     99  CG        17.5630    5.8740   28.3890 C.3   232  ARG232      0.0489
    100  CD        18.8030    6.1800   27.5960 C.3   232  ARG232      0.2205
    101  NE        19.7490    6.9620   28.3990 N.pl3 232  ARG232     -0.0865
    102  CZ        20.7480    7.6930   27.9200 C.cat 232  ARG232      0.5346
    103  NH1       20.8740    7.9200   26.6300 N.pl3 232  ARG232      0.1354
    104  NH2       21.6160    8.2200   28.7630 N.pl3 232  ARG232      0.1354
    105  N         21.8700   17.6750   25.0530 N.3   274  LEU274     -0.1245
    106  CA        23.1530   18.3890   25.1750 C.3   274  LEU274      0.1561
    107  C         22.9890   19.8920   25.4290 C.2   274  LEU274      0.2260
    108  O         23.9030   20.5320   25.9380 O.2   274  LEU274     -0.2867
    109  CB        24.0480   18.1370   23.9540 C.3   274  LEU274      0.0270
    110  CG        24.2740   16.6730   23.5480 C.3   274  LEU274      0.0019
    111  CD1       25.4070   16.5970   22.5280 C.3   274  LEU274      0.0001
    112  CD2       24.5640   15.7190   24.7210 C.3   274  LEU274      0.0001
    113  N         28.2520    9.7670   28.7140 N.3   322  GLY322     -0.1210
    114  CA        28.2820    9.6830   27.2580 C.3   322  GLY322      0.1956
    115  C         29.5840   10.2090   26.6810 C.2   322  GLY322      0.2611
    116  O         30.5250    9.4440   26.3930 O.2   322  GLY322     -0.2717
    117  N         29.6930   11.5290   26.5540 N.am  323  ARG323     -0.1979
    118  CA        30.8510   12.1100   25.8980 C.3   323  ARG323      0.1597
    119  C         32.1650   11.8170   26.6030 C.2   323  ARG323      0.2287
    120  O         33.1840   11.5980   25.9360 O.2   323  ARG323     -0.2864
    121  CB        30.6200   13.5970   25.6820 C.3   323  ARG323      0.0334
    122  CG        29.5330   13.8690   24.6310 C.3   323  ARG323      0.0492
    123  CD        28.9890   15.2780   24.6860 C.3   323  ARG323      0.2205
    124  NE        28.2290   15.5050   25.9040 N.pl3 323  ARG323     -0.0865
    125  CZ        27.6480   16.6620   26.2010 C.cat 323  ARG323      0.5346
    126  NH1       27.7840   17.7130   25.4030 N.pl3 323  ARG323      0.1354
    127  NH2       26.9510   16.7780   27.3210 N.pl3 323  ARG323      0.1354
    128  N         33.1630    8.5180   25.2080 N.3   326  ILE326     -0.1245
    129  CA        33.7190    8.6200   23.8600 C.3   326  ILE326      0.1561
    130  C         35.2400    8.8400   23.9780 C.2   326  ILE326      0.2260
    131  O         36.0320    8.1880   23.3100 O.2   326  ILE326     -0.2867
    132  CB        33.0670    9.7850   23.0450 C.3   326  ILE326      0.0252
    133  CG1       31.5940    9.4560   22.7360 C.3   326  ILE326      0.0019
    134  CG2       33.8660   10.0650   21.7840 C.3   326  ILE326      0.0019
    135  CD1       30.8650   10.5250   21.9500 C.3   326  ILE326      0.0001
    136  N         32.4550   12.4100   16.2670 N.3   349  PHE349     -0.1227
    137  CA        31.4430   11.6310   16.9850 C.3   349  PHE349      0.1736
    138  C         30.6540   10.7340   16.0110 C.2   349  PHE349      0.2595
    139  O         30.4450    9.5510   16.2840 O.2   349  PHE349     -0.2718
    140  CB        30.4860   12.5360   17.7620 C.3   349  PHE349      0.0547
    141  CG        31.0670   13.1690   19.0180 C.ar  349  PHE349     -0.0202
    142  CD1       32.3690   12.9040   19.4660 C.ar  349  PHE349     -0.0042
    143  CD2       30.2810   14.0490   19.7660 C.ar  349  PHE349     -0.0042
    144  CE1       32.8480   13.4890   20.6470 C.ar  349  PHE349     -0.0003
    145  CE2       30.7780   14.6370   20.9310 C.ar  349  PHE349     -0.0003
    146  CZ        32.0630   14.3620   21.3540 C.ar  349  PHE349     -0.0000
    147  N         30.1990   11.2900   14.8900 N.am  350  TYR350     -0.1976
    148  CA        29.3280   10.5750   13.9380 C.3   350  TYR350      0.1639
    149  C         30.0490   10.2680   12.6350 C.2   350  TYR350      0.2290
    150  O         30.5420   11.1720   11.9560 O.2   350  TYR350     -0.2864
    151  CB        28.0810   11.4120   13.6390 C.3   350  TYR350      0.0560
    152  CG        27.1860   11.6730   14.8250 C.ar  350  TYR350     -0.0198
    153  CD1       26.4340   10.6450   15.3890 C.ar  350  TYR350     -0.0009
    154  CD2       27.0730   12.9420   15.3860 C.ar  350  TYR350     -0.0009
    155  CE1       25.5890   10.8760   16.4620 C.ar  350  TYR350      0.0417
    156  CE2       26.2390   13.1720   16.4720 C.ar  350  TYR350      0.0417
    157  CZ        25.4790   12.1410   17.0020 C.ar  350  TYR350      0.1957
    158  OH        24.6270   12.3710   18.0770 O.3   350  TYR350     -0.2866
@<TRIPOS>BOND
     1   150   149    2
     2   149   148    1
     3   151   148    1
     4   151   152    1
     5   148   147    1
     6    26    25    2
     7    25    24    1
     8   152   154   ar
     9   152   153   ar
    10   147   138   am
    11   154   156   ar
    12   153   155   ar
    13    59    61   ar
    14    59    57   ar
    15   138   139    2
    16   138   137    1
    17    56    57   ar
    18    56    54   ar
    19    22    20    1
    20    24    23    1
    21    24    27    1
    22   136   137    1
    23    61    60   ar
    24    57    55   ar
    25   155   157   ar
    26   156   157   ar
    27    23    18   am
    28    27    28    1
    29    54    53   ar
    30   137   140    1
    31   157   158    1
    32    51    50    2
    33    90    88   ar
    34    90    92   ar
    35    37    36    2
    36    88    87   ar
    37    60    58   ar
    38    55    53   ar
    39    55    58   ar
    40    18    19    2
    41    18    17    1
    42    20    21    1
    43    20    17    1
    44   140   141    1
    45    93    92    1
    46    53    52    1
    47    50    49    1
    48    92    91   ar
    49    17    16    1
    50    33    31    1
    51    36    35    1
    52    28    29    1
    53    30    31    2
    54    30    29    1
    55    87    86    1
    56    87    89   ar
    57    31    32    1
    58    52    49    1
    59    83    86    1
    60    83    84    1
    61    83    82    1
    62   141   142   ar
    63   141   143   ar
    64    84    85    2
    65    49    48    1
    66    38    35    1
    67    91    89   ar
    68   142   144   ar
    69    35    34    1
    70    16    10   am
    71   143   145   ar
    72    11    10    2
    73    10     9    1
    74    75    74    2
    75   144   146   ar
    76   145   146   ar
    77    42    41    2
    78    74    73    1
    79   134   132    1
    80    69    71   ar
    81    69    67   ar
    82     9    12    1
    83     9     8    1
    84   135   133    1
    85    41    40    1
    86    71    70   ar
    87    12    13    1
    88    46    45    2
    89    67    66    1
    90    67    68   ar
    91   111   110    1
    92    66    63    1
    93    76    73    1
    94    76    77    1
    95   133   132    1
    96     8     3   am
    97    65    64    2
    98    73    72    1
    99   132   129    1
   100    70    68   ar
   101   131   130    2
   102    40    39    1
   103    40    43    1
   104    43    44    1
   105    45    44    1
   106    45    47   am
   107   110   109    1
   108   110   112    1
   109    15    13    1
   110     3     4    2
   111     3     2    1
   112    13    14    1
   113    64    63    1
   114    77    78   ar
   115    77    79   ar
   116    63    62    1
   117   129   130    1
   118   129   128    1
   119    78    80   ar
   120   109   106    1
   121     5     2    1
   122     5     6    1
   123   122   123    1
   124   122   121    1
   125     2     1    1
   126   123   124    1
   127    79    81   ar
   128   105   106    1
   129    80    81   ar
   130   106   107    1
   131   126   125    1
   132   107   108    2
   133     6     7    1
   134   121   118    1
   135   118   117    1
   136   118   119    1
   137   124   125    2
   138   120   119    2
   139     1     7    1
   140   125   127    1
   141   116   115    2
   142   117   115   am
   143   103   102    1
   144   115   114    1
   145   114   113    1
   146   100    99    1
   147   100   101    1
   148    97    96    2
   149   102   101    2
   150   102   104    1
   151    98    99    1
   152    98    95    1
   153    96    95    1
   154    94    95    1
