@<TRIPOS>MOLECULE
tmp/3p80A00.pdb
 158 154 0 0 0
SMALL
GASTEIGER

@<TRIPOS>ATOM
      1  N          4.1300   -4.9470  -18.4170 N.3    23  PRO23      -0.2102
      2  CA         4.2810   -4.5890  -19.8230 C.3    23  PRO23       0.1504
      3  C          3.8980   -5.7530  -20.7180 C.2    23  PRO23       0.2576
      4  O          4.3420   -6.8840  -20.5000 O.2    23  PRO23      -0.2718
      5  CB         5.7760   -4.2520  -19.9430 C.3    23  PRO23       0.0282
      6  CG         6.4310   -5.0280  -18.8160 C.3    23  PRO23       0.0208
      7  CD         5.4200   -4.9930  -17.7020 C.3    23  PRO23       0.0893
      8  N          3.0720   -5.4760  -21.7180 N.am   24  LEU24      -0.1966
      9  CA         2.4730   -6.5060  -22.5650 C.3    24  LEU24       0.1728
     10  C          2.4660   -6.0460  -24.0030 C.2    24  LEU24       0.2617
     11  O          1.6370   -5.2440  -24.4360 O.2    24  LEU24      -0.2715
     12  CB         1.0470   -6.8430  -22.1180 C.3    24  LEU24       0.0311
     13  CG         0.9100   -7.4540  -20.7260 C.3    24  LEU24       0.0022
     14  CD1       -0.4840   -7.1760  -20.1390 C.3    24  LEU24       0.0001
     15  CD2        1.2160   -8.9630  -20.7830 C.3    24  LEU24       0.0001
     16  N          3.3600   -6.6220  -24.7870 N.am   25  THR25      -0.1937
     17  CA         3.4090   -6.4620  -26.2430 C.3    25  THR25       0.2028
     18  C          2.1530   -7.0620  -26.8570 C.2    25  THR25       0.2642
     19  O          1.8450   -8.2160  -26.6060 O.2    25  THR25      -0.2714
     20  CB         4.6840   -7.1530  -26.7600 C.3    25  THR25       0.1808
     21  OG1        5.8160   -6.3640  -26.3990 O.3    25  THR25      -0.2208
     22  CG2        4.6970   -7.3630  -28.2510 C.3    25  THR25       0.0379
     23  N          1.4460   -6.2650  -27.6480 N.am   26  ARG26      -0.1977
     24  CA         0.2000   -6.6900  -28.2660 C.3    26  ARG26       0.1597
     25  C          0.2120   -6.5180  -29.7890 C.2    26  ARG26       0.2287
     26  O         -0.6830   -7.0290  -30.4630 O.2    26  ARG26      -0.2864
     27  CB        -0.9820   -5.9620  -27.6350 C.3    26  ARG26       0.0334
     28  CG        -1.0600   -6.0670  -26.1050 C.3    26  ARG26       0.0492
     29  CD        -1.2020   -7.4810  -25.5660 C.3    26  ARG26       0.2205
     30  NE        -2.3710   -8.1940  -26.0820 N.pl3  26  ARG26      -0.0865
     31  CZ        -3.6040   -8.0780  -25.6160 C.cat  26  ARG26       0.5346
     32  NH1       -3.8970   -7.2990  -24.6030 N.pl3  26  ARG26       0.1354
     33  NH2       -4.5820   -8.7640  -26.1810 N.pl3  26  ARG26       0.1354
     34  N          6.2430   -2.7970  -24.5560 N.3    57  ALA57      -0.1245
     35  CA         7.5740   -2.3810  -24.9600 C.3    57  ALA57       0.1562
     36  C          7.4860   -1.4810  -26.1900 C.2    57  ALA57       0.2260
     37  O          6.7800   -1.7810  -27.1520 O.2    57  ALA57      -0.2867
     38  CB         8.4360   -3.6060  -25.2350 C.3    57  ALA57       0.0290
     39  N          7.4190    1.4050  -21.1030 N.3    99  GLN99      -0.1245
     40  CA         8.5610    0.5080  -21.1640 C.3    99  GLN99       0.1566
     41  C          9.3010    0.7700  -22.4670 C.2    99  GLN99       0.2260
     42  O          8.7280    0.6450  -23.5340 O.2    99  GLN99      -0.2867
     43  CB         8.1330   -0.9510  -21.0530 C.3    99  GLN99       0.0367
     44  CG         9.3640   -1.8390  -20.9070 C.3    99  GLN99       0.0905
     45  CD         9.1390   -3.3320  -20.9940 C.2    99  GLN99       0.2608
     46  OE1        8.6340   -3.8320  -21.9990 O.2    99  GLN99      -0.2717
     47  NE2        9.5420   -4.0620  -19.9460 N.am   99  GLN99      -0.0878
     48  N         12.4720   -0.0760  -24.9930 N.3   101  TRP101     -0.1241
     49  CA        13.4350   -1.1050  -25.3970 C.3   101  TRP101      0.1605
     50  C         14.1820   -0.7660  -26.6560 C.2   101  TRP101      0.2264
     51  O         13.7810    0.0650  -27.4840 O.2   101  TRP101     -0.2867
     52  CB        12.8230   -2.5070  -25.5850 C.3   101  TRP101      0.0550
     53  CG        11.8130   -2.7190  -26.7240 C.ar  101  TRP101      0.0003
     54  CD1       11.2540   -1.7810  -27.5700 C.ar  101  TRP101      0.0946
     55  CD2       11.1590   -3.9490  -27.0440 C.ar  101  TRP101      0.0152
     56  NE1       10.3100   -2.3470  -28.3720 N.ar  101  TRP101     -0.2442
     57  CE2       10.2370   -3.6780  -28.0760 C.ar  101  TRP101      0.0810
     58  CE3       11.2240   -5.2380  -26.5260 C.ar  101  TRP101      0.0012
     59  CZ2        9.3690   -4.6400  -28.5750 C.ar  101  TRP101      0.0191
     60  CZ3       10.3960   -6.2130  -27.0720 C.ar  101  TRP101      0.0001
     61  CH2        9.4820   -5.9070  -28.0760 C.ar  101  TRP101      0.0015
     62  N         13.8720   -1.4540  -20.4440 N.3   180  HIS180     -0.1241
     63  CA        13.7250   -2.8890  -20.6710 C.3   180  HIS180      0.1621
     64  C         15.1100   -3.5510  -20.6940 C.2   180  HIS180      0.2264
     65  O         15.7610   -3.6550  -21.7370 O.2   180  HIS180     -0.2867
     66  CB        13.0190   -3.1770  -21.9610 C.3   180  HIS180      0.0745
     67  CG        12.4930   -4.5690  -22.0430 C.ar  180  HIS180      0.0817
     68  ND1       13.0160   -5.6190  -21.3110 N.ar  180  HIS180     -0.2268
     69  CD2       11.4470   -5.0640  -22.7410 C.ar  180  HIS180      0.1154
     70  CE1       12.3030   -6.7030  -21.5720 C.ar  180  HIS180      0.1986
     71  NE2       11.3500   -6.3940  -22.4370 N.ar  180  HIS180     -0.2212
     72  N         14.8240  -10.1870  -20.6540 N.3   183  HIS183     -0.1241
     73  CA        14.2330  -11.0400  -21.6930 C.3   183  HIS183      0.1621
     74  C         15.0440  -11.1670  -22.9720 C.2   183  HIS183      0.2264
     75  O         14.5040  -11.4380  -24.0330 O.2   183  HIS183     -0.2867
     76  CB        12.7980  -10.6120  -22.0090 C.3   183  HIS183      0.0745
     77  CG        11.8730  -10.7070  -20.8350 C.ar  183  HIS183      0.0817
     78  ND1       10.6550  -10.0670  -20.8100 N.ar  183  HIS183     -0.2268
     79  CD2       11.9950  -11.3410  -19.6410 C.ar  183  HIS183      0.1154
     80  CE1       10.0520  -10.3350  -19.6640 C.ar  183  HIS183      0.1986
     81  NE2       10.8420  -11.1020  -18.9320 N.ar  183  HIS183     -0.2212
     82  N         16.6530   -8.8810  -24.7000 N.3   185  TYR185     -0.1241
     83  CA        16.7190   -7.7290  -25.5840 C.3   185  TYR185      0.1605
     84  C         18.0730   -7.0050  -25.4130 C.2   185  TYR185      0.2264
     85  O         18.9860   -7.5530  -24.7880 O.2   185  TYR185     -0.2867
     86  CB        15.4540   -6.8590  -25.4390 C.3   185  TYR185      0.0534
     87  CG        14.2410   -7.6650  -25.8450 C.ar  185  TYR185     -0.0201
     88  CD1       14.0870   -8.1010  -27.1480 C.ar  185  TYR185     -0.0009
     89  CD2       13.2930   -8.0730  -24.9080 C.ar  185  TYR185     -0.0009
     90  CE1       13.0080   -8.8790  -27.5210 C.ar  185  TYR185      0.0417
     91  CE2       12.2340   -8.8530  -25.2630 C.ar  185  TYR185      0.0417
     92  CZ        12.0830   -9.2730  -26.5630 C.ar  185  TYR185      0.1957
     93  OH        10.9890  -10.0530  -26.8690 O.3   185  TYR185     -0.2866
     94  N         13.3920   -2.9350  -15.6340 N.3   232  ARG232     -0.1245
     95  CA        13.0210   -4.3480  -15.5730 C.3   232  ARG232      0.1563
     96  C         14.2140   -5.2230  -15.9240 C.2   232  ARG232      0.2260
     97  O         14.8810   -5.0060  -16.9260 O.2   232  ARG232     -0.2867
     98  CB        11.8550   -4.6760  -16.5080 C.3   232  ARG232      0.0307
     99  CG        11.1470   -5.9450  -16.0970 C.3   232  ARG232      0.0489
    100  CD         9.9280   -6.2850  -16.9040 C.3   232  ARG232      0.2205
    101  NE         9.0150   -7.0890  -16.1000 N.pl3 232  ARG232     -0.0865
    102  CZ         8.0270   -7.8370  -16.5750 C.cat 232  ARG232      0.5346
    103  NH1        7.8980   -8.1100  -17.8590 N.pl3 232  ARG232      0.1354
    104  NH2        7.1600   -8.3650  -15.7280 N.pl3 232  ARG232      0.1354
    105  N          6.8190  -17.9830  -19.2840 N.3   274  LEU274     -0.1245
    106  CA         5.5400  -18.7090  -19.1520 C.3   274  LEU274      0.1561
    107  C          5.7320  -20.2030  -18.9040 C.2   274  LEU274      0.2260
    108  O          4.8290  -20.8720  -18.4180 O.2   274  LEU274     -0.2867
    109  CB         4.6500  -18.4930  -20.3770 C.3   274  LEU274      0.0270
    110  CG         4.4280  -17.0330  -20.8150 C.3   274  LEU274      0.0019
    111  CD1        3.3400  -16.9190  -21.8890 C.3   274  LEU274      0.0001
    112  CD2        4.1120  -16.0850  -19.6400 C.3   274  LEU274      0.0001
    113  N          0.5130   -9.9340  -15.7560 N.3   322  GLY322     -0.1210
    114  CA         0.5080   -9.8430  -17.2090 C.3   322  GLY322      0.1956
    115  C         -0.8020  -10.3880  -17.7810 C.2   322  GLY322      0.2611
    116  O         -1.7290   -9.6370  -18.1110 O.2   322  GLY322     -0.2717
    117  N         -0.8900  -11.7100  -17.9220 N.am  323  ARG323     -0.1979
    118  CA        -2.0400  -12.3120  -18.5790 C.3   323  ARG323      0.1597
    119  C         -3.3650  -12.0020  -17.8850 C.2   323  ARG323      0.2287
    120  O         -4.3740  -11.7790  -18.5580 O.2   323  ARG323     -0.2864
    121  CB        -1.8320  -13.8050  -18.7530 C.3   323  ARG323      0.0334
    122  CG        -0.7120  -14.1040  -19.7570 C.3   323  ARG323      0.0492
    123  CD        -0.2360  -15.5360  -19.6710 C.3   323  ARG323      0.2205
    124  NE         0.5600  -15.7560  -18.4800 N.pl3 323  ARG323     -0.0865
    125  CZ         1.1240  -16.9120  -18.1460 C.cat 323  ARG323      0.5346
    126  NH1        0.9600  -17.9740  -18.9090 N.pl3 323  ARG323      0.1354
    127  NH2        1.8490  -17.0030  -17.0470 N.pl3 323  ARG323      0.1354
    128  N         -4.3750   -8.7430  -19.3070 N.3   326  ILE326     -0.1245
    129  CA        -4.9510   -8.8500  -20.6530 C.3   326  ILE326      0.1561
    130  C         -6.4670   -9.0700  -20.5520 C.2   326  ILE326      0.2260
    131  O         -7.2610   -8.4290  -21.2180 O.2   326  ILE326     -0.2867
    132  CB        -4.3050  -10.0090  -21.4540 C.3   326  ILE326      0.0252
    133  CG1       -2.8240   -9.6670  -21.7510 C.3   326  ILE326      0.0019
    134  CG2       -5.0840  -10.3010  -22.7230 C.3   326  ILE326      0.0019
    135  CD1       -2.0770  -10.7560  -22.5300 C.3   326  ILE326      0.0001
    136  N         -3.6500  -12.6160  -28.2360 N.3   349  PHE349     -0.1227
    137  CA        -2.6490  -11.8180  -27.5340 C.3   349  PHE349      0.1736
    138  C         -1.8840  -10.9080  -28.5140 C.2   349  PHE349      0.2595
    139  O         -1.6450   -9.7430  -28.2100 O.2   349  PHE349     -0.2718
    140  CB        -1.6950  -12.7010  -26.7490 C.3   349  PHE349      0.0547
    141  CG        -2.2740  -13.3250  -25.4920 C.ar  349  PHE349     -0.0202
    142  CD1       -3.5760  -13.0940  -25.0410 C.ar  349  PHE349     -0.0042
    143  CD2       -1.4540  -14.1500  -24.7310 C.ar  349  PHE349     -0.0042
    144  CE1       -4.0310  -13.7000  -23.8740 C.ar  349  PHE349     -0.0003
    145  CE2       -1.9340  -14.7640  -23.5830 C.ar  349  PHE349     -0.0003
    146  CZ        -3.1980  -14.5240  -23.1490 C.ar  349  PHE349     -0.0000
    147  N         -1.4710  -11.4370  -29.6660 N.am  350  TYR350     -0.1976
    148  CA        -0.6100  -10.6990  -30.6010 C.3   350  TYR350      0.1639
    149  C         -1.3250  -10.3830  -31.9020 C.2   350  TYR350      0.2290
    150  O         -1.8590  -11.2740  -32.5720 O.2   350  TYR350     -0.2864
    151  CB         0.6390  -11.4950  -30.9250 C.3   350  TYR350      0.0560
    152  CG         1.4770  -11.8330  -29.7260 C.ar  350  TYR350     -0.0198
    153  CD1        2.1970  -10.8520  -29.0390 C.ar  350  TYR350     -0.0009
    154  CD2        1.5260  -13.1350  -29.2510 C.ar  350  TYR350     -0.0009
    155  CE1        2.9780  -11.1770  -27.9410 C.ar  350  TYR350      0.0417
    156  CE2        2.2960  -13.4650  -28.1560 C.ar  350  TYR350      0.0417
    157  CZ         3.0410  -12.4870  -27.5120 C.ar  350  TYR350      0.1957
    158  OH         3.8290  -12.7970  -26.4270 O.3   350  TYR350     -0.2866
@<TRIPOS>BOND
     1   150   149    2
     2   149   148    1
     3   151   148    1
     4   151   152    1
     5   148   147    1
     6    26    25    2
     7    25    24    1
     8   152   154   ar
     9   152   153   ar
    10   147   138   am
    11   154   156   ar
    12   153   155   ar
    13    59    57   ar
    14    59    61   ar
    15   138   139    2
    16   138   137    1
    17    56    57   ar
    18    56    54   ar
    19    24    23    1
    20    24    27    1
    21    22    20    1
    22   136   137    1
    23   156   157   ar
    24    57    55   ar
    25    61    60   ar
    26   155   157   ar
    27    23    18   am
    28    27    28    1
    29    54    53   ar
    30   137   140    1
    31    90    88   ar
    32    90    92   ar
    33   157   158    1
    34    51    50    2
    35    37    36    2
    36    88    87   ar
    37    60    58   ar
    38    55    53   ar
    39    55    58   ar
    40    93    92    1
    41    18    19    2
    42    18    17    1
    43    20    21    1
    44    20    17    1
    45   140   141    1
    46    53    52    1
    47    50    49    1
    48    92    91   ar
    49    17    16    1
    50    36    35    1
    51    33    31    1
    52    28    29    1
    53    30    31    2
    54    30    29    1
    55    87    86    1
    56    87    89   ar
    57    31    32    1
    58    52    49    1
    59    83    86    1
    60    83    84    1
    61    83    82    1
    62   141   142   ar
    63   141   143   ar
    64    84    85    2
    65    49    48    1
    66    91    89   ar
    67    38    35    1
    68   142   144   ar
    69    35    34    1
    70    16    10   am
    71   143   145   ar
    72    11    10    2
    73    75    74    2
    74    10     9    1
    75   144   146   ar
    76   145   146   ar
    77    42    41    2
    78    74    73    1
    79    69    71   ar
    80    69    67   ar
    81   134   132    1
    82     9    12    1
    83     9     8    1
    84   135   133    1
    85    41    40    1
    86    71    70   ar
    87    12    13    1
    88    67    66    1
    89    67    68   ar
    90    76    73    1
    91    76    77    1
    92    46    45    2
    93    66    63    1
    94   111   110    1
    95   133   132    1
    96    65    64    2
    97     8     3   am
    98    73    72    1
    99    70    68   ar
   100   132   129    1
   101   131   130    2
   102    40    39    1
   103    40    43    1
   104    43    44    1
   105    45    44    1
   106    45    47   am
   107    77    78   ar
   108    77    79   ar
   109   110   109    1
   110   110   112    1
   111    78    80   ar
   112    15    13    1
   113    13    14    1
   114     3     4    2
   115     3     2    1
   116    64    63    1
   117    63    62    1
   118   129   130    1
   119   129   128    1
   120   109   106    1
   121     5     2    1
   122     5     6    1
   123     2     1    1
   124   122   123    1
   125   122   121    1
   126   123   124    1
   127    80    81   ar
   128    79    81   ar
   129   105   106    1
   130   106   107    1
   131   126   125    1
   132   107   108    2
   133     6     7    1
   134   121   118    1
   135   118   117    1
   136   118   119    1
   137   120   119    2
   138   124   125    2
   139     1     7    1
   140   125   127    1
   141   116   115    2
   142   117   115   am
   143   103   102    1
   144   115   114    1
   145   114   113    1
   146    97    96    2
   147   100   101    1
   148   100    99    1
   149   102   101    2
   150   102   104    1
   151    98    99    1
   152    98    95    1
   153    96    95    1
   154    94    95    1
