@<TRIPOS>MOLECULE
tmp/3p80A01.pdb
 145 141 0 0 0
SMALL
GASTEIGER

@<TRIPOS>ATOM
      1  N          4.1300   -4.9470  -18.4170 N.3    23  PRO23      -0.2116
      2  CA         4.2810   -4.5890  -19.8230 C.3    23  PRO23       0.1372
      3  C          3.8980   -5.7530  -20.7180 C.2    23  PRO23       0.2244
      4  O          4.3420   -6.8840  -20.5000 O.2    23  PRO23      -0.2868
      5  CB         5.7760   -4.2520  -19.9430 C.3    23  PRO23       0.0268
      6  CG         6.4310   -5.0280  -18.8160 C.3    23  PRO23       0.0207
      7  CD         5.4200   -4.9930  -17.7020 C.3    23  PRO23       0.0892
      8  N          3.3600   -6.6220  -24.7870 N.3    25  THR25      -0.1218
      9  CA         3.4090   -6.4620  -26.2430 C.3    25  THR25       0.1862
     10  C          2.1530   -7.0620  -26.8570 C.2    25  THR25       0.2287
     11  O          1.8450   -8.2160  -26.6060 O.2    25  THR25      -0.2866
     12  CB         4.6840   -7.1530  -26.7600 C.3    25  THR25       0.1770
     13  OG1        5.8160   -6.3640  -26.3990 O.3    25  THR25      -0.2211
     14  CG2        4.6970   -7.3630  -28.2510 C.3    25  THR25       0.0375
     15  N          6.2430   -2.7970  -24.5560 N.3    57  ALA57      -0.1245
     16  CA         7.5740   -2.3810  -24.9600 C.3    57  ALA57       0.1562
     17  C          7.4860   -1.4810  -26.1900 C.2    57  ALA57       0.2260
     18  O          6.7800   -1.7810  -27.1520 O.2    57  ALA57      -0.2867
     19  CB         8.4360   -3.6060  -25.2350 C.3    57  ALA57       0.0290
     20  N          9.8470   -6.0920  -33.8920 N.3    67  TYR67      -0.1241
     21  CA         8.5220   -6.6960  -34.0530 C.3    67  TYR67       0.1605
     22  C          7.6430   -5.7860  -34.8850 C.2    67  TYR67       0.2264
     23  O          7.4970   -4.6060  -34.5590 O.2    67  TYR67      -0.2867
     24  CB         7.8340   -6.9020  -32.6950 C.3    67  TYR67       0.0534
     25  CG         8.5430   -7.8950  -31.8150 C.ar   67  TYR67      -0.0201
     26  CD1        9.6790   -7.5340  -31.1270 C.ar   67  TYR67      -0.0009
     27  CD2        8.0960   -9.1910  -31.6790 C.ar   67  TYR67      -0.0009
     28  CE1       10.3550   -8.4360  -30.3350 C.ar   67  TYR67       0.0417
     29  CE2        8.7570  -10.0890  -30.8890 C.ar   67  TYR67       0.0417
     30  CZ         9.8940   -9.7100  -30.2230 C.ar   67  TYR67       0.1957
     31  OH        10.6220  -10.5920  -29.4420 O.3    67  TYR67      -0.2866
     32  N          7.4190    1.4050  -21.1030 N.3    99  GLN99      -0.1245
     33  CA         8.5610    0.5080  -21.1640 C.3    99  GLN99       0.1566
     34  C          9.3010    0.7700  -22.4670 C.2    99  GLN99       0.2260
     35  O          8.7280    0.6450  -23.5340 O.2    99  GLN99      -0.2867
     36  CB         8.1330   -0.9510  -21.0530 C.3    99  GLN99       0.0367
     37  CG         9.3640   -1.8390  -20.9070 C.3    99  GLN99       0.0905
     38  CD         9.1390   -3.3320  -20.9940 C.2    99  GLN99       0.2608
     39  OE1        8.6340   -3.8320  -21.9990 O.2    99  GLN99      -0.2717
     40  NE2        9.5420   -4.0620  -19.9460 N.am   99  GLN99      -0.0878
     41  N         12.4720   -0.0760  -24.9930 N.3   101  TRP101     -0.1241
     42  CA        13.4350   -1.1050  -25.3970 C.3   101  TRP101      0.1605
     43  C         14.1820   -0.7660  -26.6560 C.2   101  TRP101      0.2264
     44  O         13.7810    0.0650  -27.4840 O.2   101  TRP101     -0.2867
     45  CB        12.8230   -2.5070  -25.5850 C.3   101  TRP101      0.0550
     46  CG        11.8130   -2.7190  -26.7240 C.ar  101  TRP101      0.0003
     47  CD1       11.2540   -1.7810  -27.5700 C.ar  101  TRP101      0.0946
     48  CD2       11.1590   -3.9490  -27.0440 C.ar  101  TRP101      0.0152
     49  NE1       10.3100   -2.3470  -28.3720 N.ar  101  TRP101     -0.2442
     50  CE2       10.2370   -3.6780  -28.0760 C.ar  101  TRP101      0.0810
     51  CE3       11.2240   -5.2380  -26.5260 C.ar  101  TRP101      0.0012
     52  CZ2        9.3690   -4.6400  -28.5750 C.ar  101  TRP101      0.0191
     53  CZ3       10.3960   -6.2130  -27.0720 C.ar  101  TRP101      0.0001
     54  CH2        9.4820   -5.9070  -28.0760 C.ar  101  TRP101      0.0015
     55  N         13.8720   -1.4540  -20.4440 N.3   180  HIS180     -0.1241
     56  CA        13.7250   -2.8890  -20.6710 C.3   180  HIS180      0.1621
     57  C         15.1100   -3.5510  -20.6940 C.2   180  HIS180      0.2264
     58  O         15.7610   -3.6550  -21.7370 O.2   180  HIS180     -0.2867
     59  CB        13.0190   -3.1770  -21.9610 C.3   180  HIS180      0.0745
     60  CG        12.4930   -4.5690  -22.0430 C.ar  180  HIS180      0.0817
     61  ND1       13.0160   -5.6190  -21.3110 N.ar  180  HIS180     -0.2268
     62  CD2       11.4470   -5.0640  -22.7410 C.ar  180  HIS180      0.1154
     63  CE1       12.3030   -6.7030  -21.5720 C.ar  180  HIS180      0.1986
     64  NE2       11.3500   -6.3940  -22.4370 N.ar  180  HIS180     -0.2212
     65  N         14.8240  -10.1870  -20.6540 N.3   183  HIS183     -0.1241
     66  CA        14.2330  -11.0400  -21.6930 C.3   183  HIS183      0.1621
     67  C         15.0440  -11.1670  -22.9720 C.2   183  HIS183      0.2264
     68  O         14.5040  -11.4380  -24.0330 O.2   183  HIS183     -0.2867
     69  CB        12.7980  -10.6120  -22.0090 C.3   183  HIS183      0.0745
     70  CG        11.8730  -10.7070  -20.8350 C.ar  183  HIS183      0.0817
     71  ND1       10.6550  -10.0670  -20.8100 N.ar  183  HIS183     -0.2268
     72  CD2       11.9950  -11.3410  -19.6410 C.ar  183  HIS183      0.1154
     73  CE1       10.0520  -10.3350  -19.6640 C.ar  183  HIS183      0.1986
     74  NE2       10.8420  -11.1020  -18.9320 N.ar  183  HIS183     -0.2212
     75  N         16.6530   -8.8810  -24.7000 N.3   185  TYR185     -0.1241
     76  CA        16.7190   -7.7290  -25.5840 C.3   185  TYR185      0.1605
     77  C         18.0730   -7.0050  -25.4130 C.2   185  TYR185      0.2264
     78  O         18.9860   -7.5530  -24.7880 O.2   185  TYR185     -0.2867
     79  CB        15.4540   -6.8590  -25.4390 C.3   185  TYR185      0.0534
     80  CG        14.2410   -7.6650  -25.8450 C.ar  185  TYR185     -0.0201
     81  CD1       14.0870   -8.1010  -27.1480 C.ar  185  TYR185     -0.0009
     82  CD2       13.2930   -8.0730  -24.9080 C.ar  185  TYR185     -0.0009
     83  CE1       13.0080   -8.8790  -27.5210 C.ar  185  TYR185      0.0417
     84  CE2       12.2340   -8.8530  -25.2630 C.ar  185  TYR185      0.0417
     85  CZ        12.0830   -9.2730  -26.5630 C.ar  185  TYR185      0.1957
     86  OH        10.9890  -10.0530  -26.8690 O.3   185  TYR185     -0.2866
     87  N         13.3920   -2.9350  -15.6340 N.3   232  ARG232     -0.1245
     88  CA        13.0210   -4.3480  -15.5730 C.3   232  ARG232      0.1563
     89  C         14.2140   -5.2230  -15.9240 C.2   232  ARG232      0.2260
     90  O         14.8810   -5.0060  -16.9260 O.2   232  ARG232     -0.2867
     91  CB        11.8550   -4.6760  -16.5080 C.3   232  ARG232      0.0307
     92  CG        11.1470   -5.9450  -16.0970 C.3   232  ARG232      0.0489
     93  CD         9.9280   -6.2850  -16.9040 C.3   232  ARG232      0.2205
     94  NE         9.0150   -7.0890  -16.1000 N.pl3 232  ARG232     -0.0865
     95  CZ         8.0270   -7.8370  -16.5750 C.cat 232  ARG232      0.5346
     96  NH1        7.8980   -8.1100  -17.8590 N.pl3 232  ARG232      0.1354
     97  NH2        7.1600   -8.3650  -15.7280 N.pl3 232  ARG232      0.1354
     98  N         14.2130  -16.4500  -23.2410 N.3   240  GLN240     -0.1245
     99  CA        14.3250  -16.3040  -24.6740 C.3   240  GLN240      0.1566
    100  C         15.7440  -16.6710  -25.1460 C.2   240  GLN240      0.2260
    101  O         16.3640  -15.9610  -25.9410 O.2   240  GLN240     -0.2867
    102  CB        13.9080  -14.8860  -25.0750 C.3   240  GLN240      0.0367
    103  CG        13.4830  -14.7740  -26.5070 C.3   240  GLN240      0.0905
    104  CD        12.4950  -13.6530  -26.7680 C.2   240  GLN240      0.2608
    105  OE1       11.6780  -13.7940  -27.6580 O.2   240  GLN240     -0.2717
    106  NE2       12.5580  -12.5380  -26.0040 N.am  240  GLN240     -0.0878
    107  N          9.6050  -16.9350  -17.1660 N.3   273  ASP273     -0.1225
    108  CA         8.8120  -16.8690  -18.3930 C.3   273  ASP273      0.1805
    109  C          7.5880  -17.7830  -18.2200 C.2   273  ASP273      0.2597
    110  O          7.3420  -18.3000  -17.1270 O.2   273  ASP273     -0.2718
    111  CB         9.6560  -17.1930  -19.6440 C.3   273  ASP273      0.1424
    112  CG        10.0720  -18.6570  -19.7490 C.2   273  ASP273      0.3668
    113  OD1        9.5820  -19.5070  -18.9770 O.co2 273  ASP273     -0.2456
    114  OD2       10.9100  -18.9560  -20.6370 O.co2 273  ASP273     -0.2456
    115  N          6.8190  -17.9830  -19.2840 N.am  274  LEU274     -0.1979
    116  CA         5.5400  -18.7090  -19.1520 C.3   274  LEU274      0.1596
    117  C          5.7320  -20.2030  -18.9040 C.2   274  LEU274      0.2287
    118  O          4.8290  -20.8720  -18.4180 O.2   274  LEU274     -0.2864
    119  CB         4.6500  -18.4930  -20.3770 C.3   274  LEU274      0.0297
    120  CG         4.4280  -17.0330  -20.8150 C.3   274  LEU274      0.0022
    121  CD1        3.3400  -16.9190  -21.8890 C.3   274  LEU274      0.0001
    122  CD2        4.1120  -16.0850  -19.6400 C.3   274  LEU274      0.0001
    123  N         -3.6500  -12.6160  -28.2360 N.3   349  PHE349     -0.1227
    124  CA        -2.6490  -11.8180  -27.5340 C.3   349  PHE349      0.1736
    125  C         -1.8840  -10.9080  -28.5140 C.2   349  PHE349      0.2595
    126  O         -1.6450   -9.7430  -28.2100 O.2   349  PHE349     -0.2718
    127  CB        -1.6950  -12.7010  -26.7490 C.3   349  PHE349      0.0547
    128  CG        -2.2740  -13.3250  -25.4920 C.ar  349  PHE349     -0.0202
    129  CD1       -3.5760  -13.0940  -25.0410 C.ar  349  PHE349     -0.0042
    130  CD2       -1.4540  -14.1500  -24.7310 C.ar  349  PHE349     -0.0042
    131  CE1       -4.0310  -13.7000  -23.8740 C.ar  349  PHE349     -0.0003
    132  CE2       -1.9340  -14.7640  -23.5830 C.ar  349  PHE349     -0.0003
    133  CZ        -3.1980  -14.5240  -23.1490 C.ar  349  PHE349     -0.0000
    134  N         -1.4710  -11.4370  -29.6660 N.am  350  TYR350     -0.1976
    135  CA        -0.6100  -10.6990  -30.6010 C.3   350  TYR350      0.1639
    136  C         -1.3250  -10.3830  -31.9020 C.2   350  TYR350      0.2290
    137  O         -1.8590  -11.2740  -32.5720 O.2   350  TYR350     -0.2864
    138  CB         0.6390  -11.4950  -30.9250 C.3   350  TYR350      0.0560
    139  CG         1.4770  -11.8330  -29.7260 C.ar  350  TYR350     -0.0198
    140  CD1        2.1970  -10.8520  -29.0390 C.ar  350  TYR350     -0.0009
    141  CD2        1.5260  -13.1350  -29.2510 C.ar  350  TYR350     -0.0009
    142  CE1        2.9780  -11.1770  -27.9410 C.ar  350  TYR350      0.0417
    143  CE2        2.2960  -13.4650  -28.1560 C.ar  350  TYR350      0.0417
    144  CZ         3.0410  -12.4870  -27.5120 C.ar  350  TYR350      0.1957
    145  OH         3.8290  -12.7970  -26.4270 O.3   350  TYR350     -0.2866
@<TRIPOS>BOND
     1    22    23    2
     2    22    21    1
     3    21    20    1
     4    21    24    1
     5    24    25    1
     6   137   136    2
     7   136   135    1
     8    25    27   ar
     9    25    26   ar
    10    27    29   ar
    11    26    28   ar
    12   138   135    1
    13   138   139    1
    14    29    30   ar
    15   135   134    1
    16    28    30   ar
    17    30    31    1
    18   139   141   ar
    19   139   140   ar
    20   134   125   am
    21   141   143   ar
    22   140   142   ar
    23    52    54   ar
    24    52    50   ar
    25   125   126    2
    26   125   124    1
    27    49    50   ar
    28    49    47   ar
    29    14    12    1
    30   123   124    1
    31   143   144   ar
    32    54    53   ar
    33    50    48   ar
    34   142   144   ar
    35   105   104    2
    36    47    46   ar
    37   124   127    1
    38    83    81   ar
    39    83    85   ar
    40   144   145    1
    41    44    43    2
    42    18    17    2
    43    81    80   ar
    44    53    51   ar
    45    48    46   ar
    46    48    51   ar
    47    86    85    1
    48    10    11    2
    49    10     9    1
    50   104   103    1
    51   104   106   am
    52    12    13    1
    53    12     9    1
    54   127   128    1
    55    46    45    1
    56    43    42    1
    57    85    84   ar
    58   103   102    1
    59     9     8    1
    60    17    16    1
    61   101   100    2
    62    80    79    1
    63    80    82   ar
    64    45    42    1
    65    76    79    1
    66    76    77    1
    67    76    75    1
    68   128   129   ar
    69   128   130   ar
    70    77    78    2
    71    42    41    1
    72    84    82   ar
    73    19    16    1
    74   100    99    1
    75   102    99    1
    76   129   131   ar
    77    16    15    1
    78   130   132   ar
    79    99    98    1
    80    68    67    2
    81   131   133   ar
    82   132   133   ar
    83    35    34    2
    84    67    66    1
    85    62    64   ar
    86    62    60   ar
    87    34    33    1
    88    64    63   ar
    89    60    59    1
    90    60    61   ar
    91    69    66    1
    92    69    70    1
    93    39    38    2
    94    59    56    1
    95   121   120    1
    96    58    57    2
    97    66    65    1
    98    63    61   ar
    99    33    32    1
   100    33    36    1
   101    36    37    1
   102    38    37    1
   103    38    40   am
   104    70    71   ar
   105    70    72   ar
   106   120   119    1
   107   120   122    1
   108    71    73   ar
   109     3     4    2
   110     3     2    1
   111    57    56    1
   112    56    55    1
   113   114   112   ar
   114   119   116    1
   115     5     2    1
   116     5     6    1
   117     2     1    1
   118   112   111    1
   119   112   113   ar
   120    73    74   ar
   121   111   108    1
   122    72    74   ar
   123   115   116    1
   124   115   109   am
   125   116   117    1
   126   117   118    2
   127     6     7    1
   128     1     7    1
   129   108   109    1
   130   108   107    1
   131   109   110    2
   132    96    95    1
   133    90    89    2
   134    93    94    1
   135    93    92    1
   136    95    94    2
   137    95    97    1
   138    91    92    1
   139    91    88    1
   140    89    88    1
   141    87    88    1
