@<TRIPOS>MOLECULE
tmp/3p80A02.pdb
 120 116 0 0 0
SMALL
GASTEIGER

@<TRIPOS>ATOM
      1  N          3.3600   -6.6220  -24.7870 N.3    25  THR25      -0.1218
      2  CA         3.4090   -6.4620  -26.2430 C.3    25  THR25       0.1862
      3  C          2.1530   -7.0620  -26.8570 C.2    25  THR25       0.2287
      4  O          1.8450   -8.2160  -26.6060 O.2    25  THR25      -0.2866
      5  CB         4.6840   -7.1530  -26.7600 C.3    25  THR25       0.1770
      6  OG1        5.8160   -6.3640  -26.3990 O.3    25  THR25      -0.2211
      7  CG2        4.6970   -7.3630  -28.2510 C.3    25  THR25       0.0375
      8  N          1.2070   -5.8120  -30.3440 N.3    27  LEU27      -0.1245
      9  CA         1.4900   -5.7600  -31.7870 C.3    27  LEU27       0.1561
     10  C          0.3180   -5.2840  -32.6440 C.2    27  LEU27       0.2260
     11  O          0.0080   -5.8660  -33.6900 O.2    27  LEU27      -0.2867
     12  CB         2.0420   -7.1010  -32.2910 C.3    27  LEU27       0.0270
     13  CG         3.2740   -7.5850  -31.5360 C.3    27  LEU27       0.0019
     14  CD1        3.7910   -8.9260  -32.1210 C.3    27  LEU27       0.0001
     15  CD2        4.3900   -6.5440  -31.5530 C.3    27  LEU27       0.0001
     16  N          9.8470   -6.0920  -33.8920 N.3    67  TYR67      -0.1241
     17  CA         8.5220   -6.6960  -34.0530 C.3    67  TYR67       0.1605
     18  C          7.6430   -5.7860  -34.8850 C.2    67  TYR67       0.2264
     19  O          7.4970   -4.6060  -34.5590 O.2    67  TYR67      -0.2867
     20  CB         7.8340   -6.9020  -32.6950 C.3    67  TYR67       0.0534
     21  CG         8.5430   -7.8950  -31.8150 C.ar   67  TYR67      -0.0201
     22  CD1        9.6790   -7.5340  -31.1270 C.ar   67  TYR67      -0.0009
     23  CD2        8.0960   -9.1910  -31.6790 C.ar   67  TYR67      -0.0009
     24  CE1       10.3550   -8.4360  -30.3350 C.ar   67  TYR67       0.0417
     25  CE2        8.7570  -10.0890  -30.8890 C.ar   67  TYR67       0.0417
     26  CZ         9.8940   -9.7100  -30.2230 C.ar   67  TYR67       0.1957
     27  OH        10.6220  -10.5920  -29.4420 O.3    67  TYR67      -0.2866
     28  N         12.4720   -0.0760  -24.9930 N.3   101  TRP101     -0.1241
     29  CA        13.4350   -1.1050  -25.3970 C.3   101  TRP101      0.1605
     30  C         14.1820   -0.7660  -26.6560 C.2   101  TRP101      0.2264
     31  O         13.7810    0.0650  -27.4840 O.2   101  TRP101     -0.2867
     32  CB        12.8230   -2.5070  -25.5850 C.3   101  TRP101      0.0550
     33  CG        11.8130   -2.7190  -26.7240 C.ar  101  TRP101      0.0003
     34  CD1       11.2540   -1.7810  -27.5700 C.ar  101  TRP101      0.0946
     35  CD2       11.1590   -3.9490  -27.0440 C.ar  101  TRP101      0.0152
     36  NE1       10.3100   -2.3470  -28.3720 N.ar  101  TRP101     -0.2442
     37  CE2       10.2370   -3.6780  -28.0760 C.ar  101  TRP101      0.0810
     38  CE3       11.2240   -5.2380  -26.5260 C.ar  101  TRP101      0.0012
     39  CZ2        9.3690   -4.6400  -28.5750 C.ar  101  TRP101      0.0191
     40  CZ3       10.3960   -6.2130  -27.0720 C.ar  101  TRP101      0.0001
     41  CH2        9.4820   -5.9070  -28.0760 C.ar  101  TRP101      0.0015
     42  N          8.2770  -11.5810  -34.3260 N.3   131  SER131     -0.1217
     43  CA         6.9640  -11.4840  -34.9590 C.3   131  SER131      0.1889
     44  C          6.9920  -10.4000  -36.0160 C.2   131  SER131      0.2288
     45  O          7.2190   -9.2230  -35.6970 O.2   131  SER131     -0.2866
     46  CB         5.8600  -11.1850  -33.9320 C.3   131  SER131      0.2089
     47  OG         4.5580  -11.3680  -34.4860 O.3   131  SER131     -0.2183
     48  N          5.4320  -15.6300  -37.1120 N.3   141  ARG141     -0.1245
     49  CA         6.7040  -15.8360  -36.4210 C.3   141  ARG141      0.1563
     50  C          7.7870  -16.2120  -37.4110 C.2   141  ARG141      0.2260
     51  O          7.5750  -17.0970  -38.2390 O.2   141  ARG141     -0.2867
     52  CB         6.5650  -16.9280  -35.3560 C.3   141  ARG141      0.0307
     53  CG         5.6220  -16.5600  -34.2300 C.3   141  ARG141      0.0489
     54  CD         6.2110  -15.5170  -33.3120 C.3   141  ARG141      0.2205
     55  NE         7.2000  -16.0980  -32.4170 N.pl3 141  ARG141     -0.0865
     56  CZ         7.9760  -15.4050  -31.5950 C.cat 141  ARG141      0.5346
     57  NH1        7.9310  -14.0820  -31.5720 N.pl3 141  ARG141      0.1354
     58  NH2        8.8010  -16.0460  -30.7940 N.pl3 141  ARG141      0.1354
     59  N         14.8240  -10.1870  -20.6540 N.3   183  HIS183     -0.1241
     60  CA        14.2330  -11.0400  -21.6930 C.3   183  HIS183      0.1621
     61  C         15.0440  -11.1670  -22.9720 C.2   183  HIS183      0.2264
     62  O         14.5040  -11.4380  -24.0330 O.2   183  HIS183     -0.2867
     63  CB        12.7980  -10.6120  -22.0090 C.3   183  HIS183      0.0745
     64  CG        11.8730  -10.7070  -20.8350 C.ar  183  HIS183      0.0817
     65  ND1       10.6550  -10.0670  -20.8100 N.ar  183  HIS183     -0.2268
     66  CD2       11.9950  -11.3410  -19.6410 C.ar  183  HIS183      0.1154
     67  CE1       10.0520  -10.3350  -19.6640 C.ar  183  HIS183      0.1986
     68  NE2       10.8420  -11.1020  -18.9320 N.ar  183  HIS183     -0.2212
     69  N         16.6530   -8.8810  -24.7000 N.3   185  TYR185     -0.1241
     70  CA        16.7190   -7.7290  -25.5840 C.3   185  TYR185      0.1605
     71  C         18.0730   -7.0050  -25.4130 C.2   185  TYR185      0.2264
     72  O         18.9860   -7.5530  -24.7880 O.2   185  TYR185     -0.2867
     73  CB        15.4540   -6.8590  -25.4390 C.3   185  TYR185      0.0534
     74  CG        14.2410   -7.6650  -25.8450 C.ar  185  TYR185     -0.0201
     75  CD1       14.0870   -8.1010  -27.1480 C.ar  185  TYR185     -0.0009
     76  CD2       13.2930   -8.0730  -24.9080 C.ar  185  TYR185     -0.0009
     77  CE1       13.0080   -8.8790  -27.5210 C.ar  185  TYR185      0.0417
     78  CE2       12.2340   -8.8530  -25.2630 C.ar  185  TYR185      0.0417
     79  CZ        12.0830   -9.2730  -26.5630 C.ar  185  TYR185      0.1957
     80  OH        10.9890  -10.0530  -26.8690 O.3   185  TYR185     -0.2866
     81  N         15.8830  -16.7420  -20.2870 N.3   239  PHE239     -0.1227
     82  CA        14.7670  -16.0650  -20.9430 C.3   239  PHE239      0.1736
     83  C         15.0930  -15.9150  -22.3980 C.2   239  PHE239      0.2595
     84  O         16.1380  -15.3550  -22.7500 O.2   239  PHE239     -0.2718
     85  CB        14.5100  -14.6930  -20.3290 C.3   239  PHE239      0.0547
     86  CG        14.1320  -14.7550  -18.8850 C.ar  239  PHE239     -0.0202
     87  CD1       15.0960  -14.9890  -17.9130 C.ar  239  PHE239     -0.0042
     88  CD2       12.8050  -14.6360  -18.4900 C.ar  239  PHE239     -0.0042
     89  CE1       14.7570  -15.0910  -16.5840 C.ar  239  PHE239     -0.0003
     90  CE2       12.4560  -14.7180  -17.1550 C.ar  239  PHE239     -0.0003
     91  CZ        13.4380  -14.9520  -16.1960 C.ar  239  PHE239     -0.0000
     92  N         14.2130  -16.4500  -23.2410 N.am  240  GLN240     -0.1979
     93  CA        14.3250  -16.3040  -24.6740 C.3   240  GLN240      0.1601
     94  C         15.7440  -16.6710  -25.1460 C.2   240  GLN240      0.2287
     95  O         16.3640  -15.9610  -25.9410 O.2   240  GLN240     -0.2864
     96  CB        13.9080  -14.8860  -25.0750 C.3   240  GLN240      0.0394
     97  CG        13.4830  -14.7740  -26.5070 C.3   240  GLN240      0.0908
     98  CD        12.4950  -13.6530  -26.7680 C.2   240  GLN240      0.2608
     99  OE1       11.6780  -13.7940  -27.6580 O.2   240  GLN240     -0.2717
    100  NE2       12.5580  -12.5380  -26.0040 N.am  240  GLN240     -0.0878
    101  N          9.6050  -16.9350  -17.1660 N.3   273  ASP273     -0.1239
    102  CA         8.8120  -16.8690  -18.3930 C.3   273  ASP273      0.1674
    103  C          7.5880  -17.7830  -18.2200 C.2   273  ASP273      0.2266
    104  O          7.3420  -18.3000  -17.1270 O.2   273  ASP273     -0.2867
    105  CB         9.6560  -17.1930  -19.6440 C.3   273  ASP273      0.1410
    106  CG        10.0720  -18.6570  -19.7490 C.2   273  ASP273      0.3668
    107  OD1        9.5820  -19.5070  -18.9770 O.co2 273  ASP273     -0.2456
    108  OD2       10.9100  -18.9560  -20.6370 O.co2 273  ASP273     -0.2456
    109  N         -1.4710  -11.4370  -29.6660 N.3   350  TYR350     -0.1241
    110  CA        -0.6100  -10.6990  -30.6010 C.3   350  TYR350      0.1605
    111  C         -1.3250  -10.3830  -31.9020 C.2   350  TYR350      0.2264
    112  O         -1.8590  -11.2740  -32.5720 O.2   350  TYR350     -0.2867
    113  CB         0.6390  -11.4950  -30.9250 C.3   350  TYR350      0.0534
    114  CG         1.4770  -11.8330  -29.7260 C.ar  350  TYR350     -0.0201
    115  CD1        2.1970  -10.8520  -29.0390 C.ar  350  TYR350     -0.0009
    116  CD2        1.5260  -13.1350  -29.2510 C.ar  350  TYR350     -0.0009
    117  CE1        2.9780  -11.1770  -27.9410 C.ar  350  TYR350      0.0417
    118  CE2        2.2960  -13.4650  -28.1560 C.ar  350  TYR350      0.0417
    119  CZ         3.0410  -12.4870  -27.5120 C.ar  350  TYR350      0.1957
    120  OH         3.8290  -12.7970  -26.4270 O.3   350  TYR350     -0.2866
@<TRIPOS>BOND
     1    51    50    2
     2    50    49    1
     3    48    49    1
     4    49    52    1
     5    44    45    2
     6    44    43    1
     7    52    53    1
     8    43    42    1
     9    43    46    1
    10    18    19    2
    11    18    17    1
    12    47    46    1
    13    53    54    1
    14    17    16    1
    15    17    20    1
    16    11    10    2
    17    54    55    1
    18    20    21    1
    19    10     9    1
    20   112   111    2
    21    55    56    2
    22    12     9    1
    23    12    13    1
    24    14    13    1
    25   111   110    1
    26    21    23   ar
    27    21    22   ar
    28     9     8    1
    29    23    25   ar
    30    56    57    1
    31    56    58    1
    32    15    13    1
    33    22    24   ar
    34   113   110    1
    35   113   114    1
    36    25    26   ar
    37   110   109    1
    38    24    26   ar
    39    26    27    1
    40   114   116   ar
    41   114   115   ar
    42   116   118   ar
    43   115   117   ar
    44    39    41   ar
    45    39    37   ar
    46    36    37   ar
    47    36    34   ar
    48     7     5    1
    49   118   119   ar
    50    41    40   ar
    51    37    35   ar
    52   117   119   ar
    53    99    98    2
    54    34    33   ar
    55    77    75   ar
    56    77    79   ar
    57   119   120    1
    58    31    30    2
    59    75    74   ar
    60    40    38   ar
    61    35    33   ar
    62    35    38   ar
    63    80    79    1
    64     3     4    2
    65     3     2    1
    66    98    97    1
    67    98   100   am
    68     5     6    1
    69     5     2    1
    70    33    32    1
    71    30    29    1
    72    79    78   ar
    73    97    96    1
    74     2     1    1
    75    95    94    2
    76    74    73    1
    77    74    76   ar
    78    32    29    1
    79    70    73    1
    80    70    71    1
    81    70    69    1
    82    71    72    2
    83    29    28    1
    84    78    76   ar
    85    94    93    1
    86    96    93    1
    87    93    92    1
    88    62    61    2
    89    92    83   am
    90    61    60    1
    91    84    83    2
    92    83    82    1
    93    63    60    1
    94    63    64    1
    95    60    59    1
    96    82    85    1
    97    82    81    1
    98    64    65   ar
    99    64    66   ar
   100    65    67   ar
   101   108   106   ar
   102    85    86    1
   103   106   105    1
   104   106   107   ar
   105    67    68   ar
   106   105   102    1
   107    66    68   ar
   108    86    88   ar
   109    86    87   ar
   110    88    90   ar
   111   102   103    1
   112   102   101    1
   113   103   104    2
   114    87    89   ar
   115    90    91   ar
   116    89    91   ar
