@<TRIPOS>MOLECULE
tmp/3p81A01.pdb
 143 136 0 0 0
SMALL
GASTEIGER

@<TRIPOS>ATOM
      1  N         24.6180    4.8330   26.1300 N.3    22  PRO22      -0.2116
      2  CA        24.4540    4.4650   24.7210 C.3    22  PRO22       0.1372
      3  C         24.8220    5.6380   23.8090 C.2    22  PRO22       0.2244
      4  O         24.3520    6.7680   24.0190 O.2    22  PRO22      -0.2868
      5  CB        22.9660    4.1120   24.6160 C.3    22  PRO22       0.0268
      6  CG        22.3190    4.9090   25.7400 C.3    22  PRO22       0.0207
      7  CD        23.3340    4.8890   26.8500 C.3    22  PRO22       0.0892
      8  N         25.3350    6.5380   19.7320 N.3    24  THR24      -0.1218
      9  CA        25.2930    6.3760   18.2860 C.3    24  THR24       0.1862
     10  C         26.5550    6.9740   17.6640 C.2    24  THR24       0.2287
     11  O         26.8840    8.1350   17.8870 O.2    24  THR24      -0.2866
     12  CB        24.0200    7.0610   17.7560 C.3    24  THR24       0.1770
     13  OG1       22.8820    6.2840   18.1270 O.3    24  THR24      -0.2211
     14  CG2       24.0300    7.2060   16.2530 C.3    24  THR24       0.0375
     15  N         27.5780    5.6530   14.2310 N.3    26  LEU26      -0.1245
     16  CA        27.2890    5.5980   12.7870 C.3    26  LEU26       0.1561
     17  C         28.4580    5.1010   11.9280 C.2    26  LEU26       0.2260
     18  O         28.7620    5.6720   10.8780 O.2    26  LEU26      -0.2867
     19  CB        26.7500    6.9380   12.2760 C.3    26  LEU26       0.0270
     20  CG        25.5260    7.4400   13.0510 C.3    26  LEU26       0.0019
     21  CD1       25.0480    8.7850   12.5120 C.3    26  LEU26       0.0001
     22  CD2       24.3860    6.4190   13.0380 C.3    26  LEU26       0.0001
     23  N         22.4960    2.6980   20.0180 N.3    56  ALA56      -0.1245
     24  CA        21.1580    2.2680   19.6240 C.3    56  ALA56       0.1562
     25  C         21.2450    1.3620   18.3890 C.2    56  ALA56       0.2260
     26  O         21.9420    1.6680   17.4110 O.2    56  ALA56      -0.2867
     27  CB        20.2890    3.4670   19.3470 C.3    56  ALA56       0.0290
     28  N         18.9210    6.0810   10.7830 N.3    66  TYR66      -0.1241
     29  CA        20.2310    6.6880   10.6290 C.3    66  TYR66       0.1605
     30  C         21.1060    5.7700    9.7970 C.2    66  TYR66       0.2264
     31  O         21.2510    4.5850   10.1140 O.2    66  TYR66      -0.2867
     32  CB        20.9250    6.8960   11.9900 C.3    66  TYR66       0.0534
     33  CG        20.2380    7.8910   12.9000 C.ar   66  TYR66      -0.0201
     34  CD1       19.0330    7.5880   13.5060 C.ar   66  TYR66      -0.0009
     35  CD2       20.7920    9.1410   13.1430 C.ar   66  TYR66      -0.0009
     36  CE1       18.3860    8.5030   14.3220 C.ar   66  TYR66       0.0417
     37  CE2       20.1530   10.0590   13.9590 C.ar   66  TYR66       0.0417
     38  CZ        18.9470    9.7330   14.5420 C.ar   66  TYR66       0.1957
     39  OH        18.2860   10.6420   15.3440 O.3    66  TYR66      -0.2866
     40  N         21.3220   -1.5370   23.4610 N.3    98  GLN98      -0.1245
     41  CA        20.1810   -0.6330   23.4170 C.3    98  GLN98       0.1566
     42  C         19.4340   -0.8990   22.1120 C.2    98  GLN98       0.2260
     43  O         19.9960   -0.7640   21.0320 O.2    98  GLN98      -0.2867
     44  CB        20.5790    0.8430   23.5190 C.3    98  GLN98       0.0367
     45  CG        19.3380    1.7190   23.6680 C.3    98  GLN98       0.0905
     46  CD        19.6030    3.2010   23.5810 C.2    98  GLN98       0.2608
     47  OE1       20.1080    3.6850   22.5650 O.2    98  GLN98      -0.2717
     48  NE2       19.2110    3.9390   24.6180 N.am   98  GLN98      -0.0878
     49  N         16.2750   -0.0250   19.5760 N.3   100  TRP100     -0.1241
     50  CA        15.3220    1.0110   19.1720 C.3   100  TRP100      0.1605
     51  C         14.5640    0.6820   17.9030 C.2   100  TRP100      0.2264
     52  O         14.9430   -0.1530   17.0740 O.2   100  TRP100     -0.2867
     53  CB        15.9410    2.4140   18.9900 C.3   100  TRP100      0.0550
     54  CG        16.9280    2.6200   17.8590 C.ar  100  TRP100      0.0003
     55  CD1       17.4570    1.6820   17.0200 C.ar  100  TRP100      0.0946
     56  CD2       17.5850    3.8470   17.5390 C.ar  100  TRP100      0.0152
     57  NE1       18.3860    2.2510   16.1990 N.ar  100  TRP100     -0.2442
     58  CE2       18.4980    3.5790   16.5060 C.ar  100  TRP100      0.0810
     59  CE3       17.5020    5.1450   18.0440 C.ar  100  TRP100      0.0012
     60  CZ2       19.3470    4.5480   15.9860 C.ar  100  TRP100      0.0191
     61  CZ3       18.3340    6.1220   17.5110 C.ar  100  TRP100      0.0001
     62  CH2       19.2520    5.8180   16.4990 C.ar  100  TRP100      0.0015
     63  N         20.6520   11.5380   10.4390 N.3   130  SER130     -0.1217
     64  CA        21.9420   11.4330    9.7670 C.3   130  SER130      0.1889
     65  C         21.8990   10.3610    8.6990 C.2   130  SER130      0.2288
     66  O         21.6800    9.1820    9.0020 O.2   130  SER130     -0.2866
     67  CB        23.0660   11.1160   10.7600 C.3   130  SER130      0.2089
     68  OG        24.3540   11.1800   10.1420 O.3   130  SER130     -0.2183
     69  N         23.4760   15.6010    7.7400 N.3   140  ARG140     -0.1245
     70  CA        22.2130   15.8270    8.4260 C.3   140  ARG140      0.1563
     71  C         21.1290   16.1980    7.4150 C.2   140  ARG140      0.2260
     72  O         21.3270   17.1080    6.6040 O.2   140  ARG140     -0.2867
     73  CB        22.3750   16.9450    9.4560 C.3   140  ARG140      0.0307
     74  CG        23.3620   16.6350   10.5620 C.3   140  ARG140      0.0489
     75  CD        22.7540   15.7280   11.5920 C.3   140  ARG140      0.2205
     76  NE        21.7480   16.4150   12.4040 N.pl3 140  ARG140     -0.0865
     77  CZ        21.0160   15.8270   13.3450 C.cat 140  ARG140      0.5346
     78  NH1       21.1610   14.5300   13.5880 N.pl3 140  ARG140      0.1354
     79  NH2       20.1230   16.5290   14.0340 N.pl3 140  ARG140      0.1354
     80  N         14.8590    1.3470   24.1470 N.3   179  HIS179     -0.1241
     81  CA        14.9910    2.7830   23.9150 C.3   179  HIS179      0.1621
     82  C         13.6190    3.4460   23.8960 C.2   179  HIS179      0.2264
     83  O         12.9750    3.5530   22.8550 O.2   179  HIS179     -0.2867
     84  CB        15.7260    3.0810   22.6250 C.3   179  HIS179      0.0745
     85  CG        16.2640    4.4670   22.5680 C.ar  179  HIS179      0.0817
     86  ND1       15.7470    5.5020   23.3220 N.ar  179  HIS179     -0.2268
     87  CD2       17.2910    4.9790   21.8520 C.ar  179  HIS179      0.1154
     88  CE1       16.4580    6.5890   23.0750 C.ar  179  HIS179      0.1986
     89  NE2       17.3940    6.3020   22.1840 N.ar  179  HIS179     -0.2212
     90  N         13.9620   10.0590   23.9840 N.3   182  HIS182     -0.1241
     91  CA        14.5540   10.9090   22.9500 C.3   182  HIS182      0.1621
     92  C         13.7400   11.0520   21.6760 C.2   182  HIS182      0.2264
     93  O         14.2800   11.3290   20.6090 O.2   182  HIS182     -0.2867
     94  CB        15.9740   10.4510   22.6290 C.3   182  HIS182      0.0745
     95  CG        16.9020   10.5440   23.7960 C.ar  182  HIS182      0.0817
     96  ND1       18.1280    9.9170   23.8150 N.ar  182  HIS182     -0.2268
     97  CD2       16.7780   11.1760   24.9880 C.ar  182  HIS182      0.1154
     98  CE1       18.7260   10.1850   24.9650 C.ar  182  HIS182      0.1986
     99  NE2       17.9290   10.9440   25.6960 N.ar  182  HIS182     -0.2212
    100  N         12.1080    8.7590   19.9320 N.3   184  TYR184     -0.1241
    101  CA        12.0380    7.6030   19.0250 C.3   184  TYR184      0.1605
    102  C         10.6820    6.8940   19.1970 C.2   184  TYR184      0.2264
    103  O          9.7740    7.4640   19.8220 O.2   184  TYR184     -0.2867
    104  CB        13.3010    6.7230   19.1540 C.3   184  TYR184      0.0534
    105  CG        14.5150    7.5470   18.7940 C.ar  184  TYR184     -0.0201
    106  CD1       14.6970    8.0130   17.4980 C.ar  184  TYR184     -0.0009
    107  CD2       15.4400    7.9320   19.7540 C.ar  184  TYR184     -0.0009
    108  CE1       15.7620    8.8240   17.1720 C.ar  184  TYR184      0.0417
    109  CE2       16.5090    8.7500   19.4350 C.ar  184  TYR184      0.0417
    110  CZ        16.6670    9.1990   18.1480 C.ar  184  TYR184      0.1957
    111  OH        17.7430   10.0080   17.8740 O.3   184  TYR184     -0.2866
    112  N         15.3330    2.8630   28.9510 N.3   231  ARG231     -0.1245
    113  CA        15.7240    4.2610   29.0090 C.3   231  ARG231      0.1563
    114  C         14.5250    5.1370   28.6790 C.2   231  ARG231      0.2260
    115  O         13.8370    4.9200   27.6760 O.2   231  ARG231     -0.2867
    116  CB        16.8820    4.5710   28.0650 C.3   231  ARG231      0.0307
    117  CG        17.5780    5.8630   28.4730 C.3   231  ARG231      0.0489
    118  CD        18.8090    6.1890   27.6620 C.3   231  ARG231      0.2205
    119  NE        19.7510    6.9770   28.4580 N.pl3 231  ARG231     -0.0865
    120  CZ        20.7510    7.7150   27.9840 C.cat 231  ARG231      0.5346
    121  NH1       20.8870    7.9640   26.7020 N.pl3 231  ARG231      0.1354
    122  NH2       21.6110    8.2580   28.8320 N.pl3 231  ARG231      0.1354
    123  N         14.5410   16.4060   21.1290 N.3   239  GLN239     -0.1245
    124  CA        14.3210   16.3540   19.6750 C.3   239  GLN239      0.1566
    125  C         12.8820   16.6960   19.2810 C.2   239  GLN239      0.2260
    126  O         12.2470   15.9860   18.4950 O.2   239  GLN239     -0.2867
    127  CB        14.7760   15.0030   19.1260 C.3   239  GLN239      0.0367
    128  CG        16.2680   14.8230   19.2920 C.3   239  GLN239      0.0905
    129  CD        16.8170   13.6750   18.4960 C.2   239  GLN239      0.2608
    130  OE1       17.5090   13.8760   17.5040 O.2   239  GLN239     -0.2717
    131  NE2       16.5110   12.4610   18.9240 N.am  239  GLN239     -0.0878
    132  N         30.2360   11.3450   14.8810 N.3   349  TYR349     -0.1241
    133  CA        29.3360   10.6440   13.9520 C.3   349  TYR349      0.1605
    134  C         30.0260   10.3090   12.6460 C.2   349  TYR349      0.2264
    135  O         30.5200   11.1970   11.9430 O.2   349  TYR349     -0.2867
    136  CB        28.1220   11.5110   13.6550 C.3   349  TYR349      0.0534
    137  CG        27.2980   11.8310   14.8690 C.ar  349  TYR349     -0.0201
    138  CD1       26.5960   10.8260   15.5300 C.ar  349  TYR349     -0.0009
    139  CD2       27.2080   13.1240   15.3640 C.ar  349  TYR349     -0.0009
    140  CE1       25.8280   11.0940   16.6360 C.ar  349  TYR349      0.0417
    141  CE2       26.4410   13.3940   16.4830 C.ar  349  TYR349      0.0417
    142  CZ        25.7450   12.3760   17.1080 C.ar  349  TYR349      0.1957
    143  OH        24.9480   12.6130   18.2060 O.3   349  TYR349     -0.2866
@<TRIPOS>BOND
     1    72    71    2
     2    71    70    1
     3    69    70    1
     4    70    73    1
     5    65    66    2
     6    65    64    1
     7    73    74    1
     8    64    63    1
     9    64    67    1
    10    30    31    2
    11    30    29    1
    12    68    67    1
    13    74    75    1
    14    29    28    1
    15    29    32    1
    16    18    17    2
    17    75    76    1
    18    17    16    1
    19   135   134    2
    20    32    33    1
    21    19    16    1
    22    19    20    1
    23    76    77    2
    24    21    20    1
    25   134   133    1
    26    16    15    1
    27    33    35   ar
    28    33    34   ar
    29    22    20    1
    30    35    37   ar
    31    77    78    1
    32    77    79    1
    33    34    36   ar
    34   136   133    1
    35   136   137    1
    36   133   132    1
    37    37    38   ar
    38    36    38   ar
    39    38    39    1
    40   137   139   ar
    41   137   138   ar
    42   139   141   ar
    43   138   140   ar
    44    60    62   ar
    45    60    58   ar
    46    57    58   ar
    47    57    55   ar
    48    14    12    1
    49   141   142   ar
    50    62    61   ar
    51    58    56   ar
    52   140   142   ar
    53    55    54   ar
    54    52    51    2
    55   142   143    1
    56   108   106   ar
    57   108   110   ar
    58    26    25    2
    59   106   105   ar
    60   130   129    2
    61    61    59   ar
    62    56    54   ar
    63    56    59   ar
    64    10    11    2
    65    10     9    1
    66    12    13    1
    67    12     9    1
    68    54    53    1
    69   111   110    1
    70    51    50    1
    71   110   109   ar
    72     9     8    1
    73    25    24    1
    74   126   125    2
    75   129   131   am
    76   129   128    1
    77   105   104    1
    78   105   107   ar
    79    53    50    1
    80   101   104    1
    81   101   102    1
    82   101   100    1
    83   127   128    1
    84   127   124    1
    85    50    49    1
    86   102   103    2
    87   125   124    1
    88    27    24    1
    89   109   107   ar
    90    24    23    1
    91   124   123    1
    92    93    92    2
    93    43    42    2
    94    92    91    1
    95    87    89   ar
    96    87    85   ar
    97    42    41    1
    98    89    88   ar
    99    47    46    2
   100    85    84    1
   101    85    86   ar
   102    84    81    1
   103    94    91    1
   104    94    95    1
   105    83    82    2
   106    91    90    1
   107    88    86   ar
   108    41    40    1
   109    41    44    1
   110    44    45    1
   111    46    45    1
   112    46    48   am
   113    95    96   ar
   114    95    97   ar
   115     3     4    2
   116     3     2    1
   117    96    98   ar
   118    82    81    1
   119    81    80    1
   120     5     2    1
   121     5     6    1
   122     2     1    1
   123    98    99   ar
   124    97    99   ar
   125     6     7    1
   126     1     7    1
   127   121   120    1
   128   118   119    1
   129   118   117    1
   130   115   114    2
   131   120   119    2
   132   120   122    1
   133   116   117    1
   134   116   113    1
   135   114   113    1
   136   112   113    1
