@<TRIPOS>MOLECULE
tmp/3p85A00.pdb
 87 82 0 0 0
SMALL
GASTEIGER

@<TRIPOS>ATOM
      1  N         -8.2400   67.4070   -2.9080 N.3   138  LEU138     -0.1245
      2  CA        -7.8010   66.2470   -3.6870 C.3   138  LEU138      0.1561
      3  C         -7.6050   65.0330   -2.7790 C.2   138  LEU138      0.2260
      4  O         -7.9590   63.9290   -3.1460 O.2   138  LEU138     -0.2867
      5  CB        -6.5360   66.5700   -4.5140 C.3   138  LEU138      0.0270
      6  CG        -6.0860   65.5150   -5.5060 C.3   138  LEU138      0.0019
      7  CD1       -7.2030   65.2660   -6.5500 C.3   138  LEU138      0.0001
      8  CD2       -4.7970   65.9990   -6.2480 C.3   138  LEU138      0.0001
      9  N        -11.1560   63.8600   -2.1330 N.3   141  ARG141     -0.1231
     10  CA       -11.6660   63.2240   -3.3230 C.3   141  ARG141      0.1694
     11  C        -11.0480   61.8070   -3.5060 C.2   141  ARG141      0.2591
     12  O        -11.7730   60.8150   -3.7030 O.2   141  ARG141     -0.2718
     13  CB       -11.4420   64.1180   -4.5030 C.3   141  ARG141      0.0321
     14  CG       -12.0320   63.5370   -5.7850 C.3   141  ARG141      0.0489
     15  CD       -12.0560   64.5380   -6.8810 C.3   141  ARG141      0.2205
     16  NE       -12.4240   63.8930   -8.1350 N.pl3 141  ARG141     -0.0865
     17  CZ       -12.9680   64.4860   -9.1870 C.cat 141  ARG141      0.5346
     18  NH1      -13.2800   65.7770   -9.1900 N.pl3 141  ARG141      0.1354
     19  NH2      -13.2320   63.7600  -10.2770 N.pl3 141  ARG141      0.1354
     20  N         -9.7160   61.7030   -3.3960 N.am  142  MET142     -0.1979
     21  CA        -9.0100   60.4150   -3.5660 C.3   142  MET142      0.1605
     22  C         -9.4940   59.4120   -2.5560 C.2   142  MET142      0.2287
     23  O         -9.8610   58.2930   -2.9150 O.2   142  MET142     -0.2864
     24  CB        -7.4900   60.5910   -3.3820 C.3   142  MET142      0.0413
     25  CG        -6.8660   61.2420   -4.5920 C.3   142  MET142      0.0598
     26  SD        -5.1040   61.5580   -4.4340 S.3   142  MET142     -0.1393
     27  CE        -4.4830   59.8510   -4.4800 C.3   142  MET142      0.0692
     28  N        -13.3900   58.4470   -2.9810 N.3   145  THR145     -0.1218
     29  CA       -13.7500   57.7850   -4.2250 C.3   145  THR145      0.1862
     30  C        -12.9610   56.4890   -4.4180 C.2   145  THR145      0.2287
     31  O        -13.4910   55.5000   -4.9610 O.2   145  THR145     -0.2866
     32  CB       -13.5690   58.6930   -5.4770 C.3   145  THR145      0.1770
     33  OG1      -12.1710   58.9850   -5.6740 O.3   145  THR145     -0.2211
     34  CG2      -14.4350   59.9750   -5.3680 C.3   145  THR145      0.0375
     35  N        -10.5140   56.6210   -6.4620 N.3   147  ASP147     -0.1225
     36  CA       -10.0990   56.8200   -7.8680 C.3   147  ASP147      0.1805
     37  C         -8.5730   57.0210   -7.9850 C.2   147  ASP147      0.2598
     38  O         -7.9130   57.4950   -7.0490 O.2   147  ASP147     -0.2718
     39  CB       -10.8110   58.0240   -8.4790 C.3   147  ASP147      0.1424
     40  CG       -12.2840   57.7630   -8.7850 C.2   147  ASP147      0.3668
     41  OD1      -12.7160   56.5840   -8.8310 O.co2 147  ASP147     -0.2456
     42  OD2      -13.0160   58.7560   -8.9930 O.co2 147  ASP147     -0.2456
     43  N         -8.0270   56.6090   -9.1250 N.am  148  TYR148     -0.1962
     44  CA        -6.6110   56.8250   -9.4290 C.3   148  TYR148      0.1771
     45  C         -6.2950   58.3020   -9.7400 C.2   148  TYR148      0.2619
     46  O         -6.9850   58.9530  -10.5460 O.2   148  TYR148     -0.2715
     47  CB        -6.1820   55.9760  -10.6350 C.3   148  TYR148      0.0574
     48  CG        -5.7720   54.5540  -10.3090 C.ar  148  TYR148     -0.0198
     49  CD1       -4.6970   54.2940   -9.4680 C.ar  148  TYR148     -0.0009
     50  CD2       -6.4370   53.4620  -10.8880 C.ar  148  TYR148     -0.0009
     51  CE1       -4.3040   52.9940   -9.1830 C.ar  148  TYR148      0.0417
     52  CE2       -6.0400   52.1480  -10.6040 C.ar  148  TYR148      0.0417
     53  CZ        -4.9720   51.9350   -9.7370 C.ar  148  TYR148      0.1957
     54  OH        -4.5570   50.6530   -9.4500 O.3   148  TYR148     -0.2866
     55  N         -5.2020   58.7750   -9.1840 N.am  149  LEU149     -0.1963
     56  CA        -4.5650   60.0300   -9.5860 C.3   149  LEU149      0.1728
     57  C         -3.4530   59.7200  -10.5720 C.2   149  LEU149      0.2616
     58  O         -2.5560   58.9200  -10.2710 O.2   149  LEU149     -0.2715
     59  CB        -3.9920   60.7020   -8.3490 C.3   149  LEU149      0.0311
     60  CG        -3.4020   62.1120   -8.4840 C.3   149  LEU149      0.0022
     61  CD1       -4.5130   63.1460   -8.7500 C.3   149  LEU149      0.0001
     62  CD2       -2.6290   62.3910   -7.1870 C.3   149  LEU149      0.0001
     63  N         -3.5330   60.2850  -11.7870 N.am  150  SER150     -0.1950
     64  CA        -2.4840   60.1030  -12.7740 C.3   150  SER150      0.1924
     65  C         -1.1290   60.7070  -12.3670 C.2   150  SER150      0.2314
     66  O         -1.0360   61.5170  -11.4560 O.2   150  SER150     -0.2863
     67  CB        -2.9250   60.7330  -14.1230 C.3   150  SER150      0.2116
     68  OG        -2.9390   62.1590  -14.0120 O.3   150  SER150     -0.2180
     69  N         -1.3450   64.5520  -12.9830 N.3   153  ASP153     -0.1239
     70  CA        -2.0650   65.2530  -11.9160 C.3   153  ASP153      0.1674
     71  C         -1.3040   65.2720  -10.6310 C.2   153  ASP153      0.2266
     72  O         -1.4560   66.2100   -9.8270 O.2   153  ASP153     -0.2867
     73  CB        -3.4690   64.6920  -11.6800 C.3   153  ASP153      0.1410
     74  CG        -4.4550   65.1220  -12.7290 C.2   153  ASP153      0.3668
     75  OD1       -4.1260   66.0100  -13.5600 O.co2 153  ASP153     -0.2456
     76  OD2       -5.5720   64.5430  -12.7440 O.co2 153  ASP153     -0.2456
     77  N          1.0050   68.0490  -11.0410 N.3   156  ARG156     -0.1245
     78  CA         0.2930   69.3270  -10.8700 C.3   156  ARG156      0.1563
     79  C         -0.0160   69.6130   -9.4260 C.2   156  ARG156      0.2260
     80  O          0.0160   70.7590   -9.0170 O.2   156  ARG156     -0.2867
     81  CB        -1.0070   69.3690  -11.6550 C.3   156  ARG156      0.0307
     82  CG        -0.7430   69.3670  -13.1690 C.3   156  ARG156      0.0489
     83  CD        -1.9900   69.2380  -13.9470 C.3   156  ARG156      0.2205
     84  NE        -1.6900   69.1240  -15.3790 N.pl3 156  ARG156     -0.0865
     85  CZ        -2.0180   68.0880  -16.1510 C.cat 156  ARG156      0.5346
     86  NH1       -2.6900   67.0370  -15.6700 N.pl3 156  ARG156      0.1354
     87  NH2       -1.6930   68.1160  -17.4390 N.pl3 156  ARG156      0.1354
@<TRIPOS>BOND
     1    87    85    1
     2    85    86    1
     3    85    84    2
     4    84    83    1
     5    67    68    1
     6    67    64    1
     7    83    82    1
     8    75    74   ar
     9    82    81    1
    10    69    70    1
    11    64    65    1
    12    64    63    1
    13    76    74   ar
    14    74    73    1
    15    65    66    2
    16    70    73    1
    17    70    71    1
    18    63    57   am
    19    81    78    1
    20    77    78    1
    21    50    52   ar
    22    50    48   ar
    23    78    79    1
    24    47    48    1
    25    47    44    1
    26    71    72    2
    27    52    53   ar
    28    57    58    2
    29    57    56    1
    30    46    45    2
    31    48    49   ar
    32    19    17    1
    33    45    44    1
    34    45    55   am
    35    53    54    1
    36    53    51   ar
    37    56    55    1
    38    56    59    1
    39    49    51   ar
    40    44    43    1
    41    79    80    2
    42    18    17    1
    43    17    16    2
    44    43    37   am
    45    42    40   ar
    46    41    40   ar
    47    40    39    1
    48    61    60    1
    49    60    59    1
    50    60    62    1
    51    39    36    1
    52    16    15    1
    53    37    36    1
    54    37    38    2
    55    36    35    1
    56    15    14    1
    57     7     6    1
    58     8     6    1
    59    14    13    1
    60    33    32    1
    61     6     5    1
    62    32    34    1
    63    32    29    1
    64    31    30    2
    65    25    26    1
    66    25    24    1
    67     5     2    1
    68    13    10    1
    69    27    26    1
    70    30    29    1
    71    29    28    1
    72    12    11    2
    73     2     1    1
    74     2     3    1
    75    21    20    1
    76    21    24    1
    77    21    22    1
    78    11    20   am
    79    11    10    1
    80    10     9    1
    81     4     3    2
    82    23    22    2
