@<TRIPOS>MOLECULE
tmp/3p87C00.pdb
 221 219 0 0 0
SMALL
GASTEIGER

@<TRIPOS>ATOM
      1  N        -42.7920  -24.9100  -48.1970 N.3    40  MET40      -0.1245
      2  CA       -41.9160  -25.9710  -47.7150 C.3    40  MET40       0.1570
      3  C        -40.6860  -25.3040  -47.1120 C.2    40  MET40       0.2261
      4  O        -40.4220  -24.1440  -47.4270 O.2    40  MET40      -0.2867
      5  CB       -41.5900  -26.9930  -48.8140 C.3    40  MET40       0.0387
      6  CG       -40.4930  -26.5720  -49.7370 C.3    40  MET40       0.0595
      7  SD       -40.3630  -27.5830  -51.2200 S.3    40  MET40      -0.1393
      8  CE       -40.0060  -29.0950  -50.5110 C.3    40  MET40       0.0692
      9  N        -34.7220  -26.8710  -46.2070 N.3    43  SER43      -0.1202
     10  CA       -34.1560  -28.2100  -46.3820 C.3    43  SER43       0.2020
     11  C        -35.0150  -29.1450  -47.2400 C.2    43  SER43       0.2619
     12  O        -34.6350  -30.2980  -47.4330 O.2    43  SER43      -0.2717
     13  CB       -33.8250  -28.8440  -45.0360 C.3    43  SER43       0.2103
     14  OG       -32.6880  -28.2360  -44.4450 O.3    43  SER43      -0.2182
     15  N        -36.1710  -28.6450  -47.7540 N.am   44  HIS44      -0.1961
     16  CA       -37.0960  -29.3590  -48.6450 C.3    44  HIS44       0.1787
     17  C        -37.5130  -30.6910  -48.0700 C.2    44  HIS44       0.2620
     18  O        -37.5480  -31.6940  -48.7800 O.2    44  HIS44      -0.2715
     19  CB       -36.4280  -29.5770  -50.0050 C.3    44  HIS44       0.0785
     20  CG       -36.1150  -28.3100  -50.7210 C.ar   44  HIS44       0.0821
     21  ND1      -36.7810  -27.9590  -51.8630 N.ar   44  HIS44      -0.2267
     22  CD2      -35.2180  -27.3430  -50.4210 C.ar   44  HIS44       0.1154
     23  CE1      -36.2720  -26.7960  -52.2290 C.ar   44  HIS44       0.1986
     24  NE2      -35.3400  -26.3790  -51.3800 N.ar   44  HIS44      -0.2212
     25  N        -37.8010  -30.7080  -46.7730 N.am   45  VAL45      -0.1963
     26  CA       -38.0850  -31.9260  -46.0290 C.3    45  VAL45       0.1727
     27  C        -39.4300  -31.8770  -45.2590 C.2    45  VAL45       0.2617
     28  O        -40.0450  -32.9180  -45.0130 O.2    45  VAL45      -0.2715
     29  CB       -36.8000  -32.2400  -45.1940 C.3    45  VAL45       0.0290
     30  CG1      -37.0480  -32.3730  -43.6920 C.3    45  VAL45       0.0023
     31  CG2      -36.0520  -33.4350  -45.7620 C.3    45  VAL45       0.0023
     32  N        -39.8900  -30.6610  -44.9340 N.am   46  SER46      -0.1936
     33  CA       -41.1530  -30.4300  -44.2500 C.3    46  SER46       0.2055
     34  C        -41.9680  -29.3800  -44.9950 C.2    46  SER46       0.2642
     35  O        -41.4010  -28.5650  -45.7240 O.2    46  SER46      -0.2714
     36  CB       -40.9170  -29.9900  -42.8070 C.3    46  SER46       0.2130
     37  OG       -40.2950  -28.7200  -42.7550 O.3    46  SER46      -0.2179
     38  N        -43.2960  -29.4100  -44.8070 N.am   47  LEU47      -0.1977
     39  CA       -44.2220  -28.4710  -45.4300 C.3    47  LEU47       0.1596
     40  C        -45.2120  -27.9130  -44.3950 C.2    47  LEU47       0.2287
     41  O        -45.7450  -28.6680  -43.5720 O.2    47  LEU47      -0.2864
     42  CB       -44.9860  -29.1540  -46.5860 C.3    47  LEU47       0.0297
     43  CG       -45.6890  -28.2110  -47.5690 C.3    47  LEU47       0.0022
     44  CD1      -45.6270  -28.7240  -48.9900 C.3    47  LEU47       0.0001
     45  CD2      -47.1160  -27.9740  -47.1690 C.3    47  LEU47       0.0001
     46  N        -41.4570  -23.0820  -55.0500 N.3   122  GLU122     -0.1245
     47  CA       -42.0790  -24.3360  -55.4460 C.3   122  GLU122      0.1567
     48  C        -43.4370  -24.5250  -54.7730 C.2   122  GLU122      0.2260
     49  O        -43.5280  -24.6480  -53.5380 O.2   122  GLU122     -0.2867
     50  CB       -41.1440  -25.5050  -55.1250 C.3   122  GLU122      0.0388
     51  CG       -41.5390  -26.7990  -55.7940 C.3   122  GLU122      0.1160
     52  CD       -40.5590  -27.9360  -55.5960 C.2   122  GLU122      0.3649
     53  OE1      -39.5670  -27.7660  -54.8470 O.co2 122  GLU122     -0.2457
     54  OE2      -40.8040  -29.0170  -56.1750 O.co2 122  GLU122     -0.2457
     55  N        -46.5100  -26.8750  -54.0720 N.3   124  LEU124     -0.1231
     56  CA       -46.8140  -28.2990  -53.9290 C.3   124  LEU124      0.1693
     57  C        -48.2410  -28.4800  -53.4310 C.2   124  LEU124      0.2593
     58  O        -48.6750  -27.7690  -52.5220 O.2   124  LEU124     -0.2718
     59  CB       -45.8320  -29.0100  -52.9790 C.3   124  LEU124      0.0284
     60  CG       -44.3480  -28.8340  -53.2550 C.3   124  LEU124      0.0019
     61  CD1      -43.5380  -29.2540  -52.0680 C.3   124  LEU124      0.0001
     62  CD2      -43.9120  -29.5930  -54.4890 C.3   124  LEU124      0.0001
     63  N        -48.9510  -29.4290  -54.0370 N.am  125  GLY125     -0.1942
     64  CA       -50.3330  -29.7410  -53.7020 C.3   125  GLY125      0.2014
     65  C        -50.4530  -31.0120  -52.8950 C.2   125  GLY125      0.2639
     66  O        -49.9440  -32.0590  -53.3090 O.2   125  GLY125     -0.2714
     67  N        -51.1390  -30.9290  -51.7470 N.am  126  ILE126     -0.1963
     68  CA       -51.3310  -32.0620  -50.8400 C.3   126  ILE126      0.1712
     69  C        -52.7220  -32.6990  -50.9380 C.2   126  ILE126      0.2458
     70  O        -53.6850  -32.1310  -50.4060 O.2   126  ILE126     -0.2730
     71  CB       -50.9650  -31.6930  -49.3890 C.3   126  ILE126      0.0289
     72  CG1      -49.4970  -31.2540  -49.3160 C.3   126  ILE126      0.0022
     73  CG2      -51.2700  -32.8660  -48.4260 C.3   126  ILE126      0.0023
     74  CD1      -49.1910  -30.4850  -48.1690 C.3   126  ILE126      0.0001
     75  N        -52.8480  -33.9100  -51.5300 N.am  127  PRO127     -0.2727
     76  CA       -54.1670  -34.5530  -51.5550 C.3   127  PRO127      0.1402
     77  C        -54.5450  -35.0830  -50.1700 C.2   127  PRO127      0.2269
     78  O        -53.7470  -35.7810  -49.5330 O.2   127  PRO127     -0.2865
     79  CB       -54.0120  -35.6630  -52.5970 C.3   127  PRO127      0.0296
     80  CG       -52.5610  -35.9570  -52.6420 C.3   127  PRO127      0.0237
     81  CD       -51.8120  -34.7440  -52.1790 C.3   127  PRO127      0.0939
     82  N        -55.3290  -41.9170  -43.3240 N.3   131  TYR131     -0.1241
     83  CA       -54.1750  -42.4550  -42.6050 C.3   131  TYR131      0.1605
     84  C        -54.4620  -43.7160  -41.7970 C.2   131  TYR131      0.2264
     85  O        -55.5570  -43.8760  -41.2520 O.2   131  TYR131     -0.2867
     86  CB       -53.4940  -41.3690  -41.7510 C.3   131  TYR131      0.0534
     87  CG       -53.0070  -40.1970  -42.5790 C.ar  131  TYR131     -0.0201
     88  CD1      -53.8680  -39.1600  -42.9300 C.ar  131  TYR131     -0.0009
     89  CD2      -51.6960  -40.1430  -43.0460 C.ar  131  TYR131     -0.0009
     90  CE1      -53.4390  -38.1000  -43.7210 C.ar  131  TYR131      0.0417
     91  CE2      -51.2510  -39.0780  -43.8290 C.ar  131  TYR131      0.0417
     92  CZ       -52.1310  -38.0630  -44.1710 C.ar  131  TYR131      0.1957
     93  OH       -51.7130  -37.0110  -44.9440 O.3   131  TYR131     -0.2866
     94  N        -31.5260  -38.1640  -32.3080 N.3   154  ASP154     -0.1225
     95  CA       -31.8870  -37.2360  -33.3850 C.3   154  ASP154      0.1805
     96  C        -33.1980  -37.5700  -34.0610 C.2   154  ASP154      0.2597
     97  O        -33.8950  -36.6650  -34.5180 O.2   154  ASP154     -0.2718
     98  CB       -30.7440  -37.1160  -34.4050 C.3   154  ASP154      0.1424
     99  CG       -29.4450  -36.6340  -33.7910 C.2   154  ASP154      0.3668
    100  OD1      -29.5050  -35.8290  -32.8250 O.co2 154  ASP154     -0.2456
    101  OD2      -28.3580  -37.0910  -34.2540 O.co2 154  ASP154     -0.2456
    102  N        -33.5200  -38.8670  -34.1220 N.am  155  ALA155     -0.1979
    103  CA       -34.7390  -39.4040  -34.7160 C.3   155  ALA155      0.1597
    104  C        -35.6570  -40.0720  -33.6920 C.2   155  ALA155      0.2287
    105  O        -35.1990  -40.5730  -32.6630 O.2   155  ALA155     -0.2864
    106  CB       -34.3950  -40.3810  -35.8220 C.3   155  ALA155      0.0319
    107  N        -40.1140  -43.4390  -38.6770 N.3   195  THR195     -0.1203
    108  CA       -38.9790  -42.7220  -38.0930 C.3   195  THR195      0.1994
    109  C        -38.9560  -41.2780  -38.5870 C.2   195  THR195      0.2618
    110  O        -39.0070  -41.0400  -39.7990 O.2   195  THR195     -0.2717
    111  CB       -37.6720  -43.4450  -38.3970 C.3   195  THR195      0.1784
    112  OG1      -37.7570  -44.7640  -37.8800 O.3   195  THR195     -0.2211
    113  CG2      -36.4710  -42.7540  -37.7910 C.3   195  THR195      0.0376
    114  N        -38.8430  -40.3180  -37.6530 N.am  196  PHE196     -0.1961
    115  CA       -38.7990  -38.9040  -38.0010 C.3   196  PHE196      0.1771
    116  C        -37.6990  -38.1300  -37.2840 C.2   196  PHE196      0.2619
    117  O        -37.3750  -38.4450  -36.1350 O.2   196  PHE196     -0.2715
    118  CB       -40.1540  -38.2560  -37.7080 C.3   196  PHE196      0.0574
    119  CG       -41.3090  -38.9040  -38.4230 C.ar  196  PHE196     -0.0200
    120  CD1      -41.4800  -38.7370  -39.7920 C.ar  196  PHE196     -0.0042
    121  CD2      -42.2230  -39.6860  -37.7300 C.ar  196  PHE196     -0.0042
    122  CE1      -42.5410  -39.3390  -40.4500 C.ar  196  PHE196     -0.0003
    123  CE2      -43.3050  -40.2570  -38.3840 C.ar  196  PHE196     -0.0003
    124  CZ       -43.4480  -40.0940  -39.7440 C.ar  196  PHE196     -0.0000
    125  N        -37.1620  -37.0720  -37.9460 N.am  197  ALA197     -0.1977
    126  CA       -36.1450  -36.1860  -37.3580 C.3   197  ALA197      0.1597
    127  C        -36.8070  -35.2930  -36.2850 C.2   197  ALA197      0.2287
    128  O        -37.7510  -34.5400  -36.5850 O.2   197  ALA197     -0.2864
    129  CB       -35.4890  -35.3240  -38.4370 C.3   197  ALA197      0.0319
    130  N        -37.1330  -31.2320  -36.6820 N.3   200  TYR200     -0.1241
    131  CA       -38.3200  -30.6970  -37.3310 C.3   200  TYR200      0.1605
    132  C        -39.5420  -30.7660  -36.4630 C.2   200  TYR200      0.2264
    133  O        -40.2730  -29.7920  -36.3970 O.2   200  TYR200     -0.2867
    134  CB       -38.5230  -31.3080  -38.7200 C.3   200  TYR200      0.0534
    135  CG       -37.3760  -30.9630  -39.6490 C.ar  200  TYR200     -0.0201
    136  CD1      -37.4520  -29.8680  -40.5050 C.ar  200  TYR200     -0.0009
    137  CD2      -36.1850  -31.6810  -39.6160 C.ar  200  TYR200     -0.0009
    138  CE1      -36.3770  -29.5120  -41.3250 C.ar  200  TYR200      0.0417
    139  CE2      -35.0940  -31.3130  -40.4010 C.ar  200  TYR200      0.0417
    140  CZ       -35.1980  -30.2390  -41.2680 C.ar  200  TYR200      0.1957
    141  OH       -34.1110  -29.8950  -42.0330 O.3   200  TYR200     -0.2866
    142  N        -44.6730  -45.1770  -45.3190 N.3   221  ASP221     -0.1225
    143  CA       -43.9650  -44.6060  -46.4720 C.3   221  ASP221      0.1805
    144  C        -44.5280  -43.2540  -46.9810 C.2   221  ASP221      0.2598
    145  O        -44.2800  -42.8750  -48.1280 O.2   221  ASP221     -0.2718
    146  CB       -43.7820  -45.6440  -47.5960 C.3   221  ASP221      0.1424
    147  CG       -42.5990  -46.5370  -47.4550 C.2   221  ASP221      0.3668
    148  OD1      -41.7950  -46.3690  -46.5630 O.co2 221  ASP221     -0.2456
    149  OD2      -42.4810  -47.4410  -48.3770 O.co2 221  ASP221     -0.2456
    150  N        -45.2730  -42.5230  -46.1240 N.am  222  VAL222     -0.1966
    151  CA       -45.8320  -41.2110  -46.4680 C.3   222  VAL222      0.1712
    152  C        -45.4860  -40.1920  -45.3630 C.2   222  VAL222      0.2458
    153  O        -45.2590  -40.6100  -44.2220 O.2   222  VAL222     -0.2730
    154  CB       -47.3570  -41.2180  -46.8410 C.3   222  VAL222      0.0289
    155  CG1      -47.7260  -42.3890  -47.7430 C.3   222  VAL222      0.0023
    156  CG2      -48.2560  -41.1570  -45.6140 C.3   222  VAL222      0.0023
    157  N        -45.4770  -38.8620  -45.6520 N.am  223  PRO223     -0.2727
    158  CA       -45.1670  -37.8850  -44.6000 C.3   223  PRO223      0.1402
    159  C        -46.1460  -37.8550  -43.4330 C.2   223  PRO223      0.2269
    160  O        -47.3260  -38.1810  -43.5830 O.2   223  PRO223     -0.2865
    161  CB       -45.1610  -36.5440  -45.3490 C.3   223  PRO223      0.0296
    162  CG       -44.9600  -36.8890  -46.7580 C.3   223  PRO223      0.0237
    163  CD       -45.6940  -38.1720  -46.9390 C.3   223  PRO223      0.0939
    164  N        -46.2650  -31.0130  -42.3110 N.3   239  TYR239     -0.1227
    165  CA       -45.9520  -32.2940  -42.9360 C.3   239  TYR239      0.1736
    166  C        -44.4680  -32.5520  -42.8080 C.2   239  TYR239      0.2595
    167  O        -43.6710  -31.6350  -43.0050 O.2   239  TYR239     -0.2718
    168  CB       -46.3740  -32.3240  -44.4030 C.3   239  TYR239      0.0548
    169  CG       -47.8700  -32.2030  -44.5920 C.ar  239  TYR239     -0.0200
    170  CD1      -48.5000  -30.9620  -44.5540 C.ar  239  TYR239     -0.0009
    171  CD2      -48.6570  -33.3280  -44.8230 C.ar  239  TYR239     -0.0009
    172  CE1      -49.8770  -30.8430  -44.7210 C.ar  239  TYR239      0.0417
    173  CE2      -50.0330  -33.2200  -45.0030 C.ar  239  TYR239      0.0417
    174  CZ       -50.6400  -31.9750  -44.9510 C.ar  239  TYR239      0.1957
    175  OH       -51.9990  -31.8520  -45.1410 O.3   239  TYR239     -0.2866
    176  N        -44.0980  -33.7860  -42.4430 N.am  240  LEU240     -0.1966
    177  CA       -42.6930  -34.1480  -42.2940 C.3   240  LEU240      0.1728
    178  C        -42.3890  -35.4200  -43.0510 C.2   240  LEU240      0.2616
    179  O        -42.9840  -36.4530  -42.7650 O.2   240  LEU240     -0.2715
    180  CB       -42.2970  -34.2840  -40.8000 C.3   240  LEU240      0.0311
    181  CG       -40.8300  -34.5830  -40.4640 C.3   240  LEU240      0.0022
    182  CD1      -39.8900  -33.5660  -41.1000 C.3   240  LEU240      0.0001
    183  CD2      -40.6270  -34.6640  -38.9600 C.3   240  LEU240      0.0001
    184  N        -41.4580  -35.3500  -44.0030 N.am  241  ALA241     -0.1964
    185  CA       -41.0420  -36.5120  -44.7690 C.3   241  ALA241      0.1713
    186  C        -40.4810  -37.5570  -43.8090 C.2   241  ALA241      0.2458
    187  O        -39.7210  -37.2070  -42.9060 O.2   241  ALA241     -0.2730
    188  CB       -39.9730  -36.1180  -45.7730 C.3   241  ALA241      0.0333
    189  N        -40.8730  -38.8370  -43.9460 N.am  242  PRO242     -0.2716
    190  CA       -40.3150  -39.8640  -43.0570 C.3   242  PRO242      0.1536
    191  C        -38.8590  -40.1790  -43.4010 C.2   242  PRO242      0.2598
    192  O        -38.3910  -39.8800  -44.5070 O.2   242  PRO242     -0.2715
    193  CB       -41.2270  -41.0620  -43.3010 C.3   242  PRO242      0.0310
    194  CG       -41.6710  -40.8990  -44.7010 C.3   242  PRO242      0.0237
    195  CD       -41.7650  -39.4280  -44.9600 C.3   242  PRO242      0.0939
    196  N        -38.1460  -40.7660  -42.4460 N.am  243  LYS243     -0.1964
    197  CA       -36.7610  -41.1600  -42.6510 C.3   243  LYS243      0.1728
    198  C        -36.6930  -42.4770  -43.4820 C.2   243  LYS243      0.2616
    199  O        -37.4690  -43.4130  -43.2380 O.2   243  LYS243     -0.2715
    200  CB       -36.0150  -41.2630  -41.3050 C.3   243  LYS243      0.0311
    201  CG       -34.8000  -40.3360  -41.2300 C.3   243  LYS243      0.0038
    202  CD       -34.7860  -39.4300  -40.0090 C.3   243  LYS243      0.0206
    203  CE       -33.3870  -39.2000  -39.4850 C.3   243  LYS243      0.1093
    204  NZ       -32.5830  -38.3160  -40.3690 N.3   243  LYS243     -0.1314
    205  N        -35.8070  -42.5090  -44.5010 N.am  244  ILE244     -0.1963
    206  CA       -35.5940  -43.6570  -45.3930 C.3   244  ILE244      0.1727
    207  C        -35.1570  -44.8650  -44.5540 C.2   244  ILE244      0.2616
    208  O        -34.1180  -44.7900  -43.8890 O.2   244  ILE244     -0.2715
    209  CB       -34.5500  -43.2790  -46.4900 C.3   244  ILE244      0.0290
    210  CG1      -35.1150  -42.1960  -47.4320 C.3   244  ILE244      0.0022
    211  CG2      -34.0240  -44.5090  -47.2540 C.3   244  ILE244      0.0023
    212  CD1      -34.1230  -41.4270  -48.1470 C.3   244  ILE244      0.0001
    213  N        -35.9670  -45.9550  -44.5380 N.am  245  GLU245     -0.1977
    214  CA       -35.6390  -47.1540  -43.7490 C.3   245  GLU245      0.1602
    215  C        -35.8340  -48.4630  -44.5080 C.2   245  GLU245      0.2287
    216  O        -34.9300  -49.3050  -44.5090 O.2   245  GLU245     -0.2864
    217  CB       -36.3780  -47.1670  -42.3940 C.3   245  GLU245      0.0415
    218  CG       -36.1500  -45.9240  -41.5340 C.3   245  GLU245      0.1163
    219  CD       -35.5800  -46.1230  -40.1450 C.2   245  GLU245      0.3649
    220  OE1      -36.2510  -46.7830  -39.3190 O.co2 245  GLU245     -0.2457
    221  OE2      -34.5010  -45.5560  -39.8580 O.co2 245  GLU245     -0.2457
@<TRIPOS>BOND
     1    54    52   ar
     2    51    52    1
     3    51    50    1
     4    52    53   ar
     5    47    50    1
     6    47    46    1
     7    47    48    1
     8    48    49    2
     9    62    60    1
    10    55    56    1
    11    63    64    1
    12    63    57   am
    13    56    57    1
    14    56    59    1
    15    64    65    1
    16    57    58    2
    17    66    65    2
    18    60    59    1
    19    60    61    1
    20    65    67   am
    21    80    79    1
    22    80    81    1
    23    79    76    1
    24    23    21   ar
    25    23    24   ar
    26    81    75    1
    27    21    20   ar
    28    67    68    1
    29    76    75    1
    30    76    77    1
    31    75    69   am
    32    24    22   ar
    33     7     8    1
    34     7     6    1
    35    69    68    1
    36    69    70    2
    37    68    71    1
    38    20    22   ar
    39    20    19    1
    40    77    78    2
    41    19    16    1
    42     6     5    1
    43    71    72    1
    44    71    73    1
    45    72    74    1
    46    44    43    1
    47     5     2    1
    48    18    17    2
    49    16    17    1
    50    16    15    1
    51   149   147   ar
    52     1     2    1
    53   212   210    1
    54   145   144    2
    55    17    25   am
    56    15    11   am
    57   155   154    1
    58     2     3    1
    59   146   147    1
    60   146   143    1
    61    43    45    1
    62    43    42    1
    63   147   148   ar
    64    12    11    2
    65   210   209    1
    66     4     3    2
    67   211   209    1
    68    11    10    1
    69   144   143    1
    70   144   150   am
    71   163   162    1
    72   163   157    1
    73   154   151    1
    74   154   156    1
    75    25    26    1
    76   162   161    1
    77    42    39    1
    78   209   206    1
    79   143   142    1
    80   151   150    1
    81   151   152    1
    82    10     9    1
    83    10    13    1
    84    26    27    1
    85    26    29    1
    86   188   185    1
    87    31    29    1
    88    35    34    2
    89   157   152   am
    90   157   158    1
    91    39    38    1
    92    39    40    1
    93   206   207    1
    94   206   205    1
    95   152   153    2
    96   161   158    1
    97    27    28    2
    98    27    32   am
    99    29    30    1
   100   175   174    1
   101    13    14    1
   102   173   174   ar
   103   173   171   ar
   104    34    38   am
   105    34    33    1
   106   195   194    1
   107   195   189    1
   108   174   172   ar
   109    93    92    1
   110    32    33    1
   111   171   169   ar
   112   185   184    1
   113   185   186    1
   114   172   170   ar
   115   194   193    1
   116   158   159    1
   117   169   170   ar
   118   169   168    1
   119   207   213   am
   120   207   208    2
   121   213   214    1
   122   216   215    2
   123   215   214    1
   124   192   191    2
   125   205   198   am
   126   168   165    1
   127    40    41    2
   128    33    36    1
   129    92    91   ar
   130    92    90   ar
   131   184   178   am
   132   189   186   am
   133   189   190    1
   134    91    89   ar
   135   186   187    2
   136   214   217    1
   137    90    88   ar
   138   160   159    2
   139   198   199    2
   140   198   197    1
   141   191   190    1
   142   191   196   am
   143    82    83    1
   144   193   190    1
   145   178   179    2
   146   178   177    1
   147    89    87   ar
   148   167   166    2
   149   165   166    1
   150   165   164    1
   151    88    87   ar
   152   166   176   am
   153    36    37    1
   154   197   196    1
   155   197   200    1
   156    83    84    1
   157    83    86    1
   158    87    86    1
   159   176   177    1
   160   217   218    1
   161   177   180    1
   162   141   140    1
   163    84    85    2
   164   218   219    1
   165   138   140   ar
   166   138   136   ar
   167   200   201    1
   168   140   139   ar
   169   201   202    1
   170   182   181    1
   171   180   181    1
   172   136   135   ar
   173   181   183    1
   174   122   120   ar
   175   122   124   ar
   176   139   137   ar
   177   204   203    1
   178   219   221   ar
   179   219   220   ar
   180   202   203    1
   181   110   109    2
   182   120   119   ar
   183   124   123   ar
   184   135   137   ar
   185   135   134    1
   186   134   131    1
   187   107   108    1
   188   109   108    1
   189   109   114   am
   190   129   126    1
   191   119   121   ar
   192   119   118    1
   193   111   108    1
   194   111   112    1
   195   111   113    1
   196   123   121   ar
   197   115   118    1
   198   115   114    1
   199   115   116    1
   200   125   126    1
   201   125   116   am
   202   126   127    1
   203   131   130    1
   204   131   132    1
   205   116   117    2
   206   128   127    2
   207   132   133    2
   208   106   103    1
   209   103   102    1
   210   103   104    1
   211    97    96    2
   212    98    99    1
   213    98    95    1
   214   101    99   ar
   215   102    96   am
   216    96    95    1
   217    99   100   ar
   218   104   105    2
   219    95    94    1
