@<TRIPOS>MOLECULE
tmp/3p8gA00.pdb
 96 93 0 0 0
SMALL
GASTEIGER

@<TRIPOS>ATOM
      1  N          7.1660   16.3510   25.7580 N.3   185  ASP185     -0.1225
      2  CA         8.6080   15.9410   25.7230 C.3   185  ASP185      0.1805
      3  C          8.8460   15.1100   24.4920 C.2   185  ASP185      0.2598
      4  O          7.9030   14.5430   23.8900 O.2   185  ASP185     -0.2718
      5  CB         8.9260   15.1170   27.0000 C.3   185  ASP185      0.1424
      6  CG        10.3760   15.0590   27.4200 C.2   185  ASP185      0.3668
      7  OD1       11.2690   15.6550   26.7620 O.co2 185  ASP185     -0.2456
      8  OD2       10.6120   14.4210   28.4880 O.co2 185  ASP185     -0.2456
      9  N         10.0940   14.9940   24.0790 N.am  186  SER186     -0.1938
     10  CA        10.4820   13.9890   23.1360 C.3   186  SER186      0.2055
     11  C         10.4720   12.5860   23.7990 C.2   186  SER186      0.2643
     12  O         10.4710   12.4850   25.0490 O.2   186  SER186     -0.2714
     13  CB        11.8800   14.2920   22.6320 C.3   186  SER186      0.2130
     14  OG        12.7730   14.3210   23.7110 O.3   186  SER186     -0.2179
     15  N         10.5220   11.5560   22.9920 N.am  187  CYS187     -0.1953
     16  CA        10.5340   10.2340   23.5100 C.3   187  CYS187      0.1843
     17  C         11.2090    9.2690   22.5400 C.2   187  CYS187      0.2628
     18  O         11.7130    9.7180   21.4700 O.2   187  CYS187     -0.2714
     19  CB         9.1140    9.7960   23.9400 C.3   187  CYS187      0.0997
     20  SG         9.0320    8.5040   25.2270 S.3   187  CYS187     -0.0797
     21  N         11.3570    7.9840   22.8760 N.am  188  GLN188     -0.1931
     22  CA        12.0810    7.0190   22.0420 C.3   188  GLN188      0.1817
     23  C         11.5780    7.0630   20.6170 C.2   188  GLN188      0.2332
     24  O         10.3700    7.0230   20.3720 O.2   188  GLN188     -0.2860
     25  CB        11.8840    5.5820   22.6000 C.2   188  GLN188      0.0077
     26  CG        12.4550    4.4710   21.7470 C.2   188  GLN188      0.0587
     27  CD        12.2560    3.0410   22.2330 C.2   188  GLN188      0.2841
     28  OE1       12.2900    2.7610   23.4240 O.2   188  GLN188     -0.2667
     29  NE2       12.0140    2.1500   21.2970 N.am  188  GLN188     -0.0837
     30  N         14.7340   10.6530   18.6440 N.3   191  SER191     -0.1217
     31  CA        16.1950   10.9650   18.6050 C.3   191  SER191      0.1889
     32  C         16.6710   11.2500   17.2150 C.2   191  SER191      0.2288
     33  O         16.2390   10.5950   16.2330 O.2   191  SER191     -0.2866
     34  CB        17.0380    9.8790   19.1800 C.3   191  SER191      0.2089
     35  OG        16.8180    9.7140   20.5770 O.3   191  SER191     -0.2183
     36  N         17.4860   16.0710   18.9310 N.3   210  VAL210     -0.1231
     37  CA        16.8960   15.2430   19.9880 C.3   210  VAL210      0.1692
     38  C         17.9530   14.1740   20.3990 C.2   210  VAL210      0.2593
     39  O         18.4510   13.4290   19.5670 O.2   210  VAL210     -0.2718
     40  CB        15.6410   14.5200   19.5080 C.3   210  VAL210      0.0266
     41  CG1       15.0570   13.6960   20.6390 C.3   210  VAL210      0.0020
     42  CG2       14.5750   15.4830   18.9530 C.3   210  VAL210      0.0020
     43  N         18.2700   14.1120   21.6950 N.am  211  SER211     -0.1938
     44  CA        19.3570   13.2600   22.1840 C.3   211  SER211      0.2055
     45  C         18.9070   12.2010   23.1940 C.2   211  SER211      0.2643
     46  O         18.9660   11.0100   22.8850 O.2   211  SER211     -0.2714
     47  CB        20.5420   14.1100   22.6560 C.3   211  SER211      0.2130
     48  OG        21.6110   13.2750   23.0830 O.3   211  SER211     -0.2179
     49  N         18.4890   12.5860   24.4160 N.am  212  TRP212     -0.1959
     50  CA        18.1800   11.5860   25.4330 C.3   212  TRP212      0.1771
     51  C         17.3400   12.2240   26.5290 C.2   212  TRP212      0.2620
     52  O         17.1420   13.4270   26.5690 O.2   212  TRP212     -0.2715
     53  CB        19.4770   10.9740   26.0350 C.3   212  TRP212      0.0590
     54  CG        20.3450   11.9060   26.7950 C.ar  212  TRP212      0.0006
     55  CD1       21.3200   12.7430   26.2780 C.ar  212  TRP212      0.0946
     56  CD2       20.3910   12.1140   28.1980 C.ar  212  TRP212      0.0152
     57  NE1       21.9820   13.4080   27.2710 N.ar  212  TRP212     -0.2442
     58  CE2       21.4400   13.0440   28.4610 C.ar  212  TRP212      0.0810
     59  CE3       19.7090   11.5520   29.2880 C.ar  212  TRP212      0.0012
     60  CZ2       21.7710   13.4280   29.7840 C.ar  212  TRP212      0.0191
     61  CZ3       20.0510   11.9510   30.5780 C.ar  212  TRP212      0.0001
     62  CH2       21.0360   12.8890   30.8180 C.ar  212  TRP212      0.0015
     63  N         16.8420   11.3520   27.4290 N.am  213  GLY213     -0.1954
     64  CA        16.1650   11.8490   28.6070 C.3   213  GLY213      0.1869
     65  C         16.0360   10.7370   29.6310 C.2   213  GLY213      0.2309
     66  O         16.2130    9.5840   29.3080 O.2   213  GLY213     -0.2863
     67  N         13.3120    8.8350   31.1680 N.3   215  GLY215     -0.1210
     68  CA        11.8770    8.7190   30.9320 C.3   215  GLY215      0.1956
     69  C         11.4050    9.7460   29.8840 C.2   215  GLY215      0.2612
     70  O         12.2300   10.4210   29.1870 O.2   215  GLY215     -0.2717
     71  N         10.1120    9.9930   29.8300 N.am  216  CYS216     -0.1970
     72  CA         9.5960   11.0070   28.9300 C.3   216  CYS216      0.1712
     73  C          8.4480   11.7280   29.6320 C.2   216  CYS216      0.2296
     74  O          7.5300   11.0630   30.1810 O.2   216  CYS216     -0.2864
     75  CB         9.0380   10.3610   27.6560 C.3   216  CYS216      0.0983
     76  SG        10.1950    9.3040   26.7850 S.3   216  CYS216     -0.0798
     77  N         12.0970   16.2990   34.6540 N.3   221  LYS221     -0.1245
     78  CA        12.9490   15.5270   33.7450 C.3   221  LYS221      0.1561
     79  C         12.6720   15.9310   32.3060 C.2   221  LYS221      0.2260
     80  O         12.1750   15.1280   31.5000 O.2   221  LYS221     -0.2867
     81  CB        12.7430   14.0280   33.9820 C.3   221  LYS221      0.0271
     82  CG        13.2360   13.6450   35.3480 C.3   221  LYS221      0.0035
     83  CD        12.9110   12.2300   35.6660 C.3   221  LYS221      0.0206
     84  CE        13.5110   11.8440   37.0890 C.3   221  LYS221      0.1093
     85  NZ        14.8860   12.4890   37.3000 N.3   221  LYS221     -0.1314
     86  N         13.5310   16.6760   28.4190 N.3   223  GLY223     -0.1210
     87  CA        14.4500   16.0760   27.4840 C.3   223  GLY223      0.1956
     88  C         15.7270   16.9080   27.2480 C.2   223  GLY223      0.2611
     89  O         15.7630   18.1140   27.4220 O.2   223  GLY223     -0.2717
     90  N         16.7640   16.1490   26.8660 N.am  224  VAL224     -0.1979
     91  CA        18.1040   16.6790   26.5980 C.3   224  VAL224      0.1595
     92  C         18.3710   16.6450   25.1080 C.2   224  VAL224      0.2287
     93  O         18.0730   15.6440   24.4100 O.2   224  VAL224     -0.2864
     94  CB        19.1630   15.9060   27.4210 C.3   224  VAL224      0.0276
     95  CG1       20.5130   16.5950   27.2760 C.3   224  VAL224      0.0022
     96  CG2       18.7690   15.8660   28.8770 C.3   224  VAL224      0.0022
@<TRIPOS>BOND
     1    33    32    2
     2    32    31    1
     3    31    30    1
     4    31    34    1
     5    36    37    1
     6    42    40    1
     7    34    35    1
     8    40    37    1
     9    40    41    1
    10    39    38    2
    11    37    38    1
    12    24    23    2
    13    38    43   am
    14    23    22    1
    15    29    27   am
    16    18    17    2
    17    43    44    1
    18    26    27    1
    19    26    25    2
    20    22    25    1
    21    22    21    1
    22    44    47    1
    23    44    45    1
    24    27    28    2
    25    17    21   am
    26    17    16    1
    27    13    10    1
    28    13    14    1
    29    47    48    1
    30    46    45    2
    31    15    16    1
    32    15    11   am
    33    10    11    1
    34    10     9    1
    35    45    49   am
    36    16    19    1
    37    11    12    2
    38     4     3    2
    39    19    20    1
    40     9     3   am
    41    93    92    2
    42    49    50    1
    43     3     2    1
    44    92    91    1
    45    20    76    1
    46    50    53    1
    47    50    51    1
    48     2     1    1
    49     2     5    1
    50    53    54    1
    51    55    54   ar
    52    55    57   ar
    53    51    52    2
    54    51    63   am
    55    91    90    1
    56    91    94    1
    57     7     6   ar
    58    76    75    1
    59    54    56   ar
    60    90    88   am
    61     5     6    1
    62    88    89    2
    63    88    87    1
    64    57    58   ar
    65    95    94    1
    66     6     8   ar
    67    94    96    1
    68    63    64    1
    69    87    86    1
    70    75    72    1
    71    56    58   ar
    72    56    59   ar
    73    58    60   ar
    74    64    65    1
    75    72    73    1
    76    72    71    1
    77    70    69    2
    78    59    61   ar
    79    66    65    2
    80    73    74    2
    81    60    62   ar
    82    71    69   am
    83    69    68    1
    84    61    62   ar
    85    68    67    1
    86    80    79    2
    87    79    78    1
    88    78    81    1
    89    78    77    1
    90    81    82    1
    91    82    83    1
    92    83    84    1
    93    84    85    1
