@<TRIPOS>MOLECULE
tmp/3p8oB01.pdb
 194 189 0 0 0
SMALL
GASTEIGER

@<TRIPOS>ATOM
      1  N         73.5550    4.1050    6.3960 N.3    41  GLN41      -0.1231
      2  CA        72.8140    5.3430    6.1980 C.3    41  GLN41       0.1698
      3  C         73.2030    6.4980    7.1170 C.2    41  GLN41       0.2593
      4  O         73.8940    6.3200    8.1180 O.2    41  GLN41      -0.2718
      5  CB        71.3160    5.0790    6.3330 C.3    41  GLN41       0.0381
      6  CG        70.8600    4.7690    7.7520 C.3    41  GLN41       0.0905
      7  CD        69.4950    4.0860    7.7840 C.2    41  GLN41       0.2608
      8  OE1       68.5570    4.5090    7.1020 O.2    41  GLN41      -0.2717
      9  NE2       69.3860    3.0160    8.5720 N.am   41  GLN41      -0.0878
     10  N         72.7420    7.6900    6.7560 N.am   42  SER42      -0.1938
     11  CA        72.9770    8.8870    7.5400 C.3    42  SER42       0.2055
     12  C         71.6230    9.5000    7.9110 C.2    42  SER42       0.2643
     13  O         70.6390    9.3760    7.1780 O.2    42  SER42      -0.2714
     14  CB        73.8170    9.8860    6.7220 C.3    42  SER42       0.2130
     15  OG        74.5050   10.8040    7.5600 O.3    42  SER42      -0.2179
     16  N         71.5750   10.1510    9.0630 N.am   43  PHE43      -0.1973
     17  CA        70.3610   10.8040    9.5290 C.3    43  PHE43       0.1639
     18  C         70.7580   11.8780   10.5290 C.2    43  PHE43       0.2290
     19  O         71.9510   12.1860   10.6540 O.2    43  PHE43      -0.2864
     20  CB        69.4030    9.7780   10.1540 C.3    43  PHE43       0.0560
     21  CG        70.0810    8.7580   11.0290 C.ar   43  PHE43      -0.0200
     22  CD1       70.8030    7.7050   10.4750 C.ar   43  PHE43      -0.0042
     23  CD2       69.9710    8.8320   12.4080 C.ar   43  PHE43      -0.0042
     24  CE1       71.3990    6.7440   11.2940 C.ar   43  PHE43      -0.0003
     25  CE2       70.5590    7.8810   13.2280 C.ar   43  PHE43      -0.0003
     26  CZ        71.2730    6.8340   12.6720 C.ar   43  PHE43      -0.0000
     27  N         64.2150    5.5360   15.1490 N.3    56  TYR56      -0.1227
     28  CA        64.5870    4.1380   15.2330 C.3    56  TYR56       0.1736
     29  C         64.9870    3.5270   13.8780 C.2    56  TYR56       0.2595
     30  O         65.9160    2.7190   13.8010 O.2    56  TYR56      -0.2718
     31  CB        63.4340    3.3440   15.8540 C.3    56  TYR56       0.0548
     32  CG        63.8060    1.9270   16.1740 C.ar   56  TYR56      -0.0200
     33  CD1       64.4100    1.6050   17.3930 C.ar   56  TYR56      -0.0009
     34  CD2       63.6190    0.9150   15.2430 C.ar   56  TYR56      -0.0009
     35  CE1       64.8200    0.3170   17.6690 C.ar   56  TYR56       0.0417
     36  CE2       64.0300   -0.3880   15.5150 C.ar   56  TYR56       0.0417
     37  CZ        64.6280   -0.6710   16.7270 C.ar   56  TYR56       0.1957
     38  OH        65.0660   -1.9390   16.9940 O.3    56  TYR56      -0.2866
     39  N         64.3030    3.8960   12.7990 N.am   57  HIS57      -0.1975
     40  CA        64.6190    3.2720   11.5100 C.3    57  HIS57       0.1656
     41  C         66.0060    3.6840   11.0600 C.2    57  HIS57       0.2291
     42  O         66.5490    3.1120   10.1160 O.2    57  HIS57      -0.2864
     43  CB        63.5790    3.6160   10.4370 C.3    57  HIS57       0.0771
     44  CG        63.6960    4.9960    9.8550 C.ar   57  HIS57       0.0820
     45  ND1       62.9850    6.0790   10.3390 N.ar   57  HIS57      -0.2267
     46  CD2       64.3630    5.4480    8.7640 C.ar   57  HIS57       0.1154
     47  CE1       63.2060    7.1330    9.5750 C.ar   57  HIS57       0.1986
     48  NE2       64.0400    6.7770    8.6100 N.ar   57  HIS57      -0.2212
     49  N         68.2260    2.2570   14.9600 N.3    60  GLY60      -0.1225
     50  CA        67.8780    0.9620   15.5180 C.3    60  GLY60       0.1811
     51  C         68.0540    0.9460   17.0310 C.2    60  GLY60       0.2280
     52  O         67.7030    1.9120   17.7190 O.2    60  GLY60      -0.2866
     53  N         59.7600    1.7160   19.2650 N.3    78  VAL78      -0.1231
     54  CA        59.7810    1.2630   17.8790 C.3    78  VAL78       0.1692
     55  C         58.5260    1.6460   17.0850 C.2    78  VAL78       0.2592
     56  O         58.6030    1.8970   15.8840 O.2    78  VAL78      -0.2718
     57  CB        59.9520   -0.2580   17.8310 C.3    78  VAL78       0.0266
     58  CG1       60.1540   -0.7120   16.3970 C.3    78  VAL78       0.0020
     59  CG2       61.1200   -0.6690   18.6990 C.3    78  VAL78       0.0020
     60  N         57.3730    1.6890   17.7490 N.am   79  ASP79      -0.1960
     61  CA        56.1200    1.9650   17.0530 C.3    79  ASP79       0.1840
     62  C         56.0830    3.4090   16.6070 C.2    79  ASP79       0.2622
     63  O         55.6170    3.7080   15.5100 O.2    79  ASP79      -0.2715
     64  CB        54.9180    1.7180   17.9690 C.3    79  ASP79       0.1450
     65  CG        54.6190    0.2360   18.1770 C.2    79  ASP79       0.3671
     66  OD1       55.0170   -0.6000   17.3190 O.co2  79  ASP79      -0.2456
     67  OD2       53.9740   -0.0720   19.2140 O.co2  79  ASP79      -0.2456
     68  N         56.5560    4.3010   17.4730 N.am   80  GLN80      -0.1963
     69  CA        56.6910    5.7100   17.1160 C.3    80  GLN80       0.1733
     70  C         57.9730    6.0260   16.3260 C.2    80  GLN80       0.2616
     71  O         58.1620    7.1530   15.8680 O.2    80  GLN80      -0.2715
     72  CB        56.6560    6.5810   18.3710 C.3    80  GLN80       0.0408
     73  CG        55.2880    6.6740   18.9980 C.3    80  GLN80       0.0908
     74  CD        55.1900    7.8250   19.9880 C.2    80  GLN80       0.2608
     75  OE1       56.2160    8.4430   20.3440 O.2    80  GLN80      -0.2717
     76  NE2       53.9550    8.1270   20.4420 N.am   80  GLN80      -0.0878
     77  N         58.8490    5.0390   16.1750 N.am   81  ASP81      -0.1971
     78  CA        60.0990    5.2370   15.4340 C.3    81  ASP81       0.1709
     79  C         60.9720    6.2920   16.1580 C.2    81  ASP81       0.2293
     80  O         61.6220    7.1020   15.5160 O.2    81  ASP81      -0.2864
     81  CB        59.8070    5.7180   14.0000 C.3    81  ASP81       0.1436
     82  CG        60.9520    5.4670   13.0580 C.2    81  ASP81       0.3671
     83  OD1       61.9060    4.7540   13.4320 O.co2  81  ASP81      -0.2456
     84  OD2       60.9050    5.9900   11.9280 O.co2  81  ASP81      -0.2456
     85  N         50.9110   15.6200   13.9280 N.3   122  SER122     -0.1202
     86  CA        52.1310   14.9580   13.4900 C.3   122  SER122      0.2020
     87  C         52.3870   15.1420   11.9870 C.2   122  SER122      0.2618
     88  O         53.1600   14.3980   11.3870 O.2   122  SER122     -0.2717
     89  CB        52.0630   13.4650   13.8660 C.3   122  SER122      0.2103
     90  OG        51.4740   12.6630   12.8550 O.3   122  SER122     -0.2182
     91  N         51.7210   16.1340   11.3910 N.am  123  ARG123     -0.1979
     92  CA        51.7820   16.3670    9.9520 C.3   123  ARG123      0.1597
     93  C         51.9090   17.8540    9.5750 C.2   123  ARG123      0.2287
     94  O         51.4200   18.7280   10.2810 O.2   123  ARG123     -0.2864
     95  CB        50.5400   15.7710    9.2850 C.3   123  ARG123      0.0334
     96  CG        50.5950   15.7900    7.7710 C.3   123  ARG123      0.0492
     97  CD        50.1050   14.4940    7.1600 C.3   123  ARG123      0.2205
     98  NE        50.4780   13.3150    7.9560 N.pl3 123  ARG123     -0.0865
     99  CZ        50.4640   12.0690    7.4870 C.cat 123  ARG123      0.5346
    100  NH1       50.1020   11.8410    6.2320 N.pl3 123  ARG123      0.1354
    101  NH2       50.8000   11.0550    8.2670 N.pl3 123  ARG123      0.1354
    102  N         62.0960   13.8190   -3.0170 N.3   132  VAL132     -0.1245
    103  CA        62.3230   12.9340   -1.8690 C.3   132  VAL132      0.1561
    104  C         63.8120   12.7430   -1.5650 C.2   132  VAL132      0.2260
    105  O         64.2100   12.6850   -0.4060 O.2   132  VAL132     -0.2867
    106  CB        61.6890   11.5350   -2.1050 C.3   132  VAL132      0.0252
    107  CG1       62.1430   10.5640   -1.0310 C.3   132  VAL132      0.0019
    108  CG2       60.1830   11.6480   -2.0920 C.3   132  VAL132      0.0019
    109  N         65.2570   15.2250    0.6920 N.3   135  LEU135     -0.1231
    110  CA        64.8660   15.0490    2.1010 C.3   135  LEU135      0.1693
    111  C         65.5560   13.8240    2.7400 C.2   135  LEU135      0.2592
    112  O         65.7510   13.7730    3.9540 O.2   135  LEU135     -0.2718
    113  CB        63.3360   14.8840    2.2320 C.3   135  LEU135      0.0284
    114  CG        62.4120   16.1010    2.0460 C.3   135  LEU135      0.0019
    115  CD1       63.0740   17.3700    2.6060 C.3   135  LEU135      0.0001
    116  CD2       62.1070   16.2890    0.5880 C.3   135  LEU135      0.0001
    117  N         65.9310   12.8500    1.9140 N.am  136  LYS136     -0.1966
    118  CA        66.4870   11.5870    2.3910 C.3   136  LYS136      0.1728
    119  C         67.7570   11.8500    3.2030 C.2   136  LYS136      0.2617
    120  O         68.5940   12.6580    2.8170 O.2   136  LYS136     -0.2715
    121  CB        66.7770   10.6850    1.1820 C.3   136  LYS136      0.0311
    122  CG        66.9210    9.2120    1.5120 C.3   136  LYS136      0.0038
    123  CD        65.6230    8.6160    2.0750 C.3   136  LYS136      0.0206
    124  CE        64.7260    8.1160    0.9300 C.3   136  LYS136      0.1093
    125  NZ        63.5250    7.3820    1.3930 N.3   136  LYS136     -0.1314
    126  N         67.8680   11.1860    4.3500 N.am  137  GLY137     -0.1940
    127  CA        68.9710   11.4540    5.2480 C.3   137  GLY137      0.2014
    128  C         68.6730   12.5500    6.2700 C.2   137  GLY137      0.2640
    129  O         69.5230   12.8530    7.1030 O.2   137  GLY137     -0.2714
    130  N         67.4860   13.1590    6.2090 N.am  138  SER138     -0.1935
    131  CA        67.1470   14.2560    7.1130 C.3   138  SER138      0.2055
    132  C         66.1830   13.8730    8.2500 C.2   138  SER138      0.2643
    133  O         65.8530   14.7080    9.0800 O.2   138  SER138     -0.2714
    134  CB        66.5870   15.4520    6.3290 C.3   138  SER138      0.2130
    135  OG        67.6390   16.2310    5.7740 O.3   138  SER138     -0.2179
    136  N         65.7440   12.6200    8.3120 N.am  139  SER139     -0.1949
    137  CA        64.9350   12.1960    9.4430 C.3   139  SER139      0.1924
    138  C         65.6810   12.4640   10.7510 C.2   139  SER139      0.2314
    139  O         66.9090   12.4040   10.7850 O.2   139  SER139     -0.2863
    140  CB        64.5990   10.7090    9.3500 C.3   139  SER139      0.2116
    141  OG        65.7590    9.8930    9.4220 O.3   139  SER139     -0.2180
    142  N         61.5940   15.2400   12.2860 N.3   154  PHE154     -0.1227
    143  CA        61.1420   14.7480   10.9900 C.3   154  PHE154      0.1736
    144  C         61.2280   13.2120   10.9320 C.2   154  PHE154      0.2595
    145  O         62.2830   12.6320   11.2280 O.2   154  PHE154     -0.2718
    146  CB        62.0220   15.3830    9.9080 C.3   154  PHE154      0.0547
    147  CG        61.6920   14.9540    8.5050 C.ar  154  PHE154     -0.0202
    148  CD1       60.4080   14.5620    8.1540 C.ar  154  PHE154     -0.0042
    149  CD2       62.6730   14.9720    7.5260 C.ar  154  PHE154     -0.0042
    150  CE1       60.1130   14.2020    6.8560 C.ar  154  PHE154     -0.0003
    151  CE2       62.3810   14.6120    6.2220 C.ar  154  PHE154     -0.0003
    152  CZ        61.0990   14.2270    5.8870 C.ar  154  PHE154     -0.0000
    153  N         60.1330   12.5600   10.5260 N.am  155  ARG155     -0.1966
    154  CA        60.0810   11.0880   10.5060 C.3   155  ARG155      0.1729
    155  C         59.9210   10.4690    9.1100 C.2   155  ARG155      0.2616
    156  O         60.5950    9.5000    8.7680 O.2   155  ARG155     -0.2715
    157  CB        58.9560   10.5830   11.4310 C.3   155  ARG155      0.0348
    158  CG        58.7560    9.0450   11.4540 C.3   155  ARG155      0.0492
    159  CD        57.7550    8.5690   12.5740 C.3   155  ARG155      0.2205
    160  NE        56.4860    9.3000   12.5190 N.pl3 155  ARG155     -0.0865
    161  CZ        55.6030    9.3890   13.5150 C.cat 155  ARG155      0.5346
    162  NH1       55.8190    8.7930   14.6760 N.pl3 155  ARG155      0.1354
    163  NH2       54.5030   10.1020   13.3520 N.pl3 155  ARG155      0.1354
    164  N         59.0260   11.0190    8.3020 N.am  156  ALA156     -0.1963
    165  CA        58.7150   10.4170    7.0140 C.3   156  ALA156      0.1728
    166  C         58.1730   11.4780    6.0500 C.2   156  ALA156      0.2616
    167  O         57.6930   12.5280    6.4770 O.2   156  ALA156     -0.2715
    168  CB        57.6800    9.2770    7.2040 C.3   156  ALA156      0.0334
    169  N         58.2530   11.1860    4.7580 N.am  157  ALA157     -0.1963
    170  CA        57.8170   12.1110    3.7190 C.3   157  ALA157      0.1728
    171  C         56.5470   11.5950    3.0510 C.2   157  ALA157      0.2616
    172  O         56.4190   10.4050    2.7750 O.2   157  ALA157     -0.2715
    173  CB        58.9250   12.2740    2.6610 C.3   157  ALA157      0.0334
    174  N         55.6090   12.4870    2.7900 N.am  158  VAL158     -0.1963
    175  CA        54.4540   12.1320    1.9770 C.3   158  VAL158      0.1727
    176  C         54.8230   12.4560    0.5450 C.2   158  VAL158      0.2616
    177  O         54.9650   13.6220    0.1830 O.2   158  VAL158     -0.2715
    178  CB        53.2130   12.9640    2.3760 C.3   158  VAL158      0.0290
    179  CG1       51.9910   12.5070    1.5750 C.3   158  VAL158      0.0023
    180  CG2       52.9540   12.8240    3.8720 C.3   158  VAL158      0.0023
    181  N         54.9990   11.4360   -0.2720 N.am  159  CYS159     -0.1968
    182  CA        55.4540   11.6830   -1.6210 C.3   159  CYS159      0.1712
    183  C         54.6520   10.9290   -2.6770 C.2   159  CYS159      0.2296
    184  O         54.0580    9.8780   -2.4080 O.2   159  CYS159     -0.2864
    185  CB        56.9430   11.3210   -1.7520 C.3   159  CYS159      0.0983
    186  SG        57.2940    9.5660   -1.5960 S.3   159  CYS159     -0.0798
    187  N         55.7680   14.0010    7.6970 N.3   168  ASP168     -0.1239
    188  CA        55.2420   13.4080    8.9200 C.3   168  ASP168      0.1674
    189  C         56.3460   13.4780    9.9850 C.2   168  ASP168      0.2266
    190  O         57.5070   13.1660    9.7090 O.2   168  ASP168     -0.2867
    191  CB        54.8360   11.9530    8.6400 C.3   168  ASP168      0.1410
    192  CG        54.6630   11.1310    9.9100 C.2   168  ASP168      0.3668
    193  OD1       55.6160   10.3780   10.2610 O.co2 168  ASP168     -0.2456
    194  OD2       53.5870   11.2270   10.5460 O.co2 168  ASP168     -0.2456
@<TRIPOS>BOND
     1   102   103    1
     2   183   184    2
     3   183   182    1
     4   106   108    1
     5   106   103    1
     6   106   107    1
     7   103   104    1
     8   185   182    1
     9   185   186    1
    10   182   181    1
    11   104   105    2
    12   181   176   am
    13   177   176    2
    14   176   175    1
    15   116   114    1
    16   109   110    1
    17   124   125    1
    18   124   123    1
    19   121   122    1
    20   121   118    1
    21   122   123    1
    22   179   178    1
    23   117   118    1
    24   117   111   am
    25   175   178    1
    26   175   174    1
    27   114   113    1
    28   114   115    1
    29   110   113    1
    30   110   111    1
    31   178   180    1
    32   118   119    1
    33   173   170    1
    34   111   112    2
    35   172   171    2
    36   174   171   am
    37   120   119    2
    38   171   170    1
    39   119   126   am
    40   170   169    1
    41   126   127    1
    42   169   166   am
    43   127   128    1
    44   135   134    1
    45   152   151   ar
    46   152   150   ar
    47   166   167    2
    48   166   165    1
    49     2     5    1
    50     2     1    1
    51     2     3    1
    52   130   128   am
    53   130   131    1
    54   151   149   ar
    55   100    99    1
    56   128   129    2
    57   134   131    1
    58     5     6    1
    59    14    11    1
    60    14    15    1
    61    10     3   am
    62    10    11    1
    63   150   148   ar
    64   165   168    1
    65   165   164    1
    66     8     7    2
    67   131   132    1
    68     3     4    2
    69    97    96    1
    70    97    98    1
    71    13    12    2
    72    99    98    2
    73    99   101    1
    74   149   147   ar
    75    11    12    1
    76   187   188    1
    77     6     7    1
    78    96    95    1
    79     7     9   am
    80    12    16   am
    81   148   147   ar
    82   132   136   am
    83   132   133    2
    84   164   155   am
    85   136   137    1
    86   147   146    1
    87    48    46   ar
    88    48    47   ar
    89   191   188    1
    90   191   192    1
    91    46    44   ar
    92   156   155    2
    93   188   189    1
    94    16    17    1
    95   155   154    1
    96    95    92    1
    97   140   141    1
    98   140   137    1
    99   137   138    1
   100    17    20    1
   101    17    18    1
   102    47    45   ar
   103    93    92    1
   104    93    94    2
   105   190   189    2
   106    44    45   ar
   107    44    43    1
   108   146   143    1
   109   192   193   ar
   110   192   194   ar
   111    92    91    1
   112    42    41    2
   113    20    21    1
   114    43    40    1
   115    22    21   ar
   116    22    24   ar
   117   154   153    1
   118   154   157    1
   119   153   144   am
   120    18    19    2
   121   138   139    2
   122   144   143    1
   123   144   145    2
   124   143   142    1
   125    21    23   ar
   126    41    40    1
   127    24    26   ar
   128    88    87    2
   129    91    87   am
   130   157   158    1
   131   158   159    1
   132    40    39    1
   133    84    82   ar
   134    87    86    1
   135    23    25   ar
   136   160   159    1
   137   160   161    2
   138    26    25   ar
   139    39    29   am
   140    90    89    1
   141    82    83   ar
   142    82    81    1
   143   163   161    1
   144    86    89    1
   145    86    85    1
   146   161   162    1
   147    30    29    2
   148    29    28    1
   149    81    78    1
   150    49    50    1
   151    27    28    1
   152    28    31    1
   153    34    36   ar
   154    34    32   ar
   155    78    79    1
   156    78    77    1
   157    63    62    2
   158    36    37   ar
   159    80    79    2
   160    50    51    1
   161    31    32    1
   162    71    70    2
   163    56    55    2
   164    32    33   ar
   165    77    70   am
   166    70    69    1
   167    58    57    1
   168    62    61    1
   169    62    68   am
   170    37    38    1
   171    37    35   ar
   172    51    52    2
   173    61    60    1
   174    61    64    1
   175    55    60   am
   176    55    54    1
   177    69    68    1
   178    69    72    1
   179    66    65   ar
   180    33    35   ar
   181    57    54    1
   182    57    59    1
   183    54    53    1
   184    64    65    1
   185    65    67   ar
   186    72    73    1
   187    73    74    1
   188    74    75    2
   189    74    76   am
