@<TRIPOS>MOLECULE
tmp/3p8pB00.pdb
 139 128 0 0 0
SMALL
GASTEIGER

@<TRIPOS>ATOM
      1  N         18.3380   -1.6710   31.6120 N.3    23  LEU23      -0.1245
      2  CA        17.4480   -0.5530   31.8560 C.3    23  LEU23       0.1561
      3  C         18.2520    0.6400   32.3830 C.2    23  LEU23       0.2260
      4  O         19.0900    0.4900   33.2710 O.2    23  LEU23      -0.2867
      5  CB        16.3690   -0.9640   32.8610 C.3    23  LEU23       0.0270
      6  CG        15.4720   -2.1270   32.4180 C.3    23  LEU23       0.0019
      7  CD1       14.8450   -2.7940   33.6240 C.3    23  LEU23       0.0001
      8  CD2       14.4090   -1.6150   31.4570 C.3    23  LEU23       0.0001
      9  N         20.6420   -6.8560   33.4470 N.3    66  ASP66      -0.1239
     10  CA        21.0350   -6.2190   34.6960 C.3    66  ASP66       0.1674
     11  C         21.5270   -7.1490   35.7960 C.2    66  ASP66       0.2266
     12  O         21.7220   -6.7130   36.9250 O.2    66  ASP66      -0.2867
     13  CB        19.8960   -5.3460   35.2300 C.3    66  ASP66       0.1410
     14  CG        19.6360   -4.1330   34.3490 C.2    66  ASP66       0.3668
     15  OD1       18.9530   -4.2880   33.3120 O.co2  66  ASP66      -0.2456
     16  OD2       20.1310   -3.0290   34.6800 O.co2  66  ASP66      -0.2456
     17  N         24.1820   -6.2500   38.5940 N.3    69  PHE69      -0.1241
     18  CA        23.8410   -5.4460   39.7710 C.3    69  PHE69       0.1605
     19  C         23.1820   -6.2250   40.8840 C.2    69  PHE69       0.2264
     20  O         22.0170   -6.0220   41.2160 O.2    69  PHE69      -0.2867
     21  CB        22.9540   -4.2860   39.3340 C.3    69  PHE69       0.0534
     22  CG        23.5780   -3.4490   38.2710 C.ar   69  PHE69      -0.0203
     23  CD1       22.9090   -3.1870   37.0900 C.ar   69  PHE69      -0.0042
     24  CD2       24.8760   -2.9680   38.4300 C.ar   69  PHE69      -0.0042
     25  CE1       23.5250   -2.4640   36.0800 C.ar   69  PHE69      -0.0003
     26  CE2       25.4930   -2.2460   37.4300 C.ar   69  PHE69      -0.0003
     27  CZ        24.8200   -1.9940   36.2520 C.ar   69  PHE69      -0.0000
     28  N         23.4540   -6.0720   44.1010 N.3    71  GLU71      -0.1231
     29  CA        23.0010   -5.4090   45.3130 C.3    71  GLU71       0.1699
     30  C         21.4990   -5.2780   45.4280 C.2    71  GLU71       0.2592
     31  O         20.9740   -5.2210   46.5350 O.2    71  GLU71      -0.2718
     32  CB        23.6050   -4.0180   45.4420 C.3    71  GLU71       0.0402
     33  CG        22.7320   -3.0710   46.2770 C.3    71  GLU71       0.1161
     34  CD        23.4680   -1.8320   46.7480 C.2    71  GLU71       0.3649
     35  OE1       24.3990   -1.9830   47.5820 O.co2  71  GLU71      -0.2457
     36  OE2       23.1140   -0.7150   46.2850 O.co2  71  GLU71      -0.2457
     37  N         20.8020   -5.2170   44.2980 N.am   72  ASP72      -0.1974
     38  CA        19.3520   -5.0470   44.3370 C.3    72  ASP72       0.1709
     39  C         18.5430   -6.2880   44.6960 C.2    72  ASP72       0.2293
     40  O         17.5070   -6.1880   45.3660 O.2    72  ASP72      -0.2864
     41  CB        18.8420   -4.4660   43.0100 C.3    72  ASP72       0.1436
     42  CG        19.3020   -3.0380   42.7930 C.2    72  ASP72       0.3671
     43  OD1       19.2680   -2.2660   43.7810 O.co2  72  ASP72      -0.2456
     44  OD2       19.6940   -2.6860   41.6520 O.co2  72  ASP72      -0.2456
     45  N         13.5500   -8.0510   36.0720 N.3    91  ARG91      -0.1245
     46  CA        14.7770   -8.3760   36.8000 C.3    91  ARG91       0.1563
     47  C         14.5510   -9.4610   37.8510 C.2    91  ARG91       0.2260
     48  O         15.4820  -10.1700   38.2450 O.2    91  ARG91      -0.2867
     49  CB        15.3360   -7.1270   37.5060 C.3    91  ARG91       0.0307
     50  CG        15.8280   -6.0050   36.5950 C.3    91  ARG91       0.0489
     51  CD        16.7760   -5.0930   37.3570 C.3    91  ARG91       0.2205
     52  NE        17.9580   -5.8270   37.7970 N.pl3  91  ARG91      -0.0865
     53  CZ        18.8800   -5.3560   38.6340 C.cat  91  ARG91       0.5346
     54  NH1       18.7750   -4.1350   39.1390 N.pl3  91  ARG91       0.1354
     55  NH2       19.9090   -6.1160   38.9820 N.pl3  91  ARG91       0.1354
     56  N         19.6780   -1.4210   46.4850 N.3   122  GLY122     -0.1225
     57  CA        20.2100   -0.0670   46.4570 C.3   122  GLY122      0.1811
     58  C         19.4720    0.8910   47.3850 C.2   122  GLY122      0.2280
     59  O         20.0860    1.7260   48.0570 O.2   122  GLY122     -0.2866
     60  N         11.0580    2.0770   42.8060 N.3   138  ARG138     -0.1245
     61  CA        11.4370    0.6720   42.8250 C.3   138  ARG138      0.1563
     62  C         11.0780   -0.0300   44.1380 C.2   138  ARG138      0.2260
     63  O         10.8660   -1.2390   44.1560 O.2   138  ARG138     -0.2867
     64  CB        12.9390    0.5320   42.5680 C.3   138  ARG138      0.0307
     65  CG        13.3740    0.7130   41.1190 C.3   138  ARG138      0.0489
     66  CD        12.9920   -0.4850   40.2270 C.3   138  ARG138      0.2205
     67  NE        13.5940   -0.3650   38.8990 N.pl3 138  ARG138     -0.0865
     68  CZ        14.8610   -0.6710   38.6050 C.cat 138  ARG138      0.5346
     69  NH1       15.6780   -1.1390   39.5380 N.pl3 138  ARG138      0.1354
     70  NH2       15.3350   -0.4660   37.3850 N.pl3 138  ARG138      0.1354
     71  N         17.3560    5.9160   43.6080 N.3   166  HIS166     -0.1241
     72  CA        17.3490    4.9890   44.7290 C.3   166  HIS166      0.1621
     73  C         17.9360    5.7440   45.9170 C.2   166  HIS166      0.2264
     74  O         18.5290    6.8120   45.7570 O.2   166  HIS166     -0.2867
     75  CB        18.2060    3.7510   44.4270 C.3   166  HIS166      0.0745
     76  CG        17.5440    2.7600   43.5180 C.ar  166  HIS166      0.0817
     77  ND1       17.2490    3.0350   42.2000 N.ar  166  HIS166     -0.2268
     78  CD2       17.1140    1.4950   43.7450 C.ar  166  HIS166      0.1154
     79  CE1       16.6670    1.9810   41.6550 C.ar  166  HIS166      0.1986
     80  NE2       16.5730    1.0330   42.5720 N.ar  166  HIS166     -0.2212
     81  N         20.5560    4.9790   47.9070 N.3   168  LYS168     -0.1231
     82  CA        22.0020    5.0840   47.7310 C.3   168  LYS168      0.1693
     83  C         22.4390    5.7250   46.4130 C.2   168  LYS168      0.2592
     84  O         23.5800    5.5820   45.9760 O.2   168  LYS168     -0.2718
     85  CB        22.6650    3.7160   47.9160 C.3   168  LYS168      0.0285
     86  CG        22.6280    3.2660   49.3620 C.3   168  LYS168      0.0035
     87  CD        23.4980    2.0460   49.6100 C.3   168  LYS168      0.0206
     88  CE        22.9940    0.8250   48.8410 C.3   168  LYS168      0.1093
     89  NZ        23.4920   -0.4490   49.4300 N.3   168  LYS168     -0.1314
     90  N         21.5240    6.4390   45.7800 N.am  169  SER169     -0.1952
     91  CA        21.8530    7.1220   44.5450 C.3   169  SER169      0.1924
     92  C         22.6290    8.3690   44.9330 C.2   169  SER169      0.2314
     93  O         23.4980    8.8340   44.1920 O.2   169  SER169     -0.2863
     94  CB        20.5890    7.5110   43.8020 C.3   169  SER169      0.2116
     95  OG        19.9040    6.3460   43.4120 O.3   169  SER169     -0.2180
     96  N         28.0090    7.8010   46.5950 N.3   214  ASN214     -0.1240
     97  CA        27.8230    6.3580   46.6180 C.3   214  ASN214      0.1653
     98  C         29.2330    5.8000   46.5330 C.2   214  ASN214      0.2266
     99  O         29.9570    6.0360   45.5610 O.2   214  ASN214     -0.2867
    100  CB        26.9590    5.8980   45.4130 C.3   214  ASN214      0.1155
    101  CG        26.6330    4.3920   45.4480 C.2   214  ASN214      0.2627
    102  OD1       27.4530    3.5560   45.0420 O.2   214  ASN214     -0.2716
    103  ND2       25.4330    4.0430   45.9490 N.am  214  ASN214     -0.0877
    104  N         23.8100    3.1430   32.9560 N.3   261  VAL261     -0.1231
    105  CA        22.6110    2.3510   33.1730 C.3   261  VAL261      0.1692
    106  C         22.2610    2.3190   34.6640 C.2   261  VAL261      0.2592
    107  O         21.6570    1.3700   35.1740 O.2   261  VAL261     -0.2718
    108  CB        22.7730    0.9110   32.5920 C.3   261  VAL261      0.0266
    109  CG1       22.8830    0.9870   31.0680 C.3   261  VAL261      0.0020
    110  CG2       23.9830    0.2210   33.1910 C.3   261  VAL261      0.0020
    111  N         22.6490    3.3930   35.3460 N.am  262  ASP262     -0.1974
    112  CA        22.3950    3.5830   36.7670 C.3   262  ASP262      0.1709
    113  C         23.1040    2.6240   37.7030 C.2   262  ASP262      0.2293
    114  O         22.6380    2.3810   38.8180 O.2   262  ASP262     -0.2864
    115  CB        20.8970    3.5330   37.0300 C.3   262  ASP262      0.1436
    116  CG        20.1680    4.6270   36.3200 C.2   262  ASP262      0.3671
    117  OD1       20.7360    5.7290   36.2540 O.co2 262  ASP262     -0.2456
    118  OD2       19.0400    4.3950   35.8430 O.co2 262  ASP262     -0.2456
    119  N         26.1030    1.9020   40.0730 N.3   264  LEU264     -0.1245
    120  CA        27.1450    2.5200   40.8650 C.3   264  LEU264      0.1561
    121  C         28.0370    1.4730   41.5090 C.2   264  LEU264      0.2260
    122  O         28.0590    0.3100   41.0950 O.2   264  LEU264     -0.2867
    123  CB        26.5280    3.4040   41.9450 C.3   264  LEU264      0.0270
    124  CG        25.5470    4.4280   41.4120 C.3   264  LEU264      0.0019
    125  CD1       25.0910    5.2900   42.5450 C.3   264  LEU264      0.0001
    126  CD2       26.2000    5.2580   40.3090 C.3   264  LEU264      0.0001
    127  N         28.1170    0.4230   44.9730 N.3   266  THR266     -0.1203
    128  CA        27.4460   -0.5380   45.8490 C.3   266  THR266      0.1994
    129  C         26.6670   -1.5670   45.0300 C.2   266  THR266      0.2618
    130  O         26.5820   -2.7310   45.3990 O.2   266  THR266     -0.2717
    131  CB        26.4590    0.1530   46.8040 C.3   266  THR266      0.1784
    132  OG1       25.5870    0.9950   46.0500 O.3   266  THR266     -0.2211
    133  CG2       27.1920    0.9740   47.8400 C.3   266  THR266      0.0376
    134  N         26.1260   -1.1190   43.9040 N.am  267  SER267     -0.1951
    135  CA        25.3250   -1.9470   43.0150 C.3   267  SER267      0.1924
    136  C         25.9120   -3.2660   42.5350 C.2   267  SER267      0.2314
    137  O         25.1880   -4.2510   42.4180 O.2   267  SER267     -0.2863
    138  CB        24.9270   -1.1330   41.7890 C.3   267  SER267      0.2116
    139  OG        24.4260    0.1380   42.1600 O.3   267  SER267     -0.2180
@<TRIPOS>BOND
     1   109   108    1
     2     8     6    1
     3     1     2    1
     4     2     3    1
     5     2     5    1
     6     3     4    2
     7     6     5    1
     8     6     7    1
     9   108   105    1
    10   108   110    1
    11   104   105    1
    12   105   106    1
    13    15    14   ar
    14     9    10    1
    15    14    16   ar
    16    14    13    1
    17   106   107    2
    18   106   111   am
    19    10    13    1
    20    10    11    1
    21   111   112    1
    22    11    12    2
    23   118   116   ar
    24    45    46    1
    25    25    27   ar
    26    25    23   ar
    27    27    26   ar
    28   117   116   ar
    29   116   115    1
    30    50    51    1
    31    50    49    1
    32   112   115    1
    33   112   113    1
    34    46    49    1
    35    46    47    1
    36    23    22   ar
    37    51    52    1
    38    70    68    1
    39    26    24   ar
    40   113   114    2
    41    52    53    2
    42    47    48    2
    43    22    24   ar
    44    22    21    1
    45    17    18    1
    46    68    67    2
    47    68    69    1
    48    53    55    1
    49    53    54    1
    50    67    66    1
    51    21    18    1
    52    18    19    1
    53   119   120    1
    54    66    65    1
    55   126   124    1
    56   120   121    1
    57   120   123    1
    58    19    20    2
    59   122   121    2
    60    65    64    1
    61   124   123    1
    62   124   125    1
    63    44    42   ar
    64    79    77   ar
    65    79    80   ar
    66   138   139    1
    67   138   135    1
    68    77    76   ar
    69   137   136    2
    70   136   135    1
    71    64    61    1
    72    80    78   ar
    73    42    41    1
    74    42    43   ar
    75    60    61    1
    76    61    62    1
    77    41    38    1
    78   135   134    1
    79    95    94    1
    80    76    78   ar
    81    76    75    1
    82    71    72    1
    83    94    91    1
    84   134   129   am
    85    28    29    1
    86    62    63    2
    87    93    92    2
    88    37    38    1
    89    37    30   am
    90    38    39    1
    91    75    72    1
    92    91    92    1
    93    91    90    1
    94    39    40    2
    95    72    73    1
    96   127   128    1
    97   129   130    2
    98   129   128    1
    99   102   101    2
   100    29    30    1
   101    29    32    1
   102   100   101    1
   103   100    97    1
   104    30    31    2
   105    32    33    1
   106   101   103   am
   107    99    98    2
   108    74    73    2
   109    90    83   am
   110   128   131    1
   111    84    83    2
   112   132   131    1
   113    33    34    1
   114    36    34   ar
   115    83    82    1
   116    57    56    1
   117    57    58    1
   118    98    97    1
   119    96    97    1
   120    34    35   ar
   121   131   133    1
   122    58    59    2
   123    82    81    1
   124    82    85    1
   125    85    86    1
   126    88    89    1
   127    88    87    1
   128    86    87    1
