@<TRIPOS>MOLECULE
tmp/3p8yA00.pdb
 145 132 0 0 0
SMALL
GASTEIGER

@<TRIPOS>ATOM
      1  N        -11.7760   -2.3090    2.8520 N.3    47  ASP47      -0.1239
      2  CA       -12.0130   -1.0470    2.1620 C.3    47  ASP47       0.1674
      3  C        -10.6730   -0.3790    1.8030 C.2    47  ASP47       0.2266
      4  O         -9.8670   -0.1500    2.6860 O.2    47  ASP47      -0.2867
      5  CB       -12.7860   -0.1500    3.1310 C.3    47  ASP47       0.1410
      6  CG       -13.4360    1.0370    2.4580 C.2    47  ASP47       0.3668
      7  OD1      -12.9530    1.4740    1.4000 O.co2  47  ASP47      -0.2456
      8  OD2      -14.4420    1.5460    3.0030 O.co2  47  ASP47      -0.2456
      9  N        -10.2470    2.6600    0.8930 N.3    49  LEU49      -0.1245
     10  CA       -10.3030    4.0790    1.2900 C.3    49  LEU49       0.1561
     11  C         -9.6380    4.9710    0.2540 C.2    49  LEU49       0.2260
     12  O         -9.0940    6.0320    0.5760 O.2    49  LEU49      -0.2867
     13  CB        -9.6770    4.3000    2.6750 C.3    49  LEU49       0.0270
     14  CG       -10.4030    3.6140    3.8370 C.3    49  LEU49       0.0019
     15  CD1       -9.6880    3.9040    5.1640 C.3    49  LEU49       0.0001
     16  CD2      -11.8900    4.0600    3.9000 C.3    49  LEU49       0.0001
     17  N        -10.5270    8.7640   -2.7720 N.3    52  ASP52      -0.1239
     18  CA       -11.4080    9.3880   -1.7870 C.3    52  ASP52       0.1674
     19  C        -10.8030   10.7690   -1.5360 C.2    52  ASP52       0.2266
     20  O         -9.6030   10.8810   -1.2620 O.2    52  ASP52      -0.2867
     21  CB       -11.5380    8.5280   -0.5250 C.3    52  ASP52       0.1410
     22  CG       -12.7410    8.9320    0.3290 C.2    52  ASP52       0.3668
     23  OD1      -13.0940   10.1350    0.3180 O.co2  52  ASP52      -0.2456
     24  OD2      -13.3550    8.0560    0.9870 O.co2  52  ASP52      -0.2456
     25  N        -12.9380   -0.6200    6.8190 N.3    75  SER75      -0.1217
     26  CA       -14.3860   -0.6050    7.0120 C.3    75  SER75       0.1889
     27  C        -14.9240   -1.9310    6.5110 C.2    75  SER75       0.2288
     28  O        -14.2650   -2.6040    5.7330 O.2    75  SER75      -0.2866
     29  CB       -15.0670    0.5520    6.2680 C.3    75  SER75       0.2089
     30  OG       -15.6070    0.1430    5.0130 O.3    75  SER75      -0.2183
     31  N        -17.3530   -2.4310    4.4960 N.3    77  ILE77      -0.1245
     32  CA       -18.1460   -2.2240    3.2820 C.3    77  ILE77       0.1561
     33  C        -18.3210   -3.5000    2.4420 C.2    77  ILE77       0.2260
     34  O        -19.4410   -3.8700    2.0840 O.2    77  ILE77      -0.2867
     35  CB       -17.5700   -1.0710    2.4090 C.3    77  ILE77       0.0252
     36  CG1      -18.4110   -0.8740    1.1500 C.3    77  ILE77       0.0019
     37  CG2      -16.0910   -1.3120    2.0730 C.3    77  ILE77       0.0019
     38  CD1      -19.8370   -0.5390    1.4480 C.3    77  ILE77       0.0001
     39  N        -20.4310   -6.0070    4.1280 N.3    80  LYS80      -0.1245
     40  CA       -21.8420   -5.6230    4.1280 C.3    80  LYS80       0.1561
     41  C        -22.4920   -6.0850    2.8270 C.2    80  LYS80       0.2260
     42  O        -23.6250   -6.5460    2.8140 O.2    80  LYS80      -0.2867
     43  CB       -22.0410   -4.1020    4.2870 C.3    80  LYS80       0.0271
     44  CG       -21.8460   -3.5940    5.7080 C.3    80  LYS80       0.0035
     45  CD       -22.4590   -2.1950    5.8610 C.3    80  LYS80       0.0206
     46  CE       -21.9010   -1.2060    4.8250 C.3    80  LYS80       0.1093
     47  NZ       -22.6050    0.1350    4.9850 N.3    80  LYS80      -0.1314
     48  N         -8.0370    3.0790   11.2550 N.3    99  ARG99      -0.1245
     49  CA        -7.5420    3.8770   10.1410 C.3    99  ARG99       0.1563
     50  C         -6.3690    4.7250   10.6410 C.2    99  ARG99       0.2260
     51  O         -6.5670    5.7060   11.3520 O.2    99  ARG99      -0.2867
     52  CB        -8.6590    4.7620    9.5810 C.3    99  ARG99       0.0307
     53  CG        -9.8450    3.9610    9.0070 C.3    99  ARG99       0.0489
     54  CD       -10.8970    4.8730    8.4160 C.3    99  ARG99       0.2205
     55  NE       -12.1200    4.1430    8.0870 N.pl3  99  ARG99      -0.0865
     56  CZ       -13.1740    4.6800    7.4790 C.cat  99  ARG99       0.5346
     57  NH1      -13.1510    5.9610    7.1120 N.pl3  99  ARG99       0.1354
     58  NH2      -14.2490    3.9360    7.2380 N.pl3  99  ARG99       0.1354
     59  N        -18.3490    2.7290   13.6290 N.3   116  GLN116     -0.1245
     60  CA       -19.3940    3.1650   12.7450 C.3   116  GLN116      0.1566
     61  C        -20.6100    2.2410   12.9840 C.2   116  GLN116      0.2260
     62  O        -20.4100    1.0830   13.0290 O.2   116  GLN116     -0.2867
     63  CB       -19.0300    2.9360   11.2710 C.3   116  GLN116      0.0367
     64  CG       -18.0410    3.7690   10.6060 C.3   116  GLN116      0.0905
     65  CD       -18.0530    3.5930    9.1070 C.2   116  GLN116      0.2608
     66  OE1      -18.9420    4.0430    8.4620 O.2   116  GLN116     -0.2717
     67  NE2      -17.0630    2.9540    8.5790 N.am  116  GLN116     -0.0878
     68  N        -22.9090    0.7040   10.9160 N.3   118  ASP118     -0.1239
     69  CA       -22.7860    0.5150    9.4940 C.3   118  ASP118      0.1674
     70  C        -23.9610   -0.3520    9.0340 C.2   118  ASP118      0.2266
     71  O        -24.1680   -1.3850    9.5230 O.2   118  ASP118     -0.2867
     72  CB       -21.4690   -0.1840    9.1900 C.3   118  ASP118      0.1410
     73  CG       -20.7700    0.3110    7.9020 C.2   118  ASP118      0.3668
     74  OD1      -21.3150    1.0900    7.1480 O.co2 118  ASP118     -0.2456
     75  OD2      -19.6560   -0.1690    7.6790 O.co2 118  ASP118     -0.2456
     76  N        -15.2800    8.6090   -5.6190 N.3   191  ARG191     -0.1231
     77  CA       -14.4170    7.9450   -4.6540 C.3   191  ARG191      0.1694
     78  C        -14.2680    6.4420   -4.9180 C.2   191  ARG191      0.2591
     79  O        -13.9110    6.0530   -6.0270 O.2   191  ARG191     -0.2718
     80  CB       -14.8650    8.2520   -3.2170 C.3   191  ARG191      0.0321
     81  CG       -16.3510    7.9700   -2.9030 C.3   191  ARG191      0.0489
     82  CD       -16.7060    8.5680   -1.5350 C.3   191  ARG191      0.2205
     83  NE       -18.0680    8.2600   -1.0720 N.pl3 191  ARG191     -0.0865
     84  CZ       -18.7040    8.9660   -0.1400 C.cat 191  ARG191      0.5346
     85  NH1      -18.1090   10.0320    0.3950 N.pl3 191  ARG191      0.1354
     86  NH2      -19.9410    8.6320    0.2380 N.pl3 191  ARG191      0.1354
     87  N        -14.5180    5.6150   -3.9050 N.am  192  GLU192     -0.1979
     88  CA       -14.1450    4.1820   -3.9700 C.3   192  GLU192      0.1602
     89  C        -14.9370    3.3580   -4.9910 C.2   192  GLU192      0.2287
     90  O        -16.0420    3.7280   -5.3620 O.2   192  GLU192     -0.2864
     91  CB       -14.2660    3.5430   -2.5880 C.3   192  GLU192      0.0415
     92  CG       -13.2510    4.0430   -1.5820 C.3   192  GLU192      0.1163
     93  CD       -13.7430    5.2240   -0.7400 C.2   192  GLU192      0.3649
     94  OE1      -14.8160    5.7850   -1.0360 O.co2 192  GLU192     -0.2457
     95  OE2      -13.0390    5.5990    0.2240 O.co2 192  GLU192     -0.2457
     96  N        -16.6770    0.7750   -4.8920 N.3   194  TYR194     -0.1227
     97  CA       -17.9380    0.1860   -4.4940 C.3   194  TYR194      0.1736
     98  C        -19.1290    1.1420   -4.5670 C.2   194  TYR194      0.2595
     99  O        -20.2730    0.6960   -4.5790 O.2   194  TYR194     -0.2718
    100  CB       -17.8180   -0.4690   -3.1120 C.3   194  TYR194      0.0548
    101  CG       -17.2440    0.4490   -2.0480 C.ar  194  TYR194     -0.0200
    102  CD1      -17.9770    1.5280   -1.5710 C.ar  194  TYR194     -0.0009
    103  CD2      -15.9840    0.2250   -1.5180 C.ar  194  TYR194     -0.0009
    104  CE1      -17.4680    2.3730   -0.5990 C.ar  194  TYR194      0.0417
    105  CE2      -15.4540    1.0760   -0.5430 C.ar  194  TYR194      0.0417
    106  CZ       -16.2180    2.1450   -0.0890 C.ar  194  TYR194      0.1957
    107  OH       -15.7260    2.9870    0.8830 O.3   194  TYR194     -0.2866
    108  N        -18.8870    2.4570   -4.6200 N.am  195  ASP195     -0.1974
    109  CA       -20.0110    3.3800   -4.7440 C.3   195  ASP195      0.1709
    110  C        -20.4900    3.3690   -6.1880 C.2   195  ASP195      0.2293
    111  O        -19.6830    3.4220   -7.1110 O.2   195  ASP195     -0.2864
    112  CB       -19.6100    4.8080   -4.3640 C.3   195  ASP195      0.1436
    113  CG       -19.6610    5.0620   -2.8650 C.2   195  ASP195      0.3671
    114  OD1      -20.0770    4.1670   -2.1010 O.co2 195  ASP195     -0.2456
    115  OD2      -19.3260    6.1950   -2.4570 O.co2 195  ASP195     -0.2456
    116  N        -21.3710    8.6430    5.9280 N.3   218  SER218     -0.1202
    117  CA       -21.0940    8.5260    4.4910 C.3   218  SER218      0.2020
    118  C        -21.6980    7.2350    3.9700 C.2   218  SER218      0.2619
    119  O        -21.6900    6.2150    4.6630 O.2   218  SER218     -0.2717
    120  CB       -19.5740    8.5370    4.1950 C.3   218  SER218      0.2103
    121  OG       -18.9390    7.4050    4.7510 O.3   218  SER218     -0.2182
    122  N        -22.2070    7.2640    2.7470 N.am  219  GLY219     -0.1956
    123  CA       -22.8840    6.0980    2.1990 C.3   219  GLY219      0.1869
    124  C        -23.0630    6.2090    0.6960 C.2   219  GLY219      0.2309
    125  O        -22.7000    7.2170    0.0910 O.2   219  GLY219     -0.2863
    126  N        -24.5580    0.9020   -4.4060 N.3   222  ARG222     -0.1245
    127  CA       -23.3370    0.1560   -4.7070 C.3   222  ARG222      0.1563
    128  C        -23.2300   -0.3520   -6.1360 C.2   222  ARG222      0.2260
    129  O        -24.2290   -0.5850   -6.7950 O.2   222  ARG222     -0.2867
    130  CB       -23.2080   -1.0790   -3.8110 C.3   222  ARG222      0.0307
    131  CG       -23.4660   -0.8630   -2.3480 C.3   222  ARG222      0.0489
    132  CD       -22.5900    0.2300   -1.7450 C.3   222  ARG222      0.2205
    133  NE       -22.9890    0.4210   -0.3560 N.pl3 222  ARG222     -0.0865
    134  CZ       -22.5330    1.3840    0.4350 C.cat 222  ARG222      0.5346
    135  NH1      -21.6360    2.2600   -0.0150 N.pl3 222  ARG222      0.1354
    136  NH2      -22.9690    1.4580    1.6810 N.pl3 222  ARG222      0.1354
    137  N        -24.9490    3.0220    4.4860 N.3   261  ALA261     -0.1231
    138  CA       -24.1870    4.1270    5.0350 C.3   261  ALA261      0.1694
    139  C        -23.5340    3.6570    6.3210 C.2   261  ALA261      0.2592
    140  O        -23.8950    2.6180    6.8660 O.2   261  ALA261     -0.2718
    141  CB       -25.1040    5.3110    5.3100 C.3   261  ALA261      0.0304
    142  N        -22.5580    4.4130    6.7940 N.am  262  GLY262     -0.1957
    143  CA       -22.0470    4.2170    8.1380 C.3   262  GLY262      0.1869
    144  C        -22.2300    5.5340    8.8770 C.2   262  GLY262      0.2309
    145  O        -22.1750    6.5900    8.2550 O.2   262  GLY262     -0.2863
@<TRIPOS>BOND
     1   111   110    2
     2   129   128    2
     3   110   109    1
     4   128   127    1
     5    79    78    2
     6    76    77    1
     7    90    89    2
     8    89    88    1
     9    78    77    1
    10    78    87   am
    11    96    97    1
    12   109   108    1
    13   109   112    1
    14   127   126    1
    15   127   130    1
    16    77    80    1
    17   108    98   am
    18    99    98    2
    19    98    97    1
    20    97   100    1
    21   112   113    1
    22    88    87    1
    23    88    91    1
    24   130   131    1
    25    80    81    1
    26   100   101    1
    27    81    82    1
    28   113   115   ar
    29   113   114   ar
    30    17    18    1
    31    91    92    1
    32   131   132    1
    33   101   102   ar
    34   101   103   ar
    35    18    19    1
    36    18    21    1
    37   132   133    1
    38    92    93    1
    39   102   104   ar
    40    19    20    2
    41    82    83    1
    42   103   105   ar
    43    83    84    2
    44    94    93   ar
    45    93    95   ar
    46   104   106   ar
    47   105   106   ar
    48    21    22    1
    49   133   134    2
    50    84    86    1
    51    84    85    1
    52   106   107    1
    53   135   134    1
    54   125   124    2
    55    11    12    2
    56    11    10    1
    57    23    22   ar
    58    22    24   ar
    59   134   136    1
    60   124   123    1
    61     9    10    1
    62    36    38    1
    63    36    35    1
    64    10    13    1
    65     7     6   ar
    66     3     2    1
    67     3     4    2
    68    37    35    1
    69    34    33    2
    70     2     1    1
    71     2     5    1
    72   123   122    1
    73    35    32    1
    74    33    32    1
    75     6     8   ar
    76     6     5    1
    77    13    14    1
    78   122   118   am
    79    42    41    2
    80    41    40    1
    81    32    31    1
    82    14    16    1
    83    14    15    1
    84   118   117    1
    85   118   119    2
    86    39    40    1
    87    40    43    1
    88   120   117    1
    89   120   121    1
    90    43    44    1
    91   137   138    1
    92   117   116    1
    93    46    47    1
    94    46    45    1
    95    30    29    1
    96   138   141    1
    97   138   139    1
    98    44    45    1
    99    28    27    2
   100    29    26    1
   101   139   142   am
   102   139   140    2
   103    27    26    1
   104   142   143    1
   105    25    26    1
   106    57    56    1
   107    74    73   ar
   108    58    56    1
   109    56    55    2
   110    75    73   ar
   111    73    72    1
   112    55    54    1
   113   143   144    1
   114   145   144    2
   115    54    53    1
   116    66    65    2
   117    67    65   am
   118    53    52    1
   119    70    69    1
   120    70    71    2
   121    65    64    1
   122    72    69    1
   123    69    68    1
   124    52    49    1
   125    49    50    1
   126    49    48    1
   127    64    63    1
   128    50    51    2
   129    63    60    1
   130    60    61    1
   131    60    59    1
   132    61    62    2
