@<TRIPOS>MOLECULE
tmp/3p8zA00.pdb
 210 202 0 0 0
SMALL
GASTEIGER

@<TRIPOS>ATOM
      1  N         10.1800   -8.9360   51.1550 N.3    51  SER51      -0.1217
      2  CA         8.7330   -8.7080   51.1420 C.3    51  SER51       0.1889
      3  C          7.9690  -10.0340   51.0200 C.2    51  SER51       0.2288
      4  O          8.5580  -11.0990   50.8190 O.2    51  SER51      -0.2866
      5  CB         8.3350   -7.8190   49.9530 C.3    51  SER51       0.2089
      6  OG         8.4630   -8.5280   48.7220 O.3    51  SER51      -0.2183
      7  N          6.4780  -10.7460   48.4630 N.3    53  GLY53      -0.1225
      8  CA         6.5140  -10.9630   47.0290 C.3    53  GLY53       0.1811
      9  C          7.3180  -12.2020   46.6420 C.2    53  GLY53       0.2280
     10  O          6.9750  -12.8750   45.6740 O.2    53  GLY53      -0.2866
     11  N         12.4520   -7.2350   35.8890 N.3    74  ASP74      -0.1239
     12  CA        11.4340   -7.1560   36.9430 C.3    74  ASP74       0.1674
     13  C         10.9050   -5.7170   37.0130 C.2    74  ASP74       0.2266
     14  O         11.5370   -4.8810   37.6320 O.2    74  ASP74      -0.2867
     15  CB        12.0510   -7.5780   38.2710 C.3    74  ASP74       0.1410
     16  CG        11.0250   -7.5670   39.4460 C.2    74  ASP74       0.3668
     17  OD1        9.8040   -7.4870   39.1690 O.co2  74  ASP74      -0.2456
     18  OD2       11.4640   -7.6430   40.5990 O.co2  74  ASP74      -0.2456
     19  N          8.4880   -2.7410   38.1070 N.3    76  GLY76      -0.1210
     20  CA         7.9280   -2.4090   39.4200 C.3    76  GLY76       0.1956
     21  C          8.4870   -3.3250   40.4800 C.2    76  GLY76       0.2612
     22  O          7.7270   -4.0510   41.1290 O.2    76  GLY76      -0.2717
     23  N          9.8110   -3.3180   40.6680 N.am   77  CYS77      -0.1956
     24  CA        10.4280   -4.2820   41.5760 C.3    77  CYS77       0.1843
     25  C         10.2050   -3.9670   43.0640 C.2    77  CYS77       0.2626
     26  O         10.3470   -4.8520   43.8920 O.2    77  CYS77      -0.2714
     27  CB        11.9110   -4.4820   41.2540 C.3    77  CYS77       0.0997
     28  SG        12.9430   -3.0340   41.6000 S.3    77  CYS77      -0.0797
     29  N          9.8370   -2.7240   43.4160 N.am   78  GLY78      -0.1940
     30  CA         9.7540   -2.3170   44.8190 C.3    78  GLY78       0.2014
     31  C         11.0140   -2.6310   45.6140 C.2    78  GLY78       0.2639
     32  O         12.1360   -2.3450   45.1640 O.2    78  GLY78      -0.2714
     33  N         10.8240   -3.2630   46.7790 N.am   79  ARG79      -0.1963
     34  CA        11.9390   -3.6360   47.6350 C.3    79  ARG79       0.1729
     35  C         12.8440   -4.7080   47.0030 C.2    79  ARG79       0.2617
     36  O         14.0480   -4.7870   47.3440 O.2    79  ARG79      -0.2715
     37  CB        11.4240   -4.0530   49.0150 C.3    79  ARG79       0.0348
     38  CG        10.6710   -2.9130   49.7480 C.3    79  ARG79       0.0492
     39  CD         9.8510   -3.3710   50.9590 C.3    79  ARG79       0.2205
     40  NE        10.5820   -4.2890   51.8330 N.pl3  79  ARG79      -0.0865
     41  CZ        11.2060   -3.9470   52.9590 C.cat  79  ARG79       0.5346
     42  NH1       11.8330   -4.8830   53.6740 N.pl3  79  ARG79       0.1354
     43  NH2       11.2000   -2.6790   53.3750 N.pl3  79  ARG79       0.1354
     44  N         12.2770   -5.5170   46.1020 N.am   80  GLY80      -0.1940
     45  CA        13.0240   -6.5040   45.2980 C.3    80  GLY80       0.2014
     46  C         12.6560   -7.9760   45.5010 C.2    80  GLY80       0.2639
     47  O         13.4020   -8.8810   45.0650 O.2    80  GLY80      -0.2714
     48  N         11.5090   -8.2310   46.1430 N.am   81  GLY81      -0.1939
     49  CA        11.1250   -9.6400   46.4300 C.3    81  GLY81       0.2014
     50  C         11.1580  -10.5820   45.2360 C.2    81  GLY81       0.2638
     51  O         11.5750  -11.7690   45.3780 O.2    81  GLY81      -0.2714
     52  N         10.7040  -10.1300   44.0610 N.am   82  TRP82      -0.1973
     53  CA        10.6880  -11.0050   42.9150 C.3    82  TRP82       0.1640
     54  C         12.1220  -11.1860   42.3750 C.2    82  TRP82       0.2290
     55  O         12.5090  -12.2870   41.9790 O.2    82  TRP82      -0.2864
     56  CB         9.7660  -10.4840   41.8190 C.3    82  TRP82       0.0576
     57  CG         8.2830  -10.7040   42.0610 C.ar   82  TRP82       0.0006
     58  CD1        7.6690  -11.0170   43.2550 C.ar   82  TRP82       0.0946
     59  CD2        7.2520  -10.6110   41.0920 C.ar   82  TRP82       0.0152
     60  NE1        6.3110  -11.1230   43.0770 N.ar   82  TRP82      -0.2442
     61  CE2        6.0150  -10.8650   41.7670 C.ar   82  TRP82       0.0810
     62  CE3        7.2280  -10.3210   39.7130 C.ar   82  TRP82       0.0012
     63  CZ2        4.7980  -10.8730   41.1000 C.ar   82  TRP82       0.0191
     64  CZ3        6.0050  -10.3240   39.0500 C.ar   82  TRP82       0.0001
     65  CH2        4.8030  -10.6000   39.7520 C.ar   82  TRP82       0.0015
     66  N         12.1000    0.3290   39.4430 N.3    99  THR99      -0.1203
     67  CA        10.9840    0.7450   40.2630 C.3    99  THR99       0.1994
     68  C         10.9860    2.2490   40.4380 C.2    99  THR99       0.2617
     69  O         12.0010    2.8830   40.2780 O.2    99  THR99      -0.2717
     70  CB        10.9770    0.0200   41.6290 C.3    99  THR99       0.1784
     71  OG1        9.6420   -0.0590   42.1370 O.3    99  THR99      -0.2211
     72  CG2       11.9300    0.6330   42.6610 C.3    99  THR99       0.0376
     73  N          9.8330    2.7890   40.8010 N.am  100  LYS100     -0.1979
     74  CA         9.6650    4.2440   40.8200 C.3   100  LYS100      0.1596
     75  C         10.3810    4.8790   42.0040 C.2   100  LYS100      0.2287
     76  O         11.0990    5.8970   41.8520 O.2   100  LYS100     -0.2864
     77  CB         8.1730    4.5280   40.8180 C.3   100  LYS100      0.0298
     78  CG         7.8010    5.7890   40.1640 C.3   100  LYS100      0.0038
     79  CD         6.3140    5.9820   40.2690 C.3   100  LYS100      0.0206
     80  CE         6.0290    7.4010   40.6520 C.3   100  LYS100      0.1093
     81  NZ         6.9000    8.3070   39.8060 N.3   100  LYS100     -0.1314
     82  N          6.2770    5.3370   47.4210 N.3   105  HIS105     -0.1226
     83  CA         6.7550    4.1530   46.7020 C.3   105  HIS105      0.1752
     84  C          7.9410    3.5310   47.4380 C.2   105  HIS105      0.2595
     85  O          8.8340    4.2390   47.8860 O.2   105  HIS105     -0.2718
     86  CB         7.1500    4.4920   45.2440 C.3   105  HIS105      0.0759
     87  CG         5.9980    4.9000   44.3670 C.ar  105  HIS105      0.0818
     88  ND1        5.1870    3.9880   43.7230 N.ar  105  HIS105     -0.2268
     89  CD2        5.5150    6.1240   44.0410 C.ar  105  HIS105      0.1154
     90  CE1        4.2620    4.6300   43.0280 C.ar  105  HIS105      0.1986
     91  NE2        4.4260    5.9290   43.2210 N.ar  105  HIS105     -0.2212
     92  N          7.9710    2.2080   47.5070 N.am  106  GLU106     -0.1979
     93  CA         9.0580    1.4750   48.1520 C.3   106  GLU106      0.1602
     94  C         10.3750    1.5890   47.3610 C.2   106  GLU106      0.2287
     95  O         10.3660    1.5690   46.1520 O.2   106  GLU106     -0.2864
     96  CB         8.6950   -0.0130   48.2760 C.3   106  GLU106      0.0415
     97  CG         7.5450   -0.3290   49.2510 C.3   106  GLU106      0.1163
     98  CD         7.9010   -0.2120   50.7570 C.2   106  GLU106      0.3649
     99  OE1        7.0290   -0.5560   51.5890 O.co2 106  GLU106     -0.2457
    100  OE2        9.0290    0.2060   51.1270 O.co2 106  GLU106     -0.2457
    101  N         12.7220    5.1260   38.4110 N.3   125  LYS125     -0.1231
    102  CA        12.4430    4.6730   37.0810 C.3   125  LYS125      0.1693
    103  C         10.9480    4.4060   36.9170 C.2   125  LYS125      0.2592
    104  O         10.4240    3.4180   37.4500 O.2   125  LYS125     -0.2718
    105  CB        13.2410    3.3870   36.7490 C.3   125  LYS125      0.0285
    106  CG        14.7670    3.5470   36.6960 C.3   125  LYS125      0.0035
    107  CD        15.2210    4.1400   35.3800 C.3   125  LYS125      0.0206
    108  CE        16.7180    3.9240   35.1840 C.3   125  LYS125      0.1093
    109  NZ        17.2860    4.8740   34.1850 N.3   125  LYS125     -0.1314
    110  N         10.2700    5.2830   36.1910 N.am  126  ASP126     -0.1960
    111  CA         8.8940    5.0430   35.7600 C.3   126  ASP126      0.1840
    112  C          8.9560    4.1950   34.4850 C.2   126  ASP126      0.2622
    113  O          9.4110    4.6500   33.4440 O.2   126  ASP126     -0.2715
    114  CB         8.1350    6.3840   35.5360 C.3   126  ASP126      0.1450
    115  CG         6.6590    6.1880   35.1610 C.2   126  ASP126      0.3671
    116  OD1        6.2370    5.0690   34.7830 O.co2 126  ASP126     -0.2456
    117  OD2        5.8740    7.1670   35.2310 O.co2 126  ASP126     -0.2456
    118  N          8.4930    2.9510   34.5680 N.am  127  VAL127     -0.1963
    119  CA         8.6040    2.0160   33.4240 C.3   127  VAL127      0.1727
    120  C          7.7160    2.3720   32.2120 C.2   127  VAL127      0.2616
    121  O          7.9060    1.8700   31.0880 O.2   127  VAL127     -0.2715
    122  CB         8.3960    0.5230   33.9010 C.3   127  VAL127      0.0290
    123  CG1        9.3490    0.2060   35.0490 C.3   127  VAL127      0.0023
    124  CG2        6.9620    0.3130   34.3060 C.3   127  VAL127      0.0023
    125  N          6.7450    3.2490   32.4230 N.am  128  PHE128     -0.1974
    126  CA         5.9610    3.7640   31.3270 C.3   128  PHE128      0.1639
    127  C          6.8920    4.4850   30.3220 C.2   128  PHE128      0.2290
    128  O          6.6200    4.4460   29.1230 O.2   128  PHE128     -0.2864
    129  CB         4.8680    4.6730   31.8730 C.3   128  PHE128      0.0560
    130  CG         3.9500    5.2410   30.8460 C.ar  128  PHE128     -0.0200
    131  CD1        2.6810    4.6790   30.6350 C.ar  128  PHE128     -0.0042
    132  CD2        4.3110    6.4040   30.1260 C.ar  128  PHE128     -0.0042
    133  CE1        1.7790    5.2510   29.6740 C.ar  128  PHE128     -0.0003
    134  CE2        3.4450    6.9630   29.1750 C.ar  128  PHE128     -0.0003
    135  CZ         2.1750    6.3970   28.9580 C.ar  128  PHE128     -0.0000
    136  N          4.7980   -6.4560   38.2550 N.3   141  ASP141     -0.1225
    137  CA         3.8850   -6.5560   39.4380 C.3   141  ASP141      0.1805
    138  C          3.2280   -5.1900   39.7140 C.2   141  ASP141      0.2598
    139  O          2.8300   -4.8810   40.8450 O.2   141  ASP141     -0.2718
    140  CB         4.6400   -7.0740   40.6590 C.3   141  ASP141      0.1424
    141  CG         3.7200   -7.6740   41.7420 C.2   141  ASP141      0.3668
    142  OD1        2.6030   -8.0900   41.4330 O.co2 141  ASP141     -0.2456
    143  OD2        4.1680   -7.7240   42.9050 O.co2 141  ASP141     -0.2456
    144  N          3.0670   -4.4140   38.6600 N.am  142  ILE142     -0.1966
    145  CA         2.5340   -3.0600   38.7870 C.3   142  ILE142      0.1727
    146  C          1.0290   -3.0550   38.7470 C.2   142  ILE142      0.2617
    147  O          0.4140   -3.6520   37.8530 O.2   142  ILE142     -0.2715
    148  CB         3.0830   -2.1380   37.6660 C.3   142  ILE142      0.0290
    149  CG1        4.5810   -1.9460   37.9040 C.3   142  ILE142      0.0022
    150  CG2        2.3540   -0.7330   37.6590 C.3   142  ILE142      0.0023
    151  CD1        5.2990   -1.2370   36.7250 C.3   142  ILE142      0.0001
    152  N          0.4390   -2.3050   39.6770 N.am  143  GLY143     -0.1940
    153  CA        -0.9820   -2.0060   39.5630 C.3   143  GLY143      0.2014
    154  C         -1.5110   -1.5740   40.9080 C.2   143  GLY143      0.2638
    155  O         -1.6630   -2.3810   41.7960 O.2   143  GLY143     -0.2714
    156  N         -1.7710   -0.2810   41.0510 N.am  144  GLU144     -0.1977
    157  CA        -2.1840    0.2570   42.3370 C.3   144  GLU144      0.1602
    158  C         -3.7130    0.2380   42.4970 C.2   144  GLU144      0.2287
    159  O         -4.4510    0.7480   41.6400 O.2   144  GLU144     -0.2864
    160  CB        -1.6650    1.6880   42.5070 C.3   144  GLU144      0.0415
    161  CG        -1.8910    2.1910   43.9350 C.3   144  GLU144      0.1163
    162  CD        -1.6180    3.7030   44.1130 C.2   144  GLU144      0.3649
    163  OE1       -1.1230    4.3770   43.1640 O.co2 144  GLU144     -0.2457
    164  OE2       -1.9170    4.2120   45.2160 O.co2 144  GLU144     -0.2457
    165  N         -5.4790    1.9960   34.7490 N.3   155  ARG155     -0.1245
    166  CA        -4.1540    1.5370   35.1960 C.3   155  ARG155      0.1563
    167  C         -3.7780    0.1830   34.6080 C.2   155  ARG155      0.2260
    168  O         -2.6390   -0.0360   34.2380 O.2   155  ARG155     -0.2867
    169  CB        -4.0880    1.4650   36.6950 C.3   155  ARG155      0.0307
    170  CG        -4.1480    2.8500   37.3330 C.3   155  ARG155      0.0489
    171  CD        -4.3300    2.8030   38.8410 C.3   155  ARG155      0.2205
    172  NE        -4.4910    4.1860   39.3360 N.pl3 155  ARG155     -0.0865
    173  CZ        -4.6480    4.5160   40.6170 C.cat 155  ARG155      0.5346
    174  NH1       -4.7910    5.8090   40.9580 N.pl3 155  ARG155      0.1354
    175  NH2       -4.6650    3.5740   41.5570 N.pl3 155  ARG155      0.1354
    176  N         -3.0570    0.4890   30.8520 N.3   158  ARG158     -0.1231
    177  CA        -1.7140    1.0970   30.7690 C.3   158  ARG158      0.1694
    178  C         -0.6350    0.0290   30.9170 C.2   158  ARG158      0.2591
    179  O          0.3100   -0.0350   30.1070 O.2   158  ARG158     -0.2718
    180  CB        -1.5020    2.1940   31.8340 C.3   158  ARG158      0.0321
    181  CG        -1.5820    3.6550   31.3580 C.3   158  ARG158      0.0489
    182  CD        -1.7720    4.5990   32.5730 C.3   158  ARG158      0.2205
    183  NE        -0.5520    5.1380   33.2040 N.pl3 158  ARG158     -0.0865
    184  CZ        -0.3950    5.3540   34.5240 C.cat 158  ARG158      0.5346
    185  NH1        0.7450    5.8990   34.9940 N.pl3 158  ARG158      0.1354
    186  NH2       -1.3580    5.0030   35.3920 N.pl3 158  ARG158      0.1354
    187  N         -0.7650   -0.8180   31.9530 N.am  159  VAL159     -0.1980
    188  CA         0.1850   -1.8940   32.1490 C.3   159  VAL159      0.1595
    189  C          0.2420   -2.8230   30.9220 C.2   159  VAL159      0.2287
    190  O          1.3430   -3.1060   30.4070 O.2   159  VAL159     -0.2864
    191  CB        -0.0810   -2.6970   33.4450 C.3   159  VAL159      0.0276
    192  CG1        0.6530   -4.0440   33.3570 C.3   159  VAL159      0.0022
    193  CG2        0.3370   -1.8680   34.7060 C.3   159  VAL159      0.0022
    194  N          1.9750   -1.1960   28.0440 N.3   162  MET162     -0.1245
    195  CA         3.3840   -1.0240   28.3640 C.3   162  MET162      0.1570
    196  C          4.1720   -2.3320   28.1960 C.2   162  MET162      0.2261
    197  O          5.2790   -2.3220   27.6540 O.2   162  MET162     -0.2867
    198  CB         3.5510   -0.4030   29.7470 C.3   162  MET162      0.0387
    199  CG         4.9600   -0.2040   30.2560 C.3   162  MET162      0.0595
    200  SD         5.7090   -1.7010   30.9450 S.3   162  MET162     -0.1393
    201  CE         4.6080   -1.9480   32.3820 C.3   162  MET162      0.0692
    202  N          1.1290   -8.9150   36.5100 N.3   175  LYS175     -0.1245
    203  CA        -0.0590   -8.6040   37.3010 C.3   175  LYS175      0.1561
    204  C         -1.1300   -7.8940   36.4610 C.2   175  LYS175      0.2260
    205  O         -0.8380   -6.9190   35.7280 O.2   175  LYS175     -0.2867
    206  CB         0.2950   -7.7840   38.5440 C.3   175  LYS175      0.0271
    207  CG        -0.8770   -7.6560   39.5270 C.3   175  LYS175      0.0035
    208  CD        -0.4240   -6.9750   40.7990 C.3   175  LYS175      0.0206
    209  CE        -0.8150   -5.5460   40.8140 C.3   175  LYS175      0.1093
    210  NZ        -0.2130   -4.7760   41.9490 N.3   175  LYS175     -0.1314
@<TRIPOS>BOND
     1   197   196    2
     2   194   195    1
     3   196   195    1
     4   195   198    1
     5   135   134   ar
     6   135   133   ar
     7   128   127    2
     8   134   132   ar
     9   133   131   ar
    10   198   199    1
    11   179   178    2
    12   132   130   ar
    13   199   200    1
    14   127   126    1
    15   190   189    2
    16   131   130   ar
    17   177   176    1
    18   177   178    1
    19   177   180    1
    20   130   129    1
    21   178   187   am
    22   189   188    1
    23   200   201    1
    24   121   120    2
    25   126   129    1
    26   126   125    1
    27   181   180    1
    28   181   182    1
    29   187   188    1
    30   188   191    1
    31   120   125   am
    32   120   119    1
    33   182   183    1
    34   183   184    2
    35   192   191    1
    36   119   122    1
    37   119   118    1
    38   113   112    2
    39   191   193    1
    40   122   124    1
    41   122   123    1
    42   109   108    1
    43   168   167    2
    44   112   118   am
    45   112   111    1
    46   184   185    1
    47   184   186    1
    48   167   166    1
    49   165   166    1
    50   116   115   ar
    51   115   117   ar
    52   115   114    1
    53   108   107    1
    54   166   169    1
    55   107   106    1
    56   114   111    1
    57   205   204    2
    58   111   110    1
    59    11    12    1
    60   110   103   am
    61   204   203    1
    62   202   203    1
    63   169   170    1
    64   106   105    1
    65   151   149    1
    66   105   102    1
    67   103   102    1
    68   103   104    2
    69    12    13    1
    70    12    15    1
    71    13    14    2
    72   102   101    1
    73   203   206    1
    74   170   171    1
    75   150   148    1
    76   148   149    1
    77   148   145    1
    78   147   146    2
    79    19    20    1
    80   136   137    1
    81    15    16    1
    82   206   207    1
    83   144   145    1
    84   144   138   am
    85   146   145    1
    86   146   152   am
    87   171   172    1
    88    64    62   ar
    89    64    65   ar
    90    17    16   ar
    91   172   173    2
    92    20    21    1
    93   137   138    1
    94   137   140    1
    95    66    67    1
    96    16    18   ar
    97   207   208    1
    98   153   152    1
    99   153   154    1
   100    62    59   ar
   101   138   139    2
   102    65    63   ar
   103    81    80    1
   104    78    79    1
   105    78    77    1
   106    67    68    1
   107    67    70    1
   108    79    80    1
   109    69    68    2
   110    68    73   am
   111    21    23   am
   112    21    22    2
   113   173   174    1
   114   173   175    1
   115   140   141    1
   116    23    24    1
   117   208   209    1
   118    73    74    1
   119   209   210    1
   120    77    74    1
   121    74    75    1
   122   154   156   am
   123   154   155    2
   124   156   157    1
   125    59    61   ar
   126    59    57   ar
   127    63    61   ar
   128    27    24    1
   129    27    28    1
   130   142   141   ar
   131    24    25    1
   132    70    71    1
   133    70    72    1
   134   159   158    2
   135   141   143   ar
   136    61    60   ar
   137    56    57    1
   138    56    53    1
   139    76    75    2
   140    55    54    2
   141    57    58   ar
   142   157   158    1
   143   157   160    1
   144    54    53    1
   145   160   161    1
   146    53    52    1
   147    90    91   ar
   148    90    88   ar
   149    25    29   am
   150    25    26    2
   151    60    58   ar
   152   163   162   ar
   153    91    89   ar
   154    29    30    1
   155    88    87   ar
   156   161   162    1
   157    89    87   ar
   158    52    50   am
   159   162   164   ar
   160    87    86    1
   161    30    31    1
   162    47    46    2
   163    32    31    2
   164    50    51    2
   165    50    49    1
   166    86    83    1
   167    45    46    1
   168    45    44    1
   169    46    48   am
   170    31    33   am
   171    10     9    2
   172    44    35   am
   173    48    49    1
   174    95    94    2
   175     9     8    1
   176    83    82    1
   177    83    84    1
   178    33    34    1
   179    35    36    2
   180    35    34    1
   181     8     7    1
   182    94    93    1
   183    84    92   am
   184    84    85    2
   185    92    93    1
   186    34    37    1
   187    93    96    1
   188    96    97    1
   189     6     5    1
   190    37    38    1
   191    97    98    1
   192    38    39    1
   193     5     2    1
   194    98   100   ar
   195    98    99   ar
   196     4     3    2
   197    39    40    1
   198     3     2    1
   199     2     1    1
   200    40    41    2
   201    41    43    1
   202    41    42    1
