@<TRIPOS>MOLECULE
tmp/3p99B01.pdb
 211 202 0 0 0
SMALL
GASTEIGER

@<TRIPOS>ATOM
      1  N          2.5780  -45.5760   12.9140 N.3    75  TYR75      -0.1241
      2  CA         3.7080  -45.5150   13.8350 C.3    75  TYR75       0.1605
      3  C          3.6090  -46.5490   14.9550 C.2    75  TYR75       0.2264
      4  O          4.1870  -46.3650   16.0280 O.2    75  TYR75      -0.2867
      5  CB         3.8460  -44.1090   14.4280 C.3    75  TYR75       0.0534
      6  CG         4.0250  -43.0170   13.3950 C.ar   75  TYR75      -0.0201
      7  CD1        4.7070  -43.2620   12.2090 C.ar   75  TYR75      -0.0009
      8  CD2        3.5300  -41.7380   13.6130 C.ar   75  TYR75      -0.0009
      9  CE1        4.8780  -42.2680   11.2620 C.ar   75  TYR75       0.0417
     10  CE2        3.6980  -40.7360   12.6740 C.ar   75  TYR75       0.0417
     11  CZ         4.3730  -41.0080   11.5000 C.ar   75  TYR75       0.1957
     12  OH         4.5460  -40.0180   10.5600 O.3    75  TYR75      -0.2866
     13  N          4.8730  -49.4820   14.9900 N.3    77  PHE77      -0.1227
     14  CA         6.1110  -50.2440   15.1260 C.3    77  PHE77       0.1736
     15  C          6.9630  -49.6860   16.2590 C.2    77  PHE77       0.2595
     16  O          7.9610  -50.2870   16.6540 O.2    77  PHE77      -0.2718
     17  CB         6.8980  -50.2730   13.8100 C.3    77  PHE77       0.0547
     18  CG         7.5530  -48.9680   13.4580 C.ar   77  PHE77      -0.0202
     19  CD1        8.8950  -48.7560   13.7320 C.ar   77  PHE77      -0.0042
     20  CD2        6.8350  -47.9600   12.8390 C.ar   77  PHE77      -0.0042
     21  CE1        9.5060  -47.5580   13.4040 C.ar   77  PHE77      -0.0003
     22  CE2        7.4390  -46.7610   12.5090 C.ar   77  PHE77      -0.0003
     23  CZ         8.7780  -46.5600   12.7920 C.ar   77  PHE77      -0.0000
     24  N          6.5520  -48.5380   16.7860 N.am   78  MET78      -0.1979
     25  CA         7.2660  -47.9010   17.8850 C.3    78  MET78       0.1605
     26  C          6.4790  -47.9670   19.1890 C.2    78  MET78       0.2287
     27  O          6.8780  -47.3800   20.1950 O.2    78  MET78      -0.2864
     28  CB         7.5880  -46.4460   17.5440 C.3    78  MET78       0.0413
     29  CG         8.5670  -46.2840   16.4020 C.3    78  MET78       0.0598
     30  SD         9.4030  -44.6930   16.4730 S.3    78  MET78      -0.1393
     31  CE        10.1600  -44.7920   18.0930 C.3    78  MET78       0.0692
     32  N          7.8330  -46.6180   23.5620 N.3    82  PHE82      -0.1241
     33  CA         7.2240  -45.8080   24.6090 C.3    82  PHE82       0.1605
     34  C          6.6710  -46.7040   25.7080 C.2    82  PHE82       0.2264
     35  O          6.8410  -46.4290   26.8960 O.2    82  PHE82      -0.2867
     36  CB         6.0970  -44.9460   24.0400 C.3    82  PHE82       0.0534
     37  CG         6.3620  -44.4360   22.6530 C.ar   82  PHE82      -0.0203
     38  CD1        5.5640  -44.8340   21.5930 C.ar   82  PHE82      -0.0042
     39  CD2        7.4080  -43.5620   22.4080 C.ar   82  PHE82      -0.0042
     40  CE1        5.8020  -44.3680   20.3140 C.ar   82  PHE82      -0.0003
     41  CE2        7.6530  -43.0920   21.1300 C.ar   82  PHE82      -0.0003
     42  CZ         6.8490  -43.4960   20.0820 C.ar   82  PHE82      -0.0000
     43  N          1.1810  -45.4740   26.1360 N.3    86  VAL86      -0.1231
     44  CA         1.8790  -44.1960   26.0460 C.3    86  VAL86       0.1692
     45  C          2.0430  -43.7590   24.5960 C.2    86  VAL86       0.2592
     46  O          2.4120  -44.5580   23.7360 O.2    86  VAL86      -0.2718
     47  CB         3.2630  -44.2540   26.7160 C.3    86  VAL86       0.0266
     48  CG1        4.0540  -42.9940   26.4070 C.3    86  VAL86       0.0020
     49  CG2        3.1170  -44.4450   28.2170 C.3    86  VAL86       0.0020
     50  N          1.7680  -42.4850   24.3320 N.am   87  ALA87      -0.1966
     51  CA         1.8640  -41.9430   22.9830 C.3    87  ALA87       0.1728
     52  C          0.8700  -42.6230   22.0490 C.2    87  ALA87       0.2616
     53  O         -0.3300  -42.6560   22.3230 O.2    87  ALA87      -0.2715
     54  CB         3.2810  -42.0870   22.4530 C.3    87  ALA87       0.0334
     55  N          1.3750  -43.1670   20.9460 N.am   88  TYR88      -0.1974
     56  CA         0.5280  -43.8450   19.9720 C.3    88  TYR88       0.1639
     57  C         -0.2060  -45.0320   20.5950 C.2    88  TYR88       0.2290
     58  O         -1.1690  -45.5490   20.0270 O.2    88  TYR88      -0.2864
     59  CB         1.3490  -44.2910   18.7590 C.3    88  TYR88       0.0560
     60  CG         2.0030  -43.1450   18.0200 C.ar   88  TYR88      -0.0198
     61  CD1        3.3610  -43.1640   17.7250 C.ar   88  TYR88      -0.0009
     62  CD2        1.2640  -42.0350   17.6300 C.ar   88  TYR88      -0.0009
     63  CE1        3.9610  -42.1140   17.0520 C.ar   88  TYR88       0.0417
     64  CE2        1.8540  -40.9810   16.9590 C.ar   88  TYR88       0.0417
     65  CZ         3.2030  -41.0250   16.6730 C.ar   88  TYR88       0.1957
     66  OH         3.7920  -39.9750   16.0040 O.3    88  TYR88      -0.2866
     67  N         -2.9520  -39.0700   24.3450 N.3    95  MET95      -0.1245
     68  CA        -1.6750  -38.6730   23.7640 C.3    95  MET95       0.1570
     69  C         -1.6480  -37.1600   23.5920 C.2    95  MET95       0.2261
     70  O         -0.6760  -36.4980   23.9580 O.2    95  MET95      -0.2867
     71  CB        -1.4430  -39.3560   22.4150 C.3    95  MET95       0.0387
     72  CG        -0.0690  -39.0740   21.8220 C.3    95  MET95       0.0595
     73  SD         0.0460  -39.4560   20.0640 S.3    95  MET95      -0.1393
     74  CE        -1.1890  -38.3380   19.3990 C.3    95  MET95       0.0692
     75  N         -0.6220  -36.1210   26.7360 N.3    98  GLN98      -0.1231
     76  CA         0.7580  -36.4810   27.0180 C.3    98  GLN98       0.1698
     77  C          1.6580  -35.5510   26.2150 C.2    98  GLN98       0.2592
     78  O          2.7820  -35.2520   26.6180 O.2    98  GLN98      -0.2718
     79  CB         1.0330  -37.9410   26.6570 C.3    98  GLN98       0.0381
     80  CG         0.4130  -38.9470   27.6160 C.3    98  GLN98       0.0905
     81  CD         0.8570  -40.3740   27.3400 C.2    98  GLN98       0.2608
     82  OE1        1.3280  -40.6910   26.2480 O.2    98  GLN98      -0.2717
     83  NE2        0.7060  -41.2420   28.3340 N.am   98  GLN98      -0.0878
     84  N          1.1450  -35.0920   25.0770 N.am   99  LEU99      -0.1980
     85  CA         1.8540  -34.1270   24.2470 C.3    99  LEU99       0.1596
     86  C          1.8700  -32.7590   24.9180 C.2    99  LEU99       0.2287
     87  O          2.8720  -32.0450   24.8660 O.2    99  LEU99      -0.2864
     88  CB         1.2050  -34.0210   22.8650 C.3    99  LEU99       0.0297
     89  CG         1.4190  -35.1860   21.8970 C.3    99  LEU99       0.0022
     90  CD1        0.6040  -34.9810   20.6280 C.3    99  LEU99       0.0001
     91  CD2        2.8950  -35.3580   21.5670 C.3    99  LEU99       0.0001
     92  N          4.4020  -32.3400   27.8340 N.3   102  LEU102     -0.1245
     93  CA         5.7640  -32.1790   27.3510 C.3   102  LEU102      0.1561
     94  C          5.9600  -30.7460   26.8740 C.2   102  LEU102      0.2260
     95  O          6.8250  -30.0240   27.3740 O.2   102  LEU102     -0.2867
     96  CB         6.0580  -33.1660   26.2220 C.3   102  LEU102      0.0270
     97  CG         7.4560  -33.0920   25.6050 C.3   102  LEU102      0.0019
     98  CD1        8.5230  -33.0090   26.6860 C.3   102  LEU102      0.0001
     99  CD2        7.6990  -34.2850   24.6910 C.3   102  LEU102      0.0001
    100  N         10.7450  -50.3090   10.9730 N.3   182  PRO182     -0.2116
    101  CA         9.7040  -49.5030   10.3420 C.3   182  PRO182      0.1372
    102  C          8.9630  -50.2650    9.2460 C.2   182  PRO182      0.2244
    103  O          7.7780  -50.0230    9.0160 O.2   182  PRO182     -0.2868
    104  CB        10.4860  -48.3340    9.7370 C.3   182  PRO182      0.0268
    105  CG        11.7280  -48.2500   10.5530 C.3   182  PRO182      0.0207
    106  CD        12.0670  -49.6670   10.8880 C.3   182  PRO182      0.0892
    107  N          7.6360  -41.0620   28.3310 N.3   256  MET256     -0.1245
    108  CA         7.6480  -39.6820   27.8640 C.3   256  MET256      0.1570
    109  C          9.0800  -39.2210   27.6200 C.2   256  MET256      0.2261
    110  O          9.3950  -38.6680   26.5650 O.2   256  MET256     -0.2867
    111  CB         6.9750  -38.7710   28.8910 C.3   256  MET256      0.0387
    112  CG         5.5140  -39.1000   29.1490 C.3   256  MET256      0.0595
    113  SD         4.4550  -38.6260   27.7700 S.3   256  MET256     -0.1393
    114  CE         4.6140  -36.8430   27.8320 C.3   256  MET256      0.0692
    115  N         10.4790  -40.7420   24.5040 N.3   259  ALA259     -0.1245
    116  CA         9.9170  -40.0730   23.3390 C.3   259  ALA259      0.1562
    117  C         10.7350  -38.8300   23.0040 C.2   259  ALA259      0.2260
    118  O         11.2190  -38.6750   21.8820 O.2   259  ALA259     -0.2867
    119  CB         8.4650  -39.7050   23.5880 C.3   259  ALA259      0.0290
    120  N         14.3220  -39.7020   21.8750 N.3   262  PHE262     -0.1227
    121  CA        14.2800  -40.3020   20.5480 C.3   262  PHE262      0.1736
    122  C         14.0730  -39.2320   19.4890 C.2   262  PHE262      0.2595
    123  O         14.8630  -39.1100   18.5530 O.2   262  PHE262     -0.2718
    124  CB        13.1700  -41.3480   20.4560 C.3   262  PHE262      0.0547
    125  CG        13.6390  -42.7500   20.7010 C.ar  262  PHE262     -0.0202
    126  CD1       14.1060  -43.1320   21.9470 C.ar  262  PHE262     -0.0042
    127  CD2       13.6120  -43.6890   19.6830 C.ar  262  PHE262     -0.0042
    128  CE1       14.5370  -44.4250   22.1730 C.ar  262  PHE262     -0.0003
    129  CE2       14.0410  -44.9830   19.9040 C.ar  262  PHE262     -0.0003
    130  CZ        14.5050  -45.3510   21.1500 C.ar  262  PHE262     -0.0000
    131  N         13.0090  -38.4550   19.6490 N.am  263  ALA263     -0.1980
    132  CA        12.6670  -37.4220   18.6860 C.3   263  ALA263      0.1597
    133  C         13.8050  -36.4220   18.5180 C.2   263  ALA263      0.2287
    134  O         14.2290  -36.1330   17.3990 O.2   263  ALA263     -0.2864
    135  CB        11.3930  -36.7100   19.1090 C.3   263  ALA263      0.0319
    136  N         18.0120  -36.3560   15.3150 N.3   267  THR267     -0.1218
    137  CA        17.6880  -35.3380   14.3600 C.3   267  THR267      0.1862
    138  C         18.4490  -34.0740   14.5760 C.2   267  THR267      0.2287
    139  O         19.0670  -33.5370   13.6840 O.2   267  THR267     -0.2866
    140  CB        16.2820  -34.9450   14.5980 C.3   267  THR267      0.1770
    141  OG1       16.2720  -33.9730   15.6260 O.3   267  THR267     -0.2211
    142  CG2       15.5170  -36.1010   15.0880 C.3   267  THR267      0.0375
    143  N         14.0030  -36.8850    8.7700 N.3   328  LEU328     -0.1231
    144  CA        12.9140  -37.8210    8.5130 C.3   328  LEU328      0.1693
    145  C         12.4410  -37.7100    7.0640 C.2   328  LEU328      0.2592
    146  O         11.8540  -36.7040    6.6710 O.2   328  LEU328     -0.2718
    147  CB        11.7440  -37.5750    9.4660 C.3   328  LEU328      0.0284
    148  CG        12.0530  -37.1510   10.9010 C.3   328  LEU328      0.0019
    149  CD1       10.8250  -37.3630   11.7670 C.3   328  LEU328      0.0001
    150  CD2       13.2420  -37.9060   11.4590 C.3   328  LEU328      0.0001
    151  N         12.6960  -38.7510    6.2770 N.am  329  LEU329     -0.1966
    152  CA        12.3960  -38.7300    4.8460 C.3   329  LEU329      0.1728
    153  C         10.8990  -38.7550    4.5480 C.2   329  LEU329      0.2616
    154  O         10.4540  -38.2170    3.5330 O.2   329  LEU329     -0.2715
    155  CB        13.0570  -39.9170    4.1400 C.3   329  LEU329      0.0311
    156  CG        14.5770  -40.0720    4.1870 C.3   329  LEU329      0.0022
    157  CD1       14.9820  -41.3440    3.4650 C.3   329  LEU329      0.0001
    158  CD2       15.2700  -38.8680    3.5750 C.3   329  LEU329      0.0001
    159  N         10.1290  -39.3870    5.4300 N.am  330  MET330     -0.1963
    160  CA         8.7310  -39.6850    5.1430 C.3   330  MET330      0.1736
    161  C          7.8310  -39.5420    6.3610 C.2   330  MET330      0.2616
    162  O          8.2450  -39.7940    7.4900 O.2   330  MET330     -0.2715
    163  CB         8.6070  -41.1100    4.6030 C.3   330  MET330      0.0427
    164  CG         9.1660  -41.3040    3.2070 C.3   330  MET330      0.0599
    165  SD         7.8770  -41.2200    1.9560 S.3   330  MET330     -0.1393
    166  CE         6.8470  -42.5970    2.4580 C.3   330  MET330      0.0692
    167  N          6.5890  -39.1460    6.1120 N.am  331  LEU331     -0.1963
    168  CA         5.5740  -39.0620    7.1490 C.3   331  LEU331      0.1728
    169  C          4.3070  -39.7230    6.6150 C.2   331  LEU331      0.2616
    170  O          3.8770  -39.4360    5.4950 O.2   331  LEU331     -0.2715
    171  CB         5.3150  -37.6010    7.5180 C.3   331  LEU331      0.0311
    172  CG         6.5640  -36.7430    7.7570 C.3   331  LEU331      0.0022
    173  CD1        6.2060  -35.2680    7.8720 C.3   331  LEU331      0.0001
    174  CD2        7.3250  -37.2090    8.9890 C.3   331  LEU331      0.0001
    175  N          3.7120  -40.6090    7.4070 N.am  332  MET332     -0.1977
    176  CA         2.5880  -41.4150    6.9310 C.3   332  MET332      0.1605
    177  C          1.3230  -41.2730    7.7690 C.2   332  MET332      0.2287
    178  O          1.3650  -40.8150    8.9110 O.2   332  MET332     -0.2864
    179  CB         2.9900  -42.8880    6.8570 C.3   332  MET332      0.0413
    180  CG         3.9950  -43.1970    5.7650 C.3   332  MET332      0.0598
    181  SD         4.7650  -44.8100    5.9800 S.3   332  MET332     -0.1393
    182  CE         5.8600  -44.4730    7.3580 C.3   332  MET332      0.0692
    183  N          5.7730  -30.6870   14.8150 N.3   394  CYS394     -0.1221
    184  CA         6.7560  -30.9560   15.8590 C.3   394  CYS394      0.1808
    185  C          6.6160  -29.9900   17.0320 C.2   394  CYS394      0.2601
    186  O          6.3590  -28.8020   16.8410 O.2   394  CYS394     -0.2717
    187  CB         8.1750  -30.8870   15.2880 C.3   394  CYS394      0.0970
    188  SG         9.4820  -31.2010   16.4960 S.3   394  CYS394     -0.0800
    189  N          6.7910  -30.5070   18.2450 N.am  395  ILE395     -0.1979
    190  CA         6.7080  -29.6830   19.4450 C.3   395  ILE395      0.1595
    191  C          8.0930  -29.3830   20.0010 C.2   395  ILE395      0.2287
    192  O          8.2260  -28.8660   21.1090 O.2   395  ILE395     -0.2864
    193  CB         5.8530  -30.3420   20.5530 C.3   395  ILE395      0.0276
    194  CG1        6.3580  -31.7530   20.8530 C.3   395  ILE395      0.0022
    195  CG2        4.3820  -30.3640   20.1600 C.3   395  ILE395      0.0022
    196  CD1        5.6840  -32.3930   22.0440 C.3   395  ILE395      0.0001
    197  N         17.1980  -45.4200    9.8220 N.3   432  MET432     -0.1230
    198  CA        15.8260  -45.0090   10.1050 C.3   432  MET432      0.1702
    199  C         15.7000  -43.4900   10.1080 C.2   432  MET432      0.2592
    200  O         14.7230  -42.9390    9.6030 O.2   432  MET432     -0.2718
    201  CB        15.3500  -45.5800   11.4380 C.3   432  MET432      0.0401
    202  CG        13.8730  -45.3590   11.7060 C.3   432  MET432      0.0596
    203  SD        13.4640  -45.5940   13.4410 S.3   432  MET432     -0.1393
    204  CE        14.1760  -47.2100   13.7370 C.3   432  MET432      0.0692
    205  N         16.6880  -42.8190   10.6930 N.am  433  VAL433     -0.1980
    206  CA        16.7910  -41.3670   10.5940 C.3   433  VAL433      0.1595
    207  C         18.0140  -41.0180    9.7500 C.2   433  VAL433      0.2287
    208  O         19.1270  -41.4570   10.0410 O.2   433  VAL433     -0.2864
    209  CB        16.8930  -40.6960   11.9740 C.3   433  VAL433      0.0276
    210  CG1       17.0810  -39.1950   11.8170 C.3   433  VAL433      0.0022
    211  CG2       15.6550  -40.9960   12.8030 C.3   433  VAL433      0.0022
@<TRIPOS>BOND
     1   165   166    1
     2   165   164    1
     3   164   163    1
     4   157   156    1
     5   154   153    2
     6   158   156    1
     7   155   156    1
     8   155   152    1
     9   153   152    1
    10   153   159   am
    11   163   160    1
    12   152   151    1
    13   160   159    1
    14   160   161    1
    15   170   169    2
    16   180   181    1
    17   180   179    1
    18   181   182    1
    19   167   161   am
    20   167   168    1
    21   151   145   am
    22   161   162    2
    23   169   168    1
    24   169   175   am
    25   146   145    2
    26   179   176    1
    27   176   175    1
    28   176   177    1
    29   145   144    1
    30   168   171    1
    31   171   172    1
    32   172   173    1
    33   172   174    1
    34   177   178    2
    35   144   143    1
    36   144   147    1
    37   103   102    2
    38   102   101    1
    39   147   148    1
    40   200   199    2
    41   104   101    1
    42   104   105    1
    43   207   208    2
    44   207   206    1
    45   197   198    1
    46   198   199    1
    47   198   201    1
    48   199   205   am
    49   101   100    1
    50   105   106    1
    51    12    11    1
    52   206   205    1
    53   206   209    1
    54   106   100    1
    55   148   150    1
    56   148   149    1
    57     9    11   ar
    58     9     7   ar
    59   201   202    1
    60    11    10   ar
    61   202   203    1
    62   210   209    1
    63   209   211    1
    64     7     6   ar
    65    22    23   ar
    66    22    20   ar
    67    10     8   ar
    68    23    21   ar
    69    20    18   ar
    70     1     2    1
    71     6     8   ar
    72     6     5    1
    73    21    19   ar
    74   203   204    1
    75    18    19   ar
    76    18    17    1
    77   139   138    2
    78    17    14    1
    79     2     5    1
    80     2     3    1
    81   137   138    1
    82   137   140    1
    83   137   136    1
    84   140   142    1
    85   140   141    1
    86   183   184    1
    87     3     4    2
    88    13    14    1
    89    14    15    1
    90   187   184    1
    91   187   188    1
    92   184   185    1
    93    66    65    1
    94    15    16    2
    95    15    24   am
    96    29    30    1
    97    29    28    1
    98    30    31    1
    99    65    64   ar
   100    65    63   ar
   101    24    25    1
   102   186   185    2
   103    64    62   ar
   104   185   189   am
   105    63    61   ar
   106   134   133    2
   107    28    25    1
   108    62    60   ar
   109    61    60   ar
   110    25    26    1
   111    60    59    1
   112   189   190    1
   113   133   132    1
   114   123   122    2
   115   132   135    1
   116   132   131    1
   117    59    56    1
   118    26    27    2
   119    74    73    1
   120   190   191    1
   121   190   193    1
   122   122   131   am
   123   122   121    1
   124   127   129   ar
   125   127   125   ar
   126   129   130   ar
   127    56    57    1
   128    56    55    1
   129   191   192    2
   130    58    57    2
   131    73    72    1
   132    42    40   ar
   133    42    41   ar
   134   195   193    1
   135    40    38   ar
   136   124   121    1
   137   124   125    1
   138   121   120    1
   139   193   194    1
   140    90    89    1
   141   125   126   ar
   142   194   196    1
   143    55    52   am
   144    41    39   ar
   145   130   128   ar
   146    91    89    1
   147    38    37   ar
   148    72    71    1
   149   118   117    2
   150    89    88    1
   151   126   128   ar
   152    52    53    2
   153    52    51    1
   154    39    37   ar
   155    71    68    1
   156    54    51    1
   157    37    36    1
   158    88    85    1
   159    51    50    1
   160   117   116    1
   161   116   119    1
   162   116   115    1
   163    32    33    1
   164    69    68    1
   165    69    70    2
   166    46    45    2
   167    68    67    1
   168    36    33    1
   169    85    86    1
   170    85    84    1
   171    50    45   am
   172    45    44    1
   173    33    34    1
   174    99    97    1
   175    87    86    2
   176    84    77   am
   177    97    96    1
   178    97    98    1
   179    34    35    2
   180    44    43    1
   181    44    47    1
   182    77    78    2
   183    77    76    1
   184    96    93    1
   185    82    81    2
   186    48    47    1
   187   110   109    2
   188    79    76    1
   189    79    80    1
   190    47    49    1
   191    75    76    1
   192    94    93    1
   193    94    95    2
   194    81    80    1
   195    81    83   am
   196    93    92    1
   197   109   108    1
   198   113   114    1
   199   113   112    1
   200   108   107    1
   201   108   111    1
   202   111   112    1
