@<TRIPOS>MOLECULE
tmp/3p9hA00.pdb
 196 193 0 0 0
SMALL
GASTEIGER

@<TRIPOS>ATOM
      1  N        -11.0640   -2.0170    1.1000 N.3    34  ASP34      -0.1239
      2  CA        -9.6080   -2.0510    1.0640 C.3    34  ASP34       0.1674
      3  C         -8.9370   -2.9080    2.1310 C.2    34  ASP34       0.2266
      4  O         -7.7140   -2.8980    2.2570 O.2    34  ASP34      -0.2867
      5  CB        -9.0610   -0.6260    1.1000 C.3    34  ASP34       0.1410
      6  CG        -9.4650    0.1710   -0.1210 C.2    34  ASP34       0.3668
      7  OD1       -9.0720   -0.2220   -1.2410 O.co2  34  ASP34      -0.2456
      8  OD2      -10.1830    1.1800    0.0330 O.co2  34  ASP34      -0.2456
      9  N         -5.8280   -7.0340    6.5130 N.3    52  THR52      -0.1203
     10  CA        -4.7810   -6.1180    6.0750 C.3    52  THR52       0.1994
     11  C         -5.2250   -5.1680    4.9740 C.2    52  THR52       0.2618
     12  O         -5.9720   -5.5490    4.0780 O.2    52  THR52      -0.2717
     13  CB        -3.5550   -6.9130    5.5700 C.3    52  THR52       0.1784
     14  OG1       -2.8870   -7.5200    6.6820 O.3    52  THR52      -0.2211
     15  CG2       -2.5900   -6.0080    4.8360 C.3    52  THR52       0.0376
     16  N         -4.7410   -3.9320    5.0400 N.am   53  GLY53      -0.1942
     17  CA        -5.1000   -2.9530    4.0380 C.3    53  GLY53       0.2014
     18  C         -5.1710   -1.5560    4.6100 C.2    53  GLY53       0.2639
     19  O         -4.3970   -1.2020    5.5000 O.2    53  GLY53      -0.2714
     20  N         -6.1030   -0.7620    4.0980 N.am   54  THR54      -0.1950
     21  CA        -6.2660    0.6110    4.5560 C.3    54  THR54       0.1897
     22  C         -7.7160    0.9310    4.8620 C.2    54  THR54       0.2313
     23  O         -8.6320    0.2830    4.3540 O.2    54  THR54      -0.2863
     24  CB        -5.7950    1.6430    3.4900 C.3    54  THR54       0.1794
     25  OG1       -6.6220    1.5500    2.3200 O.3    54  THR54      -0.2208
     26  CG2       -4.3560    1.3980    3.1030 C.3    54  THR54       0.0378
     27  N         -8.8580   13.8300    7.4580 N.3    59  TYR59      -0.1227
     28  CA        -8.0080   14.6510    8.3070 C.3    59  TYR59       0.1736
     29  C         -7.7570   15.9910    7.6270 C.2    59  TYR59       0.2595
     30  O         -7.1980   16.0440    6.5340 O.2    59  TYR59      -0.2718
     31  CB        -6.6740   13.9440    8.5600 C.3    59  TYR59       0.0548
     32  CG        -5.6890   14.7420    9.3870 C.ar   59  TYR59      -0.0200
     33  CD1       -5.9200   14.9930   10.7400 C.ar   59  TYR59      -0.0009
     34  CD2       -4.5160   15.2320    8.8180 C.ar   59  TYR59      -0.0009
     35  CE1       -5.0010   15.7120   11.5070 C.ar   59  TYR59       0.0417
     36  CE2       -3.5920   15.9510    9.5740 C.ar   59  TYR59       0.0417
     37  CZ        -3.8390   16.1870   10.9160 C.ar   59  TYR59       0.1957
     38  OH        -2.9190   16.8910   11.6630 O.3    59  TYR59      -0.2866
     39  N         -8.1890   17.0620    8.2850 N.am   60  ARG60      -0.1980
     40  CA        -8.0260   18.4250    7.7880 C.3    60  ARG60       0.1597
     41  C         -8.4820   18.6520    6.3510 C.2    60  ARG60       0.2287
     42  O         -7.7640   19.2550    5.5510 O.2    60  ARG60      -0.2864
     43  CB        -6.5690   18.8700    7.9460 C.3    60  ARG60       0.0334
     44  CG        -6.0590   18.7610    9.3740 C.3    60  ARG60       0.0492
     45  CD        -4.6800   19.3730    9.5380 C.3    60  ARG60       0.2205
     46  NE        -4.7030   20.8250    9.3780 N.pl3  60  ARG60      -0.0865
     47  CZ        -3.6480   21.6130    9.5640 C.cat  60  ARG60       0.5346
     48  NH1       -2.4810   21.0900    9.9180 N.pl3  60  ARG60       0.1354
     49  NH2       -3.7610   22.9230    9.4000 N.pl3  60  ARG60       0.1354
     50  N         -8.9410   12.9940    2.7490 N.3    63  THR63      -0.1203
     51  CA        -9.1100   11.6250    3.2110 C.3    63  THR63       0.1994
     52  C         -7.8530   10.8220    2.9290 C.2    63  THR63       0.2618
     53  O         -7.3380   10.8240    1.8110 O.2    63  THR63      -0.2717
     54  CB       -10.3030   10.9390    2.5260 C.3    63  THR63       0.1784
     55  OG1      -11.5130   11.6100    2.8960 O.3    63  THR63      -0.2211
     56  CG2      -10.3930    9.4770    2.9510 C.3    63  THR63       0.0376
     57  N         -7.3560   10.1380    3.9520 N.am   64  TYR64      -0.1961
     58  CA        -6.1560    9.3390    3.7950 C.3    64  TYR64       0.1771
     59  C         -6.4430    7.8620    3.9840 C.2    64  TYR64       0.2620
     60  O         -7.3470    7.4850    4.7240 O.2    64  TYR64      -0.2715
     61  CB        -5.0870    9.8090    4.7790 C.3    64  TYR64       0.0574
     62  CG        -4.7190   11.2580    4.5750 C.ar   64  TYR64      -0.0198
     63  CD1       -5.4790   12.2850    5.1470 C.ar   64  TYR64      -0.0009
     64  CD2       -3.6440   11.6100    3.7630 C.ar   64  TYR64      -0.0009
     65  CE1       -5.1720   13.6250    4.9100 C.ar   64  TYR64       0.0417
     66  CE2       -3.3310   12.9420    3.5190 C.ar   64  TYR64       0.0417
     67  CZ        -4.0950   13.9430    4.0940 C.ar   64  TYR64       0.1957
     68  OH        -3.7710   15.2570    3.8490 O.3    64  TYR64      -0.2866
     69  N         -5.6850    7.0260    3.2830 N.am   65  ASN65      -0.1958
     70  CA        -5.8630    5.5890    3.3960 C.3    65  ASN65       0.1819
     71  C         -4.7760    5.0820    4.3330 C.2    65  ASN65       0.2621
     72  O         -3.6820    4.7160    3.9060 O.2    65  ASN65      -0.2715
     73  CB        -5.7530    4.9390    2.0180 C.3    65  ASN65       0.1195
     74  CG        -6.7010    5.5660    1.0080 C.2    65  ASN65       0.2630
     75  OD1       -7.9140    5.6270    1.2300 O.2    65  ASN65      -0.2716
     76  ND2       -6.1520    6.0400   -0.1040 N.am   65  ASN65      -0.0877
     77  N         -5.0920    5.0930    5.6240 N.am   66  ILE66      -0.1964
     78  CA        -4.1670    4.6610    6.6590 C.3    66  ILE66       0.1712
     79  C         -3.9790    3.1470    6.6220 C.2    66  ILE66       0.2458
     80  O         -4.9390    2.3930    6.7400 O.2    66  ILE66      -0.2730
     81  CB        -4.6810    5.0800    8.0590 C.3    66  ILE66       0.0289
     82  CG1       -4.8750    6.6030    8.1110 C.3    66  ILE66       0.0022
     83  CG2       -3.7020    4.6360    9.1310 C.3    66  ILE66       0.0023
     84  CD1       -3.5990    7.4040    7.8500 C.3    66  ILE66       0.0001
     85  N         -2.7320    2.6880    6.4450 N.am   67  PRO67      -0.2716
     86  CA        -2.4150    1.2580    6.3940 C.3    67  PRO67       0.1536
     87  C         -2.5030    0.6260    7.7780 C.2    67  PRO67       0.2598
     88  O         -1.8520    1.0850    8.7170 O.2    67  PRO67      -0.2715
     89  CB        -0.9940    1.2460    5.8410 C.3    67  PRO67       0.0310
     90  CG        -0.4090    2.4970    6.4450 C.3    67  PRO67       0.0237
     91  CD        -1.5260    3.4990    6.2120 C.3    67  PRO67       0.0939
     92  N         -3.3130   -0.4210    7.9030 N.am   68  ILE68      -0.1964
     93  CA        -3.4790   -1.1080    9.1800 C.3    68  ILE68       0.1727
     94  C         -3.4970   -2.6240    9.0440 C.2    68  ILE68       0.2616
     95  O         -3.6900   -3.1740    7.9560 O.2    68  ILE68      -0.2715
     96  CB        -4.8070   -0.7170    9.8880 C.3    68  ILE68       0.0290
     97  CG1       -5.9960   -1.1000    9.0040 C.3    68  ILE68       0.0022
     98  CG2       -4.8200    0.7690   10.2140 C.3    68  ILE68       0.0023
     99  CD1       -7.3660   -0.9140    9.6700 C.3    68  ILE68       0.0001
    100  N         -3.2940   -3.2950   10.1700 N.am   69  CYS69      -0.1968
    101  CA        -3.3360   -4.7470   10.2110 C.3    69  CYS69       0.1712
    102  C         -4.0650   -5.1160   11.4950 C.2    69  CYS69       0.2296
    103  O         -3.6580   -4.7160   12.5890 O.2    69  CYS69      -0.2864
    104  CB        -1.9300   -5.3480   10.2150 C.3    69  CYS69       0.0983
    105  SG        -1.9380   -7.1610   10.0710 S.3    69  CYS69      -0.0798
    106  N          0.5680    0.2160    9.8670 N.3    86  LYS86      -0.1231
    107  CA         1.6900   -0.3040    9.0940 C.3    86  LYS86       0.1678
    108  C          2.2410    0.6910    8.0730 C.2    86  LYS86       0.2434
    109  O          1.9000    0.6440    6.8920 O.2    86  LYS86      -0.2733
    110  CB         1.2580   -1.5830    8.3890 C.3    86  LYS86       0.0284
    111  CG         0.6700   -2.6480    9.3060 C.3    86  LYS86       0.0035
    112  CD         1.6850   -3.1560   10.3140 C.3    86  LYS86       0.0206
    113  CE         2.8330   -3.8910    9.6390 C.3    86  LYS86       0.1093
    114  NZ         3.7780   -4.4680   10.6390 N.3    86  LYS86      -0.1314
    115  N          3.1340    1.5850    8.5170 N.am   87  PRO87      -0.2718
    116  CA         3.7330    2.5960    7.6440 C.3    87  PRO87       0.1535
    117  C          4.4810    2.0330    6.4410 C.2    87  PRO87       0.2599
    118  O          5.1600    1.0070    6.5400 O.2    87  PRO87      -0.2715
    119  CB         4.6620    3.3510    8.5880 C.3    87  PRO87       0.0310
    120  CG         5.1220    2.2770    9.5130 C.3    87  PRO87       0.0237
    121  CD         3.8180    1.5600    9.8230 C.3    87  PRO87       0.0939
    122  N          4.3460    2.7110    5.3060 N.am   88  THR88      -0.1951
    123  CA         5.0370    2.3070    4.0880 C.3    88  THR88       0.1897
    124  C          6.3620    3.0560    4.0710 C.2    88  THR88       0.2313
    125  O          6.6750    3.7920    5.0070 O.2    88  THR88      -0.2863
    126  CB         4.2370    2.6790    2.8230 C.3    88  THR88       0.1794
    127  OG1        4.1200    4.1050    2.7290 O.3    88  THR88      -0.2208
    128  CG2        2.8530    2.0550    2.8670 C.3    88  THR88       0.0378
    129  N          7.1550    5.5680    2.4150 N.3    90  SER90      -0.1202
    130  CA         6.9350    7.0080    2.2980 C.3    90  SER90       0.2020
    131  C          6.2930    7.6690    3.5160 C.2    90  SER90       0.2619
    132  O          5.8560    8.8150    3.4440 O.2    90  SER90      -0.2717
    133  CB         6.0800    7.3030    1.0600 C.3    90  SER90       0.2103
    134  OG         4.8080    6.6850    1.1560 O.3    90  SER90      -0.2182
    135  N          6.2360    6.9550    4.6340 N.am   91  MET91      -0.1965
    136  CA         5.6410    7.5120    5.8420 C.3    91  MET91       0.1736
    137  C          6.3140    6.9850    7.1030 C.2    91  MET91       0.2617
    138  O          7.1110    6.0500    7.0410 O.2    91  MET91      -0.2715
    139  CB         4.1310    7.2170    5.8680 C.3    91  MET91       0.0427
    140  CG         3.7340    5.8340    5.3710 C.3    91  MET91       0.0599
    141  SD         1.9520    5.5120    5.4710 S.3    91  MET91      -0.1393
    142  CE         1.3950    5.9510    3.8410 C.3    91  MET91       0.0692
    143  N          6.0110    7.6040    8.2430 N.am   92  THR92      -0.1951
    144  CA         6.5830    7.1870    9.5220 C.3    92  THR92       0.1897
    145  C          5.5010    7.1000   10.5930 C.2    92  THR92       0.2313
    146  O          4.4980    7.8120   10.5310 O.2    92  THR92      -0.2863
    147  CB         7.6650    8.1730   10.0160 C.3    92  THR92       0.1794
    148  OG1        7.0720    9.4520   10.2740 O.3    92  THR92      -0.2208
    149  CG2        8.7580    8.3310    8.9710 C.3    92  THR92       0.0378
    150  N          3.6150    7.7530   13.9760 N.3    94  LYS94      -0.1245
    151  CA         3.5260    8.8670   14.9060 C.3    94  LYS94       0.1561
    152  C          3.1890    8.3150   16.2830 C.2    94  LYS94       0.2260
    153  O          2.0260    8.0710   16.5980 O.2    94  LYS94      -0.2867
    154  CB         2.4450    9.8560   14.4620 C.3    94  LYS94       0.0271
    155  CG         2.3340   11.0950   15.3380 C.3    94  LYS94       0.0035
    156  CD         3.5620   11.9870   15.2050 C.3    94  LYS94       0.0206
    157  CE         3.4140   13.2430   16.0480 C.3    94  LYS94       0.1093
    158  NZ         4.5800   14.1600   15.9180 N.3    94  LYS94      -0.1314
    159  N         -3.6320   11.5180   13.5120 N.3   135  PRO135     -0.2116
    160  CA        -3.1380   10.4920   12.5870 C.3   135  PRO135      0.1372
    161  C         -2.0480    9.6180   13.2160 C.2   135  PRO135      0.2244
    162  O         -1.1560   10.1220   13.9020 O.2   135  PRO135     -0.2868
    163  CB        -2.6230   11.3180   11.4090 C.3   135  PRO135      0.0268
    164  CG        -3.5540   12.4970   11.4040 C.3   135  PRO135      0.0207
    165  CD        -3.6530   12.8440   12.8700 C.3   135  PRO135      0.0892
    166  N          0.1230    7.9270   11.5480 N.3   137  VAL137     -0.1231
    167  CA         1.2830    8.0030   10.6670 C.3   137  VAL137      0.1692
    168  C          1.2360    9.2920    9.8600 C.2   137  VAL137      0.2592
    169  O          0.1690    9.8590    9.6310 O.2   137  VAL137     -0.2718
    170  CB         1.3440    6.8190    9.6670 C.3   137  VAL137      0.0266
    171  CG1        1.6710    5.5280   10.3980 C.3   137  VAL137      0.0020
    172  CG2        0.0310    6.7060    8.9140 C.3   137  VAL137      0.0020
    173  N          2.4100    9.7500    9.4380 N.am  138  PHE138     -0.1962
    174  CA         2.5340   10.9580    8.6340 C.3   138  PHE138      0.1771
    175  C          3.4890   10.6520    7.4880 C.2   138  PHE138      0.2620
    176  O          4.3570    9.7870    7.6160 O.2   138  PHE138     -0.2715
    177  CB         3.0950   12.1070    9.4790 C.3   138  PHE138      0.0574
    178  CG         2.0720   12.7700   10.3600 C.ar  138  PHE138     -0.0200
    179  CD1        1.3180   13.8420    9.8890 C.ar  138  PHE138     -0.0042
    180  CD2        1.8580   12.3200   11.6600 C.ar  138  PHE138     -0.0042
    181  CE1        0.3640   14.4560   10.7000 C.ar  138  PHE138     -0.0003
    182  CE2        0.9060   12.9250   12.4790 C.ar  138  PHE138     -0.0003
    183  CZ         0.1590   13.9950   11.9990 C.ar  138  PHE138     -0.0000
    184  N          3.3150   11.3430    6.3660 N.am  139  SER139     -0.1950
    185  CA         4.1890   11.1470    5.2160 C.3   139  SER139      0.1924
    186  C          5.5310   11.7920    5.5200 C.2   139  SER139      0.2314
    187  O          5.5860   12.8530    6.1390 O.2   139  SER139     -0.2863
    188  CB         3.5950   11.7960    3.9630 C.3   139  SER139      0.2116
    189  OG         2.3980   11.1530    3.5680 O.3   139  SER139     -0.2180
    190  N          8.6100   14.0370    5.2500 N.3   141  PRO141     -0.2116
    191  CA         8.7430   15.3570    4.6270 C.3   141  PRO141      0.1372
    192  C          9.6280   15.3430    3.3820 C.2   141  PRO141      0.2244
    193  O         10.1940   14.2740    3.0670 O.2   141  PRO141     -0.2868
    194  CB         9.3270   16.2070    5.7520 C.3   141  PRO141      0.0268
    195  CG        10.1560   15.2180    6.5180 C.3   141  PRO141      0.0207
    196  CD         9.2430   14.0160    6.5810 C.3   141  PRO141      0.0892
@<TRIPOS>BOND
     1     7     6   ar
     2     6     8   ar
     3     6     5    1
     4    76    74   am
     5    74    75    2
     6    74    73    1
     7   133   134    1
     8   133   130    1
     9     2     1    1
    10     2     5    1
    11     2     3    1
    12    53    52    2
    13    73    70    1
    14     3     4    2
    15   130   129    1
    16   130   131    1
    17    25    24    1
    18    54    55    1
    19    54    56    1
    20    54    51    1
    21   127   126    1
    22    50    51    1
    23   126   128    1
    24   126   123    1
    25    52    51    1
    26    52    57   am
    27   193   192    2
    28    26    24    1
    29    69    70    1
    30    69    59   am
    31   192   191    1
    32    70    71    1
    33   132   131    2
    34    24    21    1
    35   131   135   am
    36    66    64   ar
    37    66    67   ar
    38   189   188    1
    39    64    62   ar
    40    58    57    1
    41    58    59    1
    42    58    61    1
    43   142   141    1
    44    68    67    1
    45    72    71    2
    46   188   185    1
    47    59    60    2
    48    17    18    1
    49    17    16    1
    50   124   123    1
    51   124   125    2
    52    12    11    2
    53   123   122    1
    54    67    65   ar
    55    20    21    1
    56    20    18   am
    57    71    77   am
    58    23    22    2
    59    21    22    1
    60    62    61    1
    61    62    63   ar
    62    18    19    2
    63   191   190    1
    64   191   194    1
    65   135   136    1
    66    15    13    1
    67    65    63   ar
    68    11    16   am
    69    11    10    1
    70   185   186    1
    71   185   184    1
    72   190   196    1
    73   122   117   am
    74   140   141    1
    75   140   139    1
    76   186   187    2
    77    42    41    2
    78    13    10    1
    79    13    14    1
    80    77    78    1
    81   194   195    1
    82    89    86    1
    83    89    90    1
    84   136   139    1
    85   136   137    1
    86    10     9    1
    87    91    85    1
    88    91    90    1
    89    41    40    1
    90   184   175   am
    91    86    85    1
    92    86    87    1
    93   117   118    2
    94   117   116    1
    95    85    79   am
    96   195   196    1
    97    30    29    2
    98    79    78    1
    99    79    80    2
   100    78    81    1
   101   109   108    2
   102   138   137    2
   103   137   143   am
   104    27    28    1
   105   175   176    2
   106   175   174    1
   107    29    39   am
   108    29    28    1
   109   116   115    1
   110   116   119    1
   111    87    92   am
   112    87    88    2
   113    40    43    1
   114    40    39    1
   115    84    82    1
   116    92    93    1
   117    43    44    1
   118    95    94    2
   119    81    82    1
   120    81    83    1
   121   108   115   am
   122   108   107    1
   123   143   144    1
   124    28    31    1
   125   110   107    1
   126   110   111    1
   127   115   121    1
   128    31    32    1
   129   119   120    1
   130   174   173    1
   131   174   177    1
   132    34    32   ar
   133    34    36   ar
   134   172   170    1
   135   149   147    1
   136    97    99    1
   137    97    96    1
   138    94    93    1
   139    94   100   am
   140   107   106    1
   141    93    96    1
   142   111   112    1
   143    44    45    1
   144    46    45    1
   145    46    47    2
   146    32    33   ar
   147    49    47    1
   148   173   168   am
   149   177   178    1
   150   120   121    1
   151   144   147    1
   152   144   145    1
   153    47    48    1
   154    36    37   ar
   155   169   168    2
   156   113   112    1
   157   113   114    1
   158   170   171    1
   159   170   167    1
   160   168   167    1
   161    96    98    1
   162   179   178   ar
   163   179   181   ar
   164   147   148    1
   165   105   104    1
   166   100   101    1
   167   101   104    1
   168   101   102    1
   169   178   180   ar
   170   146   145    2
   171   167   166    1
   172   181   183   ar
   173    33    35   ar
   174    37    35   ar
   175    37    38    1
   176   164   163    1
   177   164   165    1
   178   163   160    1
   179   102   103    2
   180   180   182   ar
   181   183   182   ar
   182   160   161    1
   183   160   159    1
   184   165   159    1
   185   161   162    2
   186   150   151    1
   187   154   151    1
   188   154   155    1
   189   151   152    1
   190   156   155    1
   191   156   157    1
   192   158   157    1
   193   152   153    2
