@<TRIPOS>MOLECULE
tmp/3p9jA00.pdb
 158 149 0 0 0
SMALL
GASTEIGER

@<TRIPOS>ATOM
      1  N          6.0820   28.2010   -4.6320 N.3    12  ARG12      -0.1245
      2  CA         5.4580   28.1580   -3.3270 C.3    12  ARG12       0.1563
      3  C          3.9970   27.8120   -3.4490 C.2    12  ARG12       0.2260
      4  O          3.3470   28.1900   -4.4170 O.2    12  ARG12      -0.2867
      5  CB         5.5930   29.5020   -2.6270 C.3    12  ARG12       0.0307
      6  CG         4.5850   30.5360   -3.0560 C.3    12  ARG12       0.0489
      7  CD         4.4190   31.5620   -1.9530 C.3    12  ARG12       0.2205
      8  NE         3.7020   32.7380   -2.4190 N.pl3  12  ARG12      -0.0865
      9  CZ         2.4360   33.0100   -2.1250 C.cat  12  ARG12       0.5346
     10  NH1        1.7410   32.1930   -1.3450 N.pl3  12  ARG12       0.1354
     11  NH2        1.8700   34.1100   -2.6060 N.pl3  12  ARG12       0.1354
     12  N          0.2520   28.2750   -3.0550 N.3    14  LEU14      -0.1231
     13  CA        -0.6090   29.4520   -2.9740 C.3    14  LEU14       0.1693
     14  C         -1.7690   29.2620   -2.0020 C.2    14  LEU14       0.2593
     15  O         -2.2410   30.2070   -1.3730 O.2    14  LEU14      -0.2718
     16  CB        -1.1250   29.8250   -4.3610 C.3    14  LEU14       0.0284
     17  CG        -0.0300   30.1930   -5.3580 C.3    14  LEU14       0.0019
     18  CD1       -0.5860   30.3990   -6.7510 C.3    14  LEU14       0.0001
     19  CD2        0.6480   31.4420   -4.8660 C.3    14  LEU14       0.0001
     20  N         -2.2460   28.0340   -1.9080 N.am   15  GLY15      -0.1942
     21  CA        -3.4040   27.7540   -1.0900 C.3    15  GLY15       0.2014
     22  C         -3.7690   26.2970   -1.2300 C.2    15  GLY15       0.2639
     23  O         -3.2800   25.6130   -2.1300 O.2    15  GLY15      -0.2714
     24  N         -4.6340   25.8260   -0.3400 N.am   16  LYS16      -0.1963
     25  CA        -5.0290   24.4270   -0.3340 C.3    16  LYS16       0.1731
     26  C         -6.5420   24.3420   -0.2840 C.2    16  LYS16       0.2655
     27  O         -7.1790   25.0880    0.4430 O.2    16  LYS16      -0.2711
     28  CB        -4.5000   23.7150    0.9270 C.3    16  LYS16       0.0312
     29  CG        -3.1230   24.1550    1.4250 C.3    16  LYS16       0.0038
     30  CD        -2.8120   23.5680    2.8030 C.3    16  LYS16       0.0206
     31  CE        -1.3320   23.6740    3.1470 C.3    16  LYS16       0.1093
     32  NZ        -1.0470   23.1770    4.5270 N.3    16  LYS16      -0.1314
     33  N         -7.1070   23.4480   -1.0850 N.am   17  GLY17      -0.1730
     34  CA        -8.1810   22.6760   -0.4950 C.2    17  GLY17       0.1340
     35  C         -8.8140   21.4850   -1.1650 C.2    17  GLY17       0.2521
     36  O         -9.1130   21.4300   -2.3590 O.2    17  GLY17      -0.2816
     37  N         -2.8940   24.4230   -4.6010 N.3    22  VAL22      -0.1245
     38  CA        -2.4750   25.1990   -5.7640 C.3    22  VAL22       0.1561
     39  C         -1.0520   25.7030   -5.5700 C.2    22  VAL22       0.2260
     40  O         -0.7020   26.2220   -4.5100 O.2    22  VAL22      -0.2867
     41  CB        -3.3980   26.4000   -6.0010 C.3    22  VAL22       0.0252
     42  CG1       -2.9870   27.1190   -7.2730 C.3    22  VAL22       0.0019
     43  CG2       -4.8420   25.9440   -6.0790 C.3    22  VAL22       0.0019
     44  N         -0.4630   29.3330  -12.4000 N.3    35  ALA35      -0.1245
     45  CA        -0.8680   28.5530  -11.2430 C.3    35  ALA35       0.1562
     46  C         -1.1600   27.1270  -11.6820 C.2    35  ALA35       0.2260
     47  O         -1.8270   26.9050  -12.6890 O.2    35  ALA35      -0.2867
     48  CB        -2.1000   29.1720  -10.5980 C.3    35  ALA35       0.0290
     49  N         -2.9680   23.8160  -10.4040 N.3    37  LYS37      -0.1245
     50  CA        -3.8680   23.2020   -9.4160 C.3    37  LYS37       0.1561
     51  C         -3.7670   21.6820   -9.4600 C.2    37  LYS37       0.2260
     52  O         -3.9570   21.0740  -10.5090 O.2    37  LYS37      -0.2867
     53  CB        -5.3110   23.6300   -9.6710 C.3    37  LYS37       0.0271
     54  CG        -6.2950   23.1150   -8.6420 C.3    37  LYS37       0.0035
     55  CD        -7.6710   23.7050   -8.8790 C.3    37  LYS37       0.0206
     56  CE        -8.6110   23.3740   -7.7220 C.3    37  LYS37       0.1093
     57  NZ        -9.0410   24.5580   -6.9080 N.3    37  LYS37      -0.1314
     58  N        -11.1510   34.0370  -14.6460 N.3    69  LEU69      -0.1245
     59  CA        -9.8390   33.3970  -14.5800 C.3    69  LEU69       0.1561
     60  C         -9.6690   32.4360  -15.7420 C.2    69  LEU69       0.2260
     61  O        -10.5320   31.6000  -16.0050 O.2    69  LEU69      -0.2867
     62  CB        -9.6400   32.6510  -13.2550 C.3    69  LEU69       0.0270
     63  CG        -8.1860   32.2740  -12.9490 C.3    69  LEU69       0.0019
     64  CD1       -7.4260   33.5000  -12.4900 C.3    69  LEU69       0.0001
     65  CD2       -8.0910   31.1820  -11.9110 C.3    69  LEU69       0.0001
     66  N         -3.5440   27.1070  -14.7740 N.3    85  LEU85      -0.1231
     67  CA        -4.4180   28.2510  -14.6270 C.3    85  LEU85       0.1693
     68  C         -3.6890   29.5810  -14.6820 C.2    85  LEU85       0.2592
     69  O         -2.4960   29.6560  -14.3940 O.2    85  LEU85      -0.2718
     70  CB        -5.1710   28.1330  -13.3040 C.3    85  LEU85       0.0284
     71  CG        -6.1820   26.9840  -13.2240 C.3    85  LEU85       0.0019
     72  CD1       -6.7020   26.8160  -11.8180 C.3    85  LEU85       0.0001
     73  CD2       -7.3420   27.2110  -14.1750 C.3    85  LEU85       0.0001
     74  N         -4.4120   30.6300  -15.0620 N.am   86  GLU86      -0.1966
     75  CA        -3.9040   31.9880  -14.9370 C.3    86  GLU86       0.1733
     76  C         -3.5640   32.2620  -13.4760 C.2    86  GLU86       0.2616
     77  O         -4.2580   31.7960  -12.5780 O.2    86  GLU86      -0.2715
     78  CB        -4.9370   32.9950  -15.4340 C.3    86  GLU86       0.0429
     79  CG        -4.6020   34.4310  -15.0880 C.3    86  GLU86       0.1163
     80  CD        -5.6140   35.4310  -15.6320 C.2    86  GLU86       0.3649
     81  OE1       -5.5190   36.6290  -15.2660 O.co2  86  GLU86      -0.2457
     82  OE2       -6.5020   35.0280  -16.4230 O.co2  86  GLU86      -0.2457
     83  N         -2.4900   33.0080  -13.2400 N.am   87  TYR87      -0.1960
     84  CA        -2.0590   33.3260  -11.8800 C.3    87  TYR87       0.1771
     85  C         -2.5280   34.7190  -11.4960 C.2    87  TYR87       0.2619
     86  O         -2.3000   35.6740  -12.2330 O.2    87  TYR87      -0.2715
     87  CB        -0.5350   33.2140  -11.7750 C.3    87  TYR87       0.0574
     88  CG         0.0910   33.9580  -10.6170 C.ar   87  TYR87      -0.0198
     89  CD1       -0.3250   33.7290   -9.3110 C.ar   87  TYR87      -0.0009
     90  CD2        1.1180   34.8630  -10.8250 C.ar   87  TYR87      -0.0009
     91  CE1        0.2510   34.3970   -8.2470 C.ar   87  TYR87       0.0417
     92  CE2        1.6970   35.5360   -9.7690 C.ar   87  TYR87       0.0417
     93  CZ         1.2610   35.3000   -8.4830 C.ar   87  TYR87       0.1957
     94  OH         1.8470   35.9730   -7.4340 O.3    87  TYR87      -0.2866
     95  N         -3.2150   34.8190  -10.3600 N.am   88  ALA88      -0.1964
     96  CA        -3.6990   36.1070   -9.8660 C.3    88  ALA88       0.1713
     97  C         -2.9590   36.5210   -8.5930 C.2    88  ALA88       0.2458
     98  O         -3.1610   35.9550   -7.5220 O.2    88  ALA88      -0.2730
     99  CB        -5.1970   36.0600   -9.6390 C.3    88  ALA88       0.0333
    100  N         -2.0790   37.5130   -8.7290 N.am   89  PRO89      -0.2716
    101  CA        -1.0770   37.8670   -7.7180 C.3    89  PRO89       0.1536
    102  C         -1.6010   38.5270   -6.4450 C.2    89  PRO89       0.2598
    103  O         -0.8930   38.5490   -5.4480 O.2    89  PRO89      -0.2715
    104  CB        -0.1590   38.8320   -8.4700 C.3    89  PRO89       0.0310
    105  CG        -1.0070   39.3770   -9.5670 C.3    89  PRO89       0.0237
    106  CD        -1.8820   38.2530   -9.9830 C.3    89  PRO89       0.0939
    107  N         -2.8010   39.0840   -6.4720 N.am   90  LEU90      -0.1964
    108  CA        -3.2810   39.7990   -5.2910 C.3    90  LEU90       0.1728
    109  C         -4.1810   38.9820   -4.3500 C.2    90  LEU90       0.2617
    110  O         -4.7880   39.5460   -3.4410 O.2    90  LEU90      -0.2715
    111  CB        -3.8930   41.1590   -5.6610 C.3    90  LEU90       0.0311
    112  CG        -2.8280   42.2460   -5.8660 C.3    90  LEU90       0.0022
    113  CD1       -1.7070   41.7140   -6.7060 C.3    90  LEU90       0.0001
    114  CD2       -3.3810   43.4840   -6.5060 C.3    90  LEU90       0.0001
    115  N         -4.3120   37.6790   -4.6050 N.am   91  GLY91      -0.1940
    116  CA        -5.1220   36.7890   -3.7810 C.3    91  GLY91       0.2014
    117  C         -6.6420   36.8360   -3.9450 C.2    91  GLY91       0.2639
    118  O         -7.1690   37.3130   -4.9490 O.2    91  GLY91      -0.2714
    119  N         -7.3470   36.2860   -2.9610 N.am   92  THR92      -0.1950
    120  CA        -8.8080   36.2590   -2.9590 C.3    92  THR92       0.1897
    121  C         -9.4910   37.5340   -2.4380 C.2    92  THR92       0.2313
    122  O         -8.9000   38.3190   -1.6910 O.2    92  THR92      -0.2863
    123  CB        -9.3410   35.0500   -2.1900 C.3    92  THR92       0.1794
    124  OG1       -9.1670   35.2680   -0.7870 O.3    92  THR92      -0.2208
    125  CG2       -8.5900   33.8020   -2.6140 C.3    92  THR92       0.0378
    126  N         -9.9840   36.9980    1.4020 N.3    95  ARG95      -0.1245
    127  CA        -8.9000   37.4140    2.2810 C.3    95  ARG95       0.1563
    128  C         -8.8170   38.9390    2.3820 C.2    95  ARG95       0.2260
    129  O         -8.5290   39.4830    3.4510 O.2    95  ARG95      -0.2867
    130  CB        -7.5730   36.8060    1.8250 C.3    95  ARG95       0.0307
    131  CG        -6.3510   37.2190    2.6310 C.3    95  ARG95       0.0489
    132  CD        -6.3780   36.6880    4.0560 C.3    95  ARG95       0.2205
    133  NE        -5.3560   37.3430    4.8710 N.pl3  95  ARG95      -0.0865
    134  CZ        -5.4590   37.5530    6.1780 C.cat  95  ARG95       0.5346
    135  NH1       -6.5390   37.1500    6.8330 N.pl3  95  ARG95       0.1354
    136  NH2       -4.4820   38.1660    6.8320 N.pl3  95  ARG95       0.1354
    137  N        -14.5140   33.2610   -1.7000 N.3   135  GLU135     -0.1245
    138  CA       -13.3110   32.4410   -1.7180 C.3   135  GLU135      0.1567
    139  C        -12.8730   32.1580   -3.1370 C.2   135  GLU135      0.2260
    140  O        -11.7140   31.8370   -3.3760 O.2   135  GLU135     -0.2867
    141  CB       -13.5440   31.1040   -1.0160 C.3   135  GLU135      0.0388
    142  CG       -14.0820   31.2280    0.3880 C.3   135  GLU135      0.1160
    143  CD       -15.5970   31.2150    0.4370 C.2   135  GLU135      0.3649
    144  OE1      -16.1730   30.1060    0.4500 O.co2 135  GLU135     -0.2457
    145  OE2      -16.2100   32.3090    0.4640 O.co2 135  GLU135     -0.2457
    146  N        -10.7090   35.9470   -7.3580 N.3   138  LEU138     -0.1245
    147  CA        -9.3140   36.3590   -7.2700 C.3   138  LEU138      0.1561
    148  C         -9.1000   37.8070   -7.7270 C.2   138  LEU138      0.2260
    149  O        -10.0190   38.4570   -8.2180 O.2   138  LEU138     -0.2867
    150  CB        -8.4400   35.4040   -8.0800 C.3   138  LEU138      0.0270
    151  CG        -8.3760   33.9860   -7.5090 C.3   138  LEU138      0.0019
    152  CD1       -7.6930   33.0340   -8.4770 C.3   138  LEU138      0.0001
    153  CD2       -7.6620   33.9980   -6.1630 C.3   138  LEU138      0.0001
    154  N        -12.8670   32.6400  -10.3780 N.3   148  ALA148     -0.1245
    155  CA       -11.9360   31.5340  -10.4420 C.3   148  ALA148      0.1562
    156  C        -12.5440   30.1660  -10.2390 C.2   148  ALA148      0.2260
    157  O        -11.8420   29.1590  -10.3330 O.2   148  ALA148     -0.2867
    158  CB       -10.8360   31.7350   -9.4360 C.3   148  ALA148      0.0290
@<TRIPOS>BOND
     1    82    80   ar
     2    61    60    2
     3    60    59    1
     4    80    81   ar
     5    80    79    1
     6    78    79    1
     7    78    75    1
     8    74    75    1
     9    74    68   am
    10    75    76    1
    11    66    67    1
    12    68    67    1
    13    68    69    2
    14    58    59    1
    15    67    70    1
    16    59    62    1
    17    73    71    1
    18    76    83   am
    19    76    77    2
    20    70    71    1
    21    62    63    1
    22    83    84    1
    23    71    72    1
    24    63    64    1
    25    63    65    1
    26    47    46    2
    27    44    45    1
    28    86    85    2
    29    84    87    1
    30    84    85    1
    31    87    88    1
    32    46    45    1
    33    85    95   am
    34    45    48    1
    35    90    88   ar
    36    90    92   ar
    37    88    89   ar
    38    52    51    2
    39   155   154    1
    40   155   156    1
    41   155   158    1
    42    49    50    1
    43    95    96    1
    44   157   156    2
    45   106   105    1
    46   106   100    1
    47    96    99    1
    48    96    97    1
    49    92    93   ar
    50    53    50    1
    51    53    54    1
    52   105   104    1
    53    51    50    1
    54    89    91   ar
    55    55    54    1
    56    55    56    1
    57   100    97   am
    58   100   101    1
    59    97    98    2
    60    93    91   ar
    61    93    94    1
    62   152   151    1
    63   104   101    1
    64   149   148    2
    65   150   151    1
    66   150   147    1
    67   148   147    1
    68    56    57    1
    69   101   102    1
    70   151   153    1
    71   146   147    1
    72    42    41    1
    73    18    17    1
    74   113   112    1
    75   114   112    1
    76   107   102   am
    77   107   108    1
    78   102   103    2
    79    43    41    1
    80    41    38    1
    81   112   111    1
    82    38    39    1
    83    38    37    1
    84   111   108    1
    85    39    40    2
    86    17    19    1
    87    17    16    1
    88   108   109    1
    89   118   117    2
    90     1     2    1
    91   115   109   am
    92   115   116    1
    93     4     3    2
    94    16    13    1
    95   109   110    2
    96   117   116    1
    97   117   119   am
    98     3     2    1
    99   140   139    2
   100     2     5    1
   101   139   138    1
   102     6     5    1
   103     6     7    1
   104    12    13    1
   105    13    14    1
   106   119   120    1
   107   120   121    1
   108   120   123    1
   109   125   123    1
   110    11     9    1
   111   121   122    2
   112     8     9    2
   113     8     7    1
   114    36    35    2
   115   123   124    1
   116    23    22    2
   117     9    10    1
   118    14    20   am
   119    14    15    2
   120    20    21    1
   121   138   137    1
   122   138   141    1
   123    22    21    1
   124    22    24   am
   125    35    34    1
   126    33    34    2
   127    33    26    1
   128   141   142    1
   129    24    25    1
   130    25    26    1
   131    25    28    1
   132    26    27    2
   133   142   143    1
   134   143   144   ar
   135   143   145   ar
   136    28    29    1
   137   126   127    1
   138    29    30    1
   139   130   127    1
   140   130   131    1
   141   127   128    1
   142   128   129    2
   143   131   132    1
   144    30    31    1
   145    31    32    1
   146   132   133    1
   147   133   134    2
   148   134   136    1
   149   134   135    1
