@<TRIPOS>MOLECULE
tmp/3p9tA00.pdb
 147 138 0 0 0
SMALL
GASTEIGER

@<TRIPOS>ATOM
      1  N        -14.7020   -4.6850   37.3720 N.3    62  HIS62      -0.1241
      2  CA       -15.8580   -5.3450   36.8170 C.3    62  HIS62       0.1621
      3  C        -16.8930   -5.8350   37.8610 C.2    62  HIS62       0.2264
      4  O        -18.1020   -5.7470   37.6220 O.2    62  HIS62      -0.2867
      5  CB       -15.3600   -6.5160   35.9570 C.3    62  HIS62       0.0745
      6  CG       -16.4560   -7.3360   35.3290 C.ar   62  HIS62       0.0817
      7  ND1      -17.1430   -6.9380   34.1950 N.ar   62  HIS62      -0.2268
      8  CD2      -16.9770   -8.5350   35.6810 C.ar   62  HIS62       0.1154
      9  CE1      -18.0310   -7.8580   33.8770 C.ar   62  HIS62       0.1986
     10  NE2      -17.9240   -8.8550   34.7370 N.ar   62  HIS62      -0.2212
     11  N        -19.3320   -3.1130   39.0980 N.3    65  PHE65      -0.1227
     12  CA       -20.1240   -2.5470   38.0320 C.3    65  PHE65       0.1736
     13  C        -21.2280   -3.5190   37.6700 C.2    65  PHE65       0.2595
     14  O        -22.3550   -3.1120   37.3140 O.2    65  PHE65      -0.2718
     15  CB       -19.2540   -2.2250   36.8350 C.3    65  PHE65       0.0547
     16  CG       -20.0360   -1.9000   35.5770 C.ar   65  PHE65      -0.0202
     17  CD1      -21.0960   -0.9930   35.6040 C.ar   65  PHE65      -0.0042
     18  CD2      -19.7040   -2.4650   34.3770 C.ar   65  PHE65      -0.0042
     19  CE1      -21.8200   -0.6730   34.4410 C.ar   65  PHE65      -0.0003
     20  CE2      -20.4170   -2.1340   33.1730 C.ar   65  PHE65      -0.0003
     21  CZ       -21.4900   -1.2500   33.2430 C.ar   65  PHE65      -0.0000
     22  N        -20.9250   -4.8050   37.8040 N.am   66  MET66      -0.1979
     23  CA       -21.9210   -5.8560   37.5690 C.3    66  MET66       0.1605
     24  C        -22.9780   -5.8550   38.6640 C.2    66  MET66       0.2287
     25  O        -24.1920   -6.0530   38.3970 O.2    66  MET66      -0.2864
     26  CB       -21.2270   -7.2020   37.5090 C.3    66  MET66       0.0413
     27  CG       -20.3950   -7.3520   36.1830 C.3    66  MET66       0.0598
     28  SD       -21.3720   -7.1430   34.6700 S.3    66  MET66      -0.1393
     29  CE       -20.8060   -5.6100   34.0060 C.3    66  MET66       0.0692
     30  N        -25.4220   -3.1560   37.8490 N.3    69  LEU69      -0.1245
     31  CA       -26.3290   -3.5430   36.8070 C.3    69  LEU69       0.1561
     32  C        -27.3480   -4.5410   37.2890 C.2    69  LEU69       0.2260
     33  O        -28.4810   -4.5560   36.7980 O.2    69  LEU69      -0.2867
     34  CB       -25.6200   -4.1430   35.5930 C.3    69  LEU69       0.0270
     35  CG       -24.9260   -3.2110   34.6060 C.3    69  LEU69       0.0019
     36  CD1      -24.1760   -4.0770   33.4930 C.3    69  LEU69       0.0001
     37  CD2      -25.8870   -2.2070   33.9940 C.3    69  LEU69       0.0001
     38  N        -25.5830    3.2960   33.8000 N.3    88  MET88      -0.1245
     39  CA       -24.7600    3.4800   32.6170 C.3    88  MET88       0.1570
     40  C        -24.2420    4.9170   32.5420 C.2    88  MET88       0.2261
     41  O        -23.0680    5.1290   32.2870 O.2    88  MET88      -0.2867
     42  CB       -25.6160    3.1890   31.3790 C.3    88  MET88       0.0387
     43  CG       -25.9520    1.7160   31.2410 C.3    88  MET88       0.0595
     44  SD       -24.4650    0.6900   31.4620 S.3    88  MET88      -0.1393
     45  CE       -23.8840    1.1240   29.8300 C.3    88  MET88       0.0692
     46  N        -10.2320    0.0250   31.9980 N.3   105  MET105     -0.1245
     47  CA       -11.2180   -0.3060   31.0070 C.3   105  MET105      0.1570
     48  C        -10.5170   -0.3950   29.6230 C.2   105  MET105      0.2261
     49  O        -10.8200   -1.2910   28.8380 O.2   105  MET105     -0.2867
     50  CB       -12.3050    0.7670   31.0240 C.3   105  MET105      0.0387
     51  CG       -13.6650    0.2570   30.7310 C.3   105  MET105      0.0595
     52  SD       -14.3670    1.2540   29.4100 S.3   105  MET105     -0.1393
     53  CE       -13.0090    1.3200   28.2570 C.3   105  MET105      0.0692
     54  N         -8.6700   -3.7030   28.9220 N.3   108  MET108     -0.1230
     55  CA        -9.5430   -4.7660   28.4540 C.3   108  MET108      0.1702
     56  C         -9.9830   -4.5240   27.0140 C.2   108  MET108      0.2592
     57  O         -9.9620   -5.4700   26.1700 O.2   108  MET108     -0.2718
     58  CB       -10.7120   -4.9920   29.3960 C.3   108  MET108      0.0401
     59  CG       -10.2560   -5.4020   30.7980 C.3   108  MET108      0.0596
     60  SD        -8.7630   -6.4570   30.7380 S.3   108  MET108     -0.1393
     61  CE        -9.4710   -8.0420   30.2630 C.3   108  MET108      0.0692
     62  N        -10.2930   -3.2700   26.6850 N.am  109  LEU109     -0.1980
     63  CA       -10.7510   -2.9900   25.3220 C.3   109  LEU109      0.1596
     64  C         -9.7160   -3.3880   24.3160 C.2   109  LEU109      0.2287
     65  O        -10.0550   -4.0540   23.3750 O.2   109  LEU109     -0.2864
     66  CB       -11.2350   -1.5490   25.1220 C.3   109  LEU109      0.0297
     67  CG       -12.6620   -1.5080   25.6530 C.3   109  LEU109      0.0022
     68  CD1      -13.5090   -0.7250   24.7140 C.3   109  LEU109      0.0001
     69  CD2      -13.2060   -2.9140   25.7230 C.3   109  LEU109      0.0001
     70  N        -12.7460  -10.8650   28.4940 N.3   124  GLN124     -0.1245
     71  CA       -13.7510  -10.0430   27.7800 C.3   124  GLN124      0.1566
     72  C        -15.0330  -10.8500   27.4710 C.2   124  GLN124      0.2260
     73  O        -16.1340  -10.4140   27.8230 O.2   124  GLN124     -0.2867
     74  CB       -13.1760   -9.4710   26.4710 C.3   124  GLN124      0.0367
     75  CG       -12.6170   -8.0610   26.5490 C.3   124  GLN124      0.0905
     76  CD       -12.0500   -7.6180   25.1730 C.2   124  GLN124      0.2608
     77  OE1      -12.5750   -6.6960   24.5250 O.2   124  GLN124     -0.2717
     78  NE2      -11.0120   -8.3170   24.7060 N.am  124  GLN124     -0.0878
     79  N        -16.8470  -11.2500   30.7040 N.3   127  GLY127     -0.1210
     80  CA       -17.4440   -9.9710   31.0580 C.3   127  GLY127      0.1956
     81  C        -18.6470   -9.5100   30.2110 C.2   127  GLY127      0.2611
     82  O        -19.6720   -9.0480   30.7720 O.2   127  GLY127     -0.2717
     83  N        -18.5160   -9.5620   28.8840 N.am  128  PHE128     -0.1976
     84  CA       -19.6550   -9.2850   27.9620 C.3   128  PHE128      0.1639
     85  C        -20.9180  -10.0910   28.2770 C.2   128  PHE128      0.2290
     86  O        -22.0190   -9.5290   28.3360 O.2   128  PHE128     -0.2864
     87  CB       -19.2450   -9.5530   26.5460 C.3   128  PHE128      0.0560
     88  CG       -18.2640   -8.5280   25.9770 C.ar  128  PHE128     -0.0200
     89  CD1      -17.7920   -7.4770   26.7500 C.ar  128  PHE128     -0.0042
     90  CD2      -17.8190   -8.6410   24.6780 C.ar  128  PHE128     -0.0042
     91  CE1      -16.8830   -6.5630   26.2270 C.ar  128  PHE128     -0.0003
     92  CE2      -16.9080   -7.7080   24.1490 C.ar  128  PHE128     -0.0003
     93  CZ       -16.4440   -6.6780   24.9580 C.ar  128  PHE128     -0.0000
     94  N        -22.6160   -8.8040   31.5300 N.3   131  ALA131     -0.1245
     95  CA       -23.2530   -7.5190   31.3070 C.3   131  ALA131      0.1562
     96  C        -24.5580   -7.7050   30.5330 C.2   131  ALA131      0.2260
     97  O        -25.6100   -7.1410   30.8990 O.2   131  ALA131     -0.2867
     98  CB       -22.2780   -6.5540   30.5530 C.3   131  ALA131      0.0290
     99  N        -28.3690   -6.7030   31.7270 N.3   135  MET135     -0.1245
    100  CA       -29.1700   -5.7740   30.9610 C.3   135  MET135      0.1570
    101  C        -30.4670   -6.4600   30.4820 C.2   135  MET135      0.2261
    102  O        -31.5420   -5.8590   30.4950 O.2   135  MET135     -0.2867
    103  CB       -28.3440   -5.2880   29.7570 C.3   135  MET135      0.0387
    104  CG       -27.0290   -4.5400   30.2460 C.3   135  MET135      0.0595
    105  SD       -26.1940   -3.9420   28.6930 S.3   135  MET135     -0.1393
    106  CE       -26.6840   -2.3500   29.1930 C.3   135  MET135      0.0692
    107  N        -27.9170   -2.5660   22.7020 N.3   161  LEU161     -0.1231
    108  CA       -27.3620   -1.6540   23.6930 C.3   161  LEU161      0.1693
    109  C        -25.8800   -1.9470   23.9170 C.2   161  LEU161      0.2592
    110  O        -25.0670   -1.0270   23.8810 O.2   161  LEU161     -0.2718
    111  CB       -28.2090   -1.7200   24.9800 C.3   161  LEU161      0.0284
    112  CG       -27.9020   -0.6990   26.0790 C.3   161  LEU161      0.0019
    113  CD1      -28.3290    0.6360   25.5630 C.3   161  LEU161      0.0001
    114  CD2      -28.6480   -1.0860   27.4970 C.3   161  LEU161      0.0001
    115  N        -25.5010   -3.1970   24.1110 N.am  162  HIS162     -0.1976
    116  CA       -24.0810   -3.5050   24.2680 C.3   162  HIS162      0.1656
    117  C        -23.3120   -3.0950   22.9860 C.2   162  HIS162      0.2291
    118  O        -22.2260   -2.5040   23.0830 O.2   162  HIS162     -0.2864
    119  CB       -23.9340   -4.9850   24.5890 C.3   162  HIS162      0.0771
    120  CG       -22.6190   -5.6160   24.1810 C.ar  162  HIS162      0.0820
    121  ND1      -21.4570   -5.5250   24.9340 N.ar  162  HIS162     -0.2267
    122  CD2      -22.3250   -6.4560   23.1510 C.ar  162  HIS162      0.1154
    123  CE1      -20.5080   -6.2630   24.3870 C.ar  162  HIS162      0.1986
    124  NE2      -20.9960   -6.8150   23.2790 N.ar  162  HIS162     -0.2212
    125  N        -23.0750    0.8690   22.8040 N.3   165  VAL165     -0.1231
    126  CA       -22.1720    1.3230   23.8860 C.3   165  VAL165      0.1692
    127  C        -20.7040    0.8810   23.6780 C.2   165  VAL165      0.2591
    128  O        -19.7710    1.6910   23.7560 O.2   165  VAL165     -0.2718
    129  CB       -22.6630    0.9100   25.2700 C.3   165  VAL165      0.0266
    130  CG1      -21.5760    1.2750   26.3710 C.3   165  VAL165      0.0020
    131  CG2      -23.9320    1.6110   25.4900 C.3   165  VAL165      0.0020
    132  N        -20.4900   -0.3980   23.3880 N.am  166  LEU166     -0.1980
    133  CA       -19.1620   -0.8660   23.0890 C.3   166  LEU166      0.1596
    134  C        -18.5280    0.0060   22.0130 C.2   166  LEU166      0.2287
    135  O        -17.3580    0.3100   22.1450 O.2   166  LEU166     -0.2864
    136  CB       -19.1810   -2.3190   22.6370 C.3   166  LEU166      0.0297
    137  CG       -17.8540   -3.0710   22.4540 C.3   166  LEU166      0.0022
    138  CD1      -17.1590   -3.0430   23.8170 C.3   166  LEU166      0.0001
    139  CD2      -17.9850   -4.6090   21.9460 C.3   166  LEU166      0.0001
    140  N        -17.3360    3.2650   23.4030 N.3   169  LEU169     -0.1245
    141  CA       -16.0850    3.0350   24.2360 C.3   169  LEU169      0.1561
    142  C        -14.8350    2.8780   23.3250 C.2   169  LEU169      0.2260
    143  O        -13.7830    3.4040   23.6040 O.2   169  LEU169     -0.2867
    144  CB       -16.2260    1.7800   25.1170 C.3   169  LEU169      0.0270
    145  CG       -17.3540    1.7940   26.1800 C.3   169  LEU169      0.0019
    146  CD1      -17.4920    0.4330   26.9780 C.3   169  LEU169      0.0001
    147  CD2      -17.0550    2.9260   27.2070 C.3   169  LEU169      0.0001
@<TRIPOS>BOND
     1   139   137    1
     2   134   135    2
     3   134   133    1
     4   137   136    1
     5   137   138    1
     6   136   133    1
     7   107   108    1
     8   125   126    1
     9   117   118    2
    10   117   116    1
    11   133   132    1
    12   122   124   ar
    13   122   120   ar
    14   124   123   ar
    15   142   143    2
    16   142   141    1
    17    65    64    2
    18   132   127   am
    19   140   141    1
    20   127   128    2
    21   127   126    1
    22   108   109    1
    23   108   111    1
    24   110   109    2
    25   126   129    1
    26   109   115   am
    27   115   116    1
    28    92    90   ar
    29    92    93   ar
    30   120   119    1
    31   120   121   ar
    32   141   144    1
    33   116   119    1
    34    64    63    1
    35   123   121   ar
    36    77    76    2
    37    90    88   ar
    38    78    76   am
    39    68    67    1
    40    93    91   ar
    41   111   112    1
    42   144   145    1
    43    66    63    1
    44    66    67    1
    45    76    75    1
    46   129   131    1
    47   129   130    1
    48    63    62    1
    49   113   112    1
    50    67    69    1
    51    88    87    1
    52    88    89   ar
    53   112   114    1
    54    57    56    2
    55   145   146    1
    56   145   147    1
    57    91    89   ar
    58    74    75    1
    59    74    71    1
    60    87    84    1
    61    62    56   am
    62    56    55    1
    63    72    71    1
    64    72    73    2
    65    71    70    1
    66    84    85    1
    67    84    83    1
    68    53    52    1
    69    85    86    2
    70    55    54    1
    71    55    58    1
    72   105   106    1
    73   105   104    1
    74    49    48    2
    75    83    81   am
    76    58    59    1
    77    52    51    1
    78    48    47    1
    79   103   104    1
    80   103   100    1
    81    45    44    1
    82    81    82    2
    83    81    80    1
    84    61    60    1
    85   101   102    2
    86   101   100    1
    87    96    97    2
    88    96    95    1
    89    98    95    1
    90    79    80    1
    91    51    50    1
    92    60    59    1
    93   100    99    1
    94    47    50    1
    95    47    46    1
    96    43    42    1
    97    43    44    1
    98    95    94    1
    99    42    39    1
   100    41    40    2
   101    40    39    1
   102    39    38    1
   103    20    21   ar
   104    20    18   ar
   105    21    19   ar
   106    36    35    1
   107     9     7   ar
   108     9    10   ar
   109    37    35    1
   110    29    28    1
   111     7     6   ar
   112    18    16   ar
   113    19    17   ar
   114    35    34    1
   115    28    27    1
   116    10     8   ar
   117     6     8   ar
   118     6     5    1
   119    16    17   ar
   120    16    15    1
   121    34    31    1
   122     5     2    1
   123    27    26    1
   124    33    32    2
   125    31    32    1
   126    31    30    1
   127     2     1    1
   128     2     3    1
   129    15    12    1
   130    14    13    2
   131    26    23    1
   132    23    22    1
   133    23    24    1
   134     4     3    2
   135    13    22   am
   136    13    12    1
   137    12    11    1
   138    25    24    2
