@<TRIPOS>MOLECULE
tmp/3p9tA01.pdb
 163 154 0 0 0
SMALL
GASTEIGER

@<TRIPOS>ATOM
      1  N         -8.8390   -6.7860   36.7910 N.3    58  VAL58      -0.1245
      2  CA       -10.1000   -6.6620   36.0870 C.3    58  VAL58       0.1561
      3  C        -11.2720   -6.8750   37.0650 C.2    58  VAL58       0.2260
      4  O        -12.2200   -6.0910   37.0920 O.2    58  VAL58      -0.2867
      5  CB       -10.1620   -7.5630   34.8610 C.3    58  VAL58       0.0252
      6  CG1      -11.5800   -7.7400   34.3930 C.3    58  VAL58       0.0019
      7  CG2       -9.2970   -6.9870   33.7690 C.3    58  VAL58       0.0019
      8  N        -12.5740   -3.9510   39.1940 N.3    61  VAL61      -0.1231
      9  CA       -13.4900   -2.9500   38.6260 C.3    61  VAL61       0.1692
     10  C        -14.7630   -3.5300   37.9940 C.2    61  VAL61       0.2592
     11  O        -15.8190   -2.9330   38.1350 O.2    61  VAL61      -0.2718
     12  CB       -12.8070   -1.8560   37.7770 C.3    61  VAL61       0.0266
     13  CG1      -11.8170   -1.0660   38.6350 C.3    61  VAL61       0.0020
     14  CG2      -12.1260   -2.4390   36.5630 C.3    61  VAL61       0.0020
     15  N        -14.7020   -4.6850   37.3720 N.am   62  HIS62      -0.1976
     16  CA       -15.8580   -5.3450   36.8170 C.3    62  HIS62       0.1656
     17  C        -16.8930   -5.8350   37.8610 C.2    62  HIS62       0.2291
     18  O        -18.1020   -5.7470   37.6220 O.2    62  HIS62      -0.2864
     19  CB       -15.3600   -6.5160   35.9570 C.3    62  HIS62       0.0771
     20  CG       -16.4560   -7.3360   35.3290 C.ar   62  HIS62       0.0820
     21  ND1      -17.1430   -6.9380   34.1950 N.ar   62  HIS62      -0.2267
     22  CD2      -16.9770   -8.5350   35.6810 C.ar   62  HIS62       0.1154
     23  CE1      -18.0310   -7.8580   33.8770 C.ar   62  HIS62       0.1986
     24  NE2      -17.9240   -8.8550   34.7370 N.ar   62  HIS62      -0.2212
     25  N        -19.3320   -3.1130   39.0980 N.3    65  PHE65      -0.1227
     26  CA       -20.1240   -2.5470   38.0320 C.3    65  PHE65       0.1736
     27  C        -21.2280   -3.5190   37.6700 C.2    65  PHE65       0.2595
     28  O        -22.3550   -3.1120   37.3140 O.2    65  PHE65      -0.2718
     29  CB       -19.2540   -2.2250   36.8350 C.3    65  PHE65       0.0547
     30  CG       -20.0360   -1.9000   35.5770 C.ar   65  PHE65      -0.0202
     31  CD1      -21.0960   -0.9930   35.6040 C.ar   65  PHE65      -0.0042
     32  CD2      -19.7040   -2.4650   34.3770 C.ar   65  PHE65      -0.0042
     33  CE1      -21.8200   -0.6730   34.4410 C.ar   65  PHE65      -0.0003
     34  CE2      -20.4170   -2.1340   33.1730 C.ar   65  PHE65      -0.0003
     35  CZ       -21.4900   -1.2500   33.2430 C.ar   65  PHE65      -0.0000
     36  N        -20.9250   -4.8050   37.8040 N.am   66  MET66      -0.1979
     37  CA       -21.9210   -5.8560   37.5690 C.3    66  MET66       0.1605
     38  C        -22.9780   -5.8550   38.6640 C.2    66  MET66       0.2287
     39  O        -24.1920   -6.0530   38.3970 O.2    66  MET66      -0.2864
     40  CB       -21.2270   -7.2020   37.5090 C.3    66  MET66       0.0413
     41  CG       -20.3950   -7.3520   36.1830 C.3    66  MET66       0.0598
     42  SD       -21.3720   -7.1430   34.6700 S.3    66  MET66      -0.1393
     43  CE       -20.8060   -5.6100   34.0060 C.3    66  MET66       0.0692
     44  N        -25.5830    3.2960   33.8000 N.3    88  MET88      -0.1245
     45  CA       -24.7600    3.4800   32.6170 C.3    88  MET88       0.1570
     46  C        -24.2420    4.9170   32.5420 C.2    88  MET88       0.2261
     47  O        -23.0680    5.1290   32.2870 O.2    88  MET88      -0.2867
     48  CB       -25.6160    3.1890   31.3790 C.3    88  MET88       0.0387
     49  CG       -25.9520    1.7160   31.2410 C.3    88  MET88       0.0595
     50  SD       -24.4650    0.6900   31.4620 S.3    88  MET88      -0.1393
     51  CE       -23.8840    1.1240   29.8300 C.3    88  MET88       0.0692
     52  N        -21.7220    5.6180   35.0760 N.3    91  SER91      -0.1202
     53  CA       -20.4850    4.9070   34.6690 C.3    91  SER91       0.2020
     54  C        -19.7120    5.6690   33.5980 C.2    91  SER91       0.2618
     55  O        -18.5170    5.7930   33.7380 O.2    91  SER91      -0.2717
     56  CB       -20.7530    3.4850   34.1930 C.3    91  SER91       0.2103
     57  OG       -21.2450    2.8340   35.3370 O.3    91  SER91      -0.2182
     58  N        -20.4010    6.1320   32.5500 N.am   92  PHE92      -0.1975
     59  CA       -19.7760    6.9670   31.5110 C.3    92  PHE92       0.1639
     60  C        -19.0430    8.1920   32.1250 C.2    92  PHE92       0.2290
     61  O        -17.8920    8.4610   31.7760 O.2    92  PHE92      -0.2864
     62  CB       -20.8350    7.4640   30.5170 C.3    92  PHE92       0.0560
     63  CG       -21.5380    6.3510   29.7980 C.ar   92  PHE92      -0.0200
     64  CD1      -20.9470    5.0840   29.7080 C.ar   92  PHE92      -0.0042
     65  CD2      -22.7860    6.5620   29.2190 C.ar   92  PHE92      -0.0042
     66  CE1      -21.6230    4.0220   29.0370 C.ar   92  PHE92      -0.0003
     67  CE2      -23.4480    5.5170   28.5270 C.ar   92  PHE92      -0.0003
     68  CZ       -22.8570    4.2690   28.4220 C.ar   92  PHE92      -0.0000
     69  N        -18.0530    8.5510   35.2310 N.3    94  GLU94      -0.1231
     70  CA       -16.8900    8.0610   35.9630 C.3    94  GLU94       0.1699
     71  C        -15.6780    7.7050   35.0820 C.2    94  GLU94       0.2592
     72  O        -14.5570    8.0740   35.3680 O.2    94  GLU94      -0.2718
     73  CB       -17.2480    6.8520   36.8250 C.3    94  GLU94       0.0402
     74  CG       -16.1390    6.4220   37.6850 C.3    94  GLU94       0.1161
     75  CD       -16.6090    5.4190   38.7750 C.2    94  GLU94       0.3649
     76  OE1      -17.6770    4.7550   38.6040 O.co2  94  GLU94      -0.2457
     77  OE2      -15.9300    5.3830   39.8220 O.co2  94  GLU94      -0.2457
     78  N        -15.9530    7.0080   33.9770 N.am   95  LEU95      -0.1980
     79  CA       -14.8860    6.6170   33.0560 C.3    95  LEU95       0.1596
     80  C        -14.2660    7.8580   32.4620 C.2    95  LEU95       0.2287
     81  O        -13.0820    7.9140   32.2560 O.2    95  LEU95      -0.2864
     82  CB       -15.4210    5.7190   31.9400 C.3    95  LEU95       0.0297
     83  CG       -15.7540    4.2820   32.3920 C.3    95  LEU95       0.0022
     84  CD1      -16.6550    3.6740   31.2260 C.3    95  LEU95       0.0001
     85  CD2      -14.4490    3.5040   32.4980 C.3    95  LEU95       0.0001
     86  N         -9.4550    4.3910   36.3160 N.3   101  LEU101     -0.1245
     87  CA       -10.5620    3.5390   35.8060 C.3   101  LEU101      0.1561
     88  C        -10.6350    3.4550   34.2980 C.2   101  LEU101      0.2260
     89  O        -10.8490    2.3930   33.6800 O.2   101  LEU101     -0.2867
     90  CB       -11.8890    4.1050   36.2960 C.3   101  LEU101      0.0270
     91  CG       -13.0920    3.2920   35.8350 C.3   101  LEU101      0.0019
     92  CD1      -13.0450    1.8500   36.3370 C.3   101  LEU101      0.0001
     93  CD2      -14.4090    3.9840   36.2040 C.3   101  LEU101      0.0001
     94  N         -7.8840    1.1700   33.0450 N.3   104  THR104     -0.1203
     95  CA        -8.1480   -0.2440   33.1650 C.3   104  THR104      0.1994
     96  C         -9.1710   -0.7400   32.1720 C.2   104  THR104      0.2617
     97  O         -8.9800   -1.7930   31.5400 O.2   104  THR104     -0.2717
     98  CB        -8.3780   -0.6130   34.5860 C.3   104  THR104      0.1784
     99  OG1       -7.0770   -0.5960   35.1660 O.3   104  THR104     -0.2211
    100  CG2       -8.9830   -2.0630   34.7230 C.3   104  THR104      0.0376
    101  N        -10.2320    0.0250   31.9980 N.am  105  MET105     -0.1979
    102  CA       -11.2180   -0.3060   31.0070 C.3   105  MET105      0.1605
    103  C        -10.5170   -0.3950   29.6230 C.2   105  MET105      0.2287
    104  O        -10.8200   -1.2910   28.8380 O.2   105  MET105     -0.2864
    105  CB       -12.3050    0.7670   31.0240 C.3   105  MET105      0.0413
    106  CG       -13.6650    0.2570   30.7310 C.3   105  MET105      0.0598
    107  SD       -14.3670    1.2540   29.4100 S.3   105  MET105     -0.1393
    108  CE       -13.0090    1.3200   28.2570 C.3   105  MET105      0.0692
    109  N         -8.6700   -3.7030   28.9220 N.3   108  MET108     -0.1245
    110  CA        -9.5430   -4.7660   28.4540 C.3   108  MET108      0.1570
    111  C         -9.9830   -4.5240   27.0140 C.2   108  MET108      0.2261
    112  O         -9.9620   -5.4700   26.1700 O.2   108  MET108     -0.2867
    113  CB       -10.7120   -4.9920   29.3960 C.3   108  MET108      0.0387
    114  CG       -10.2560   -5.4020   30.7980 C.3   108  MET108      0.0595
    115  SD        -8.7630   -6.4570   30.7380 S.3   108  MET108     -0.1393
    116  CE        -9.4710   -8.0420   30.2630 C.3   108  MET108      0.0692
    117  N        -11.4700  -13.2060   29.0250 N.3   123  MET123     -0.1230
    118  CA       -11.9800  -12.3720   30.1610 C.3   123  MET123      0.1702
    119  C        -13.0350  -11.4410   29.6360 C.2   123  MET123      0.2592
    120  O        -14.0980  -11.2300   30.2270 O.2   123  MET123     -0.2718
    121  CB       -10.8660  -11.5410   30.7880 C.3   123  MET123      0.0401
    122  CG        -9.6100  -12.2780   31.0430 C.3   123  MET123      0.0596
    123  SD        -8.6960  -11.4690   32.3720 S.3   123  MET123     -0.1393
    124  CE        -9.8340  -11.8170   33.7700 C.3   123  MET123      0.0692
    125  N        -12.7460  -10.8650   28.4940 N.am  124  GLN124     -0.1979
    126  CA       -13.7510  -10.0430   27.7800 C.3   124  GLN124      0.1601
    127  C        -15.0330  -10.8500   27.4710 C.2   124  GLN124      0.2287
    128  O        -16.1340  -10.4140   27.8230 O.2   124  GLN124     -0.2864
    129  CB       -13.1760   -9.4710   26.4710 C.3   124  GLN124      0.0394
    130  CG       -12.6170   -8.0610   26.5490 C.3   124  GLN124      0.0908
    131  CD       -12.0500   -7.6180   25.1730 C.2   124  GLN124      0.2608
    132  OE1      -12.5750   -6.6960   24.5250 O.2   124  GLN124     -0.2717
    133  NE2      -11.0120   -8.3170   24.7060 N.am  124  GLN124     -0.0878
    134  N        -16.8470  -11.2500   30.7040 N.3   127  GLY127     -0.1210
    135  CA       -17.4440   -9.9710   31.0580 C.3   127  GLY127      0.1956
    136  C        -18.6470   -9.5100   30.2110 C.2   127  GLY127      0.2611
    137  O        -19.6720   -9.0480   30.7720 O.2   127  GLY127     -0.2717
    138  N        -18.5160   -9.5620   28.8840 N.am  128  PHE128     -0.1976
    139  CA       -19.6550   -9.2850   27.9620 C.3   128  PHE128      0.1639
    140  C        -20.9180  -10.0910   28.2770 C.2   128  PHE128      0.2290
    141  O        -22.0190   -9.5290   28.3360 O.2   128  PHE128     -0.2864
    142  CB       -19.2450   -9.5530   26.5460 C.3   128  PHE128      0.0560
    143  CG       -18.2640   -8.5280   25.9770 C.ar  128  PHE128     -0.0200
    144  CD1      -17.7920   -7.4770   26.7500 C.ar  128  PHE128     -0.0042
    145  CD2      -17.8190   -8.6410   24.6780 C.ar  128  PHE128     -0.0042
    146  CE1      -16.8830   -6.5630   26.2270 C.ar  128  PHE128     -0.0003
    147  CE2      -16.9080   -7.7080   24.1490 C.ar  128  PHE128     -0.0003
    148  CZ       -16.4440   -6.6780   24.9580 C.ar  128  PHE128     -0.0000
    149  N        -23.0750    0.8690   22.8040 N.3   165  VAL165     -0.1245
    150  CA       -22.1720    1.3230   23.8860 C.3   165  VAL165      0.1561
    151  C        -20.7040    0.8810   23.6780 C.2   165  VAL165      0.2260
    152  O        -19.7710    1.6910   23.7560 O.2   165  VAL165     -0.2867
    153  CB       -22.6630    0.9100   25.2700 C.3   165  VAL165      0.0252
    154  CG1      -21.5760    1.2750   26.3710 C.3   165  VAL165      0.0019
    155  CG2      -23.9320    1.6110   25.4900 C.3   165  VAL165      0.0019
    156  N        -17.3360    3.2650   23.4030 N.3   169  LEU169     -0.1245
    157  CA       -16.0850    3.0350   24.2360 C.3   169  LEU169      0.1561
    158  C        -14.8350    2.8780   23.3250 C.2   169  LEU169      0.2260
    159  O        -13.7830    3.4040   23.6040 O.2   169  LEU169     -0.2867
    160  CB       -16.2260    1.7800   25.1170 C.3   169  LEU169      0.0270
    161  CG       -17.3540    1.7940   26.1800 C.3   169  LEU169      0.0019
    162  CD1      -17.4920    0.4330   26.9780 C.3   169  LEU169      0.0001
    163  CD2      -17.0550    2.9260   27.2070 C.3   169  LEU169      0.0001
@<TRIPOS>BOND
     1   149   150    1
     2   158   159    2
     3   158   157    1
     4   156   157    1
     5   151   152    2
     6   151   150    1
     7   150   153    1
     8   147   145   ar
     9   147   148   ar
    10   157   160    1
    11   132   131    2
    12   145   143   ar
    13   133   131   am
    14   148   146   ar
    15   160   161    1
    16   131   130    1
    17   153   155    1
    18   153   154    1
    19   143   142    1
    20   143   144   ar
    21   112   111    2
    22   161   162    1
    23   161   163    1
    24   146   144   ar
    25   129   130    1
    26   129   126    1
    27   142   139    1
    28   111   110    1
    29   127   126    1
    30   127   128    2
    31   126   125    1
    32   139   140    1
    33   139   138    1
    34   108   107    1
    35   140   141    2
    36    68    67   ar
    37    68    66   ar
    38   110   109    1
    39   110   113    1
    40   125   119   am
    41    67    65   ar
    42   104   103    2
    43   138   136   am
    44   117   118    1
    45    66    64   ar
    46    65    63   ar
    47   113   114    1
    48   107   106    1
    49   103   102    1
    50   119   118    1
    51   119   120    2
    52    64    63   ar
    53    63    62    1
    54    51    50    1
    55   118   121    1
    56   136   137    2
    57   136   135    1
    58   116   115    1
    59    62    59    1
    60   134   135    1
    61   106   105    1
    62   115   114    1
    63   121   122    1
    64   102   105    1
    65   102   101    1
    66   122   123    1
    67    84    83    1
    68    49    48    1
    69    49    50    1
    70    48    45    1
    71    59    60    1
    72    59    58    1
    73    97    96    2
    74    61    60    2
    75    82    83    1
    76    82    79    1
    77   101    96   am
    78    96    95    1
    79    81    80    2
    80    47    46    2
    81   123   124    1
    82    83    85    1
    83    80    79    1
    84    46    45    1
    85    58    54   am
    86    45    44    1
    87    94    95    1
    88    79    78    1
    89    95    98    1
    90    34    35   ar
    91    34    32   ar
    92    35    33   ar
    93    54    55    2
    94    54    53    1
    95    89    88    2
    96     7     5    1
    97    23    21   ar
    98    23    24   ar
    99    78    71   am
   100    43    42    1
   101    56    53    1
   102    56    57    1
   103    21    20   ar
   104    88    87    1
   105    32    30   ar
   106     6     5    1
   107    33    31   ar
   108    98   100    1
   109    98    99    1
   110    53    52    1
   111    42    41    1
   112    24    22   ar
   113     5     2    1
   114    71    72    2
   115    71    70    1
   116    69    70    1
   117    20    22   ar
   118    20    19    1
   119    30    31   ar
   120    30    29    1
   121    87    90    1
   122    87    86    1
   123    91    93    1
   124    91    90    1
   125    91    92    1
   126    19    16    1
   127    70    73    1
   128     2     1    1
   129     2     3    1
   130    41    40    1
   131    14    12    1
   132    16    15    1
   133    16    17    1
   134    73    74    1
   135    29    26    1
   136     3     4    2
   137    28    27    2
   138    15    10   am
   139    40    37    1
   140    37    36    1
   141    37    38    1
   142    18    17    2
   143    27    36   am
   144    27    26    1
   145    74    75    1
   146    12     9    1
   147    12    13    1
   148    10    11    2
   149    10     9    1
   150    26    25    1
   151    39    38    2
   152    76    75   ar
   153     9     8    1
   154    75    77   ar
