@<TRIPOS>MOLECULE
tmp/3p9yA00.pdb
 181 176 0 0 0
SMALL
GASTEIGER

@<TRIPOS>ATOM
      1  N         14.0030   30.8690  -16.8470 N.3    16  ASP16      -0.1225
      2  CA        12.5600   31.0040  -17.0050 C.3    16  ASP16       0.1805
      3  C         12.0300   29.6730  -17.5350 C.2    16  ASP16       0.2598
      4  O         12.5950   28.6220  -17.2380 O.2    16  ASP16      -0.2718
      5  CB        12.2230   32.1600  -17.9560 C.3    16  ASP16       0.1424
      6  CG        12.8610   31.9940  -19.3200 C.2    16  ASP16       0.3668
      7  OD1       13.3240   30.8790  -19.6180 O.co2  16  ASP16      -0.2456
      8  OD2       12.9120   32.9770  -20.0920 O.co2  16  ASP16      -0.2456
      9  N         10.9670   29.7070  -18.3280 N.am   17  SER17      -0.1938
     10  CA        10.4050   28.4730  -18.8640 C.3    17  SER17       0.2055
     11  C         10.9720   28.0890  -20.2320 C.2    17  SER17       0.2644
     12  O         11.4990   26.9900  -20.3970 O.2    17  SER17      -0.2714
     13  CB         8.8830   28.5670  -18.9400 C.3    17  SER17       0.2130
     14  OG         8.3310   27.3040  -19.2670 O.3    17  SER17      -0.2179
     15  N         10.8750   28.9870  -21.2080 N.am   18  SER18      -0.1935
     16  CA        11.2390   28.6500  -22.5830 C.3    18  SER18       0.2055
     17  C         12.5680   29.2550  -23.0240 C.2    18  SER18       0.2643
     18  O         13.0020   29.0410  -24.1550 O.2    18  SER18      -0.2714
     19  CB        10.1320   29.0940  -23.5450 C.3    18  SER18       0.2130
     20  OG         8.9280   28.3890  -23.2950 O.3    18  SER18      -0.2179
     21  N         13.2080   29.9990  -22.1260 N.am   19  ASN19      -0.1957
     22  CA        14.4590   30.6960  -22.4180 C.3    19  ASN19       0.1819
     23  C         14.2890   31.5910  -23.6420 C.2    19  ASN19       0.2621
     24  O         15.1380   31.6140  -24.5370 O.2    19  ASN19      -0.2715
     25  CB        15.5900   29.6900  -22.6320 C.3    19  ASN19       0.1195
     26  CG        16.9580   30.3420  -22.7120 C.2    19  ASN19       0.2630
     27  OD1       17.2430   31.3510  -22.0680 O.2    19  ASN19      -0.2716
     28  ND2       17.8160   29.7470  -23.5030 N.am   19  ASN19      -0.0877
     29  N         13.1820   32.3280  -23.6570 N.am   20  MET20      -0.1963
     30  CA        12.7850   33.1500  -24.8000 C.3    20  MET20       0.1736
     31  C         12.6390   34.6220  -24.4340 C.2    20  MET20       0.2616
     32  O         13.2390   35.4840  -25.0650 O.2    20  MET20      -0.2715
     33  CB        11.4470   32.6660  -25.3620 C.3    20  MET20       0.0427
     34  CG        11.5790   31.6940  -26.5140 C.3    20  MET20       0.0599
     35  SD        12.2670   32.4570  -27.9990 S.3    20  MET20      -0.1393
     36  CE        12.7100   30.9850  -28.9100 C.3    20  MET20       0.0692
     37  N         11.8190   34.9080  -23.4290 N.am   21  ASN21      -0.1958
     38  CA        11.4850   36.2860  -23.0930 C.3    21  ASN21       0.1819
     39  C         12.2060   36.7780  -21.8440 C.2    21  ASN21       0.2621
     40  O         13.1920   37.5020  -21.9370 O.2    21  ASN21      -0.2715
     41  CB         9.9720   36.4290  -22.9090 C.3    21  ASN21       0.1195
     42  CG         9.5520   37.8470  -22.5840 C.2    21  ASN21       0.2630
     43  OD1       10.1750   38.8130  -23.0270 O.2    21  ASN21      -0.2716
     44  ND2        8.4830   37.9810  -21.8130 N.am   21  ASN21      -0.0877
     45  N         11.7100   36.3760  -20.6790 N.am   22  ARG22      -0.1977
     46  CA        12.1660   36.9390  -19.4080 C.3    22  ARG22       0.1597
     47  C         13.6500   36.7030  -19.1240 C.2    22  ARG22       0.2287
     48  O         14.3570   37.6230  -18.7110 O.2    22  ARG22      -0.2864
     49  CB        11.3080   36.3890  -18.2640 C.3    22  ARG22       0.0334
     50  CG         9.8680   36.9120  -18.2640 C.3    22  ARG22       0.0492
     51  CD         8.9560   36.0810  -17.3510 C.3    22  ARG22       0.2205
     52  NE         8.8360   34.6980  -17.8130 N.pl3  22  ARG22      -0.0865
     53  CZ         8.2100   33.7290  -17.1490 C.cat  22  ARG22       0.5346
     54  NH1        7.6400   33.9780  -15.9790 N.pl3  22  ARG22       0.1354
     55  NH2        8.1540   32.5090  -17.6600 N.pl3  22  ARG22       0.1354
     56  N          8.1240   27.2880  -26.0400 N.3    47  LYS47      -0.1231
     57  CA         6.7470   27.5920  -26.4100 C.3    47  LYS47       0.1693
     58  C          6.5200   29.0850  -26.6070 C.2    47  LYS47       0.2592
     59  O          6.6370   29.8630  -25.6640 O.2    47  LYS47      -0.2718
     60  CB         5.7860   27.0760  -25.3350 C.3    47  LYS47       0.0285
     61  CG         5.7320   25.5590  -25.2100 C.3    47  LYS47       0.0035
     62  CD         4.5820   25.1290  -24.3060 C.3    47  LYS47       0.0206
     63  CE         4.3490   23.6230  -24.3460 C.3    47  LYS47       0.1093
     64  NZ         5.5010   22.8390  -23.8140 N.3    47  LYS47      -0.1314
     65  N          6.1900   29.4740  -27.8340 N.am   48  LEU48      -0.1966
     66  CA         5.8320   30.8540  -28.1430 C.3    48  LEU48       0.1713
     67  C          4.3530   30.9360  -28.4900 C.2    48  LEU48       0.2458
     68  O          3.7800   29.9740  -28.9930 O.2    48  LEU48      -0.2730
     69  CB         6.6560   31.3820  -29.3190 C.3    48  LEU48       0.0310
     70  CG         8.1340   31.6570  -29.0540 C.3    48  LEU48       0.0022
     71  CD1        8.8750   30.3790  -28.7310 C.3    48  LEU48       0.0001
     72  CD2        8.7680   32.3420  -30.2520 C.3    48  LEU48       0.0001
     73  N          3.7290   32.0900  -28.2270 N.am   49  PRO49      -0.2716
     74  CA         2.3100   32.2680  -28.5520 C.3    49  PRO49       0.1536
     75  C          2.0820   32.2400  -30.0620 C.2    49  PRO49       0.2599
     76  O          3.0130   32.4930  -30.8240 O.2    49  PRO49      -0.2715
     77  CB         1.9940   33.6540  -27.9870 C.3    49  PRO49       0.0310
     78  CG         3.3040   34.3700  -27.9890 C.3    49  PRO49       0.0237
     79  CD         4.3390   33.3240  -27.7040 C.3    49  PRO49       0.0939
     80  N          0.8580   31.9370  -30.4800 N.am   50  GLY50      -0.1941
     81  CA         0.5270   31.8390  -31.8900 C.3    50  GLY50       0.2014
     82  C         -0.6320   32.7480  -32.2500 C.2    50  GLY50       0.2639
     83  O         -0.8450   33.7780  -31.6120 O.2    50  GLY50      -0.2714
     84  N         -1.3890   32.3660  -33.2730 N.am   51  MET51      -0.1963
     85  CA        -2.5070   33.1810  -33.7320 C.3    51  MET51       0.1736
     86  C         -3.7820   32.8500  -32.9620 C.2    51  MET51       0.2616
     87  O         -4.7540   33.6020  -33.0000 O.2    51  MET51      -0.2715
     88  CB        -2.7130   32.9890  -35.2330 C.3    51  MET51       0.0427
     89  CG        -1.4820   33.3360  -36.0500 C.3    51  MET51       0.0599
     90  SD        -1.7810   33.3520  -37.8240 S.3    51  MET51      -0.1393
     91  CE        -2.9980   34.6610  -37.9490 C.3    51  MET51       0.0692
     92  N         -3.7660   31.7190  -32.2640 N.am   52  ALA52      -0.1963
     93  CA        -4.8490   31.3460  -31.3640 C.3    52  ALA52       0.1728
     94  C         -4.2480   30.8130  -30.0680 C.2    52  ALA52       0.2616
     95  O         -3.1520   30.2580  -30.0690 O.2    52  ALA52      -0.2715
     96  CB        -5.7370   30.2970  -32.0060 C.3    52  ALA52       0.0334
     97  N         -4.9600   30.9790  -28.9600 N.am   53  PHE53      -0.1974
     98  CA        -4.4330   30.5490  -27.6730 C.3    53  PHE53       0.1639
     99  C         -4.0930   29.0600  -27.6700 C.2    53  PHE53       0.2290
    100  O         -3.0670   28.6550  -27.1230 O.2    53  PHE53      -0.2864
    101  CB        -5.4160   30.8530  -26.5450 C.3    53  PHE53       0.0560
    102  CG        -4.9170   30.4350  -25.1950 C.ar   53  PHE53      -0.0200
    103  CD1       -4.2510   31.3340  -24.3790 C.ar   53  PHE53      -0.0042
    104  CD2       -5.0870   29.1320  -24.7530 C.ar   53  PHE53      -0.0042
    105  CE1       -3.7780   30.9480  -23.1410 C.ar   53  PHE53      -0.0003
    106  CE2       -4.6170   28.7390  -23.5170 C.ar   53  PHE53      -0.0003
    107  CZ        -3.9600   29.6480  -22.7090 C.ar   53  PHE53      -0.0000
    108  N         -0.1340   27.1430  -30.0080 N.3    56  PRO56      -0.2116
    109  CA         1.2020   27.6900  -29.7570 C.3    56  PRO56       0.1372
    110  C          2.2150   27.1850  -30.7730 C.2    56  PRO56       0.2244
    111  O          2.0340   26.1040  -31.3340 O.2    56  PRO56      -0.2868
    112  CB         1.5610   27.1370  -28.3670 C.3    56  PRO56       0.0268
    113  CG         0.3520   26.3720  -27.8860 C.3    56  PRO56       0.0207
    114  CD        -0.4500   26.0380  -29.0900 C.3    56  PRO56       0.0892
    115  N          2.1870   39.3050  -38.8530 N.3    79  PHE79      -0.1241
    116  CA         1.5670   38.9960  -37.5700 C.3    79  PHE79       0.1605
    117  C          2.6220   38.8720  -36.4780 C.2    79  PHE79       0.2264
    118  O          2.4560   39.3900  -35.3760 O.2    79  PHE79      -0.2867
    119  CB         0.7670   37.6950  -37.6600 C.3    79  PHE79       0.0534
    120  CG         0.1330   37.2820  -36.3600 C.ar   79  PHE79      -0.0203
    121  CD1       -1.0450   37.8720  -35.9290 C.ar   79  PHE79      -0.0042
    122  CD2        0.7090   36.2980  -35.5720 C.ar   79  PHE79      -0.0042
    123  CE1       -1.6340   37.4930  -34.7370 C.ar   79  PHE79      -0.0003
    124  CE2        0.1250   35.9150  -34.3770 C.ar   79  PHE79      -0.0003
    125  CZ        -1.0490   36.5150  -33.9600 C.ar   79  PHE79      -0.0000
    126  N          3.1790   41.5270  -33.1020 N.3    83  ASN83      -0.1240
    127  CA         3.0640   40.9990  -31.7490 C.3    83  ASN83       0.1653
    128  C          4.4230   40.9060  -31.0470 C.2    83  ASN83       0.2266
    129  O          4.4910   40.5880  -29.8610 O.2    83  ASN83      -0.2867
    130  CB         2.3610   39.6410  -31.7540 C.3    83  ASN83       0.1155
    131  CG         3.2250   38.5380  -32.3200 C.2    83  ASN83       0.2627
    132  OD1        4.3740   38.7640  -32.6980 O.2    83  ASN83      -0.2716
    133  ND2        2.6760   37.3300  -32.3770 N.am   83  ASN83      -0.0877
    134  N          7.2900   39.0020  -31.6840 N.3    85  LEU85      -0.1245
    135  CA         8.0790   37.7740  -31.5960 C.3    85  LEU85       0.1561
    136  C          9.3380   37.7970  -32.4600 C.2    85  LEU85       0.2260
    137  O         10.3690   37.2700  -32.0600 O.2    85  LEU85      -0.2867
    138  CB         7.2300   36.5530  -31.9550 C.3    85  LEU85       0.0270
    139  CG         5.9980   36.2990  -31.0810 C.3    85  LEU85       0.0019
    140  CD1        5.5010   34.8720  -31.2710 C.3    85  LEU85       0.0001
    141  CD2        6.3000   36.5590  -29.6150 C.3    85  LEU85       0.0001
    142  N         11.9320   39.8330  -30.6740 N.3    88  MET88      -0.1245
    143  CA        12.4060   39.0540  -29.5380 C.3    88  MET88       0.1570
    144  C         13.4150   38.0100  -29.9990 C.2    88  MET88       0.2261
    145  O         14.4770   37.8570  -29.4030 O.2    88  MET88      -0.2867
    146  CB        11.2370   38.3690  -28.8230 C.3    88  MET88       0.0387
    147  CG        11.6600   37.4590  -27.6760 C.3    88  MET88       0.0595
    148  SD        10.2500   36.6890  -26.8430 S.3    88  MET88      -0.1393
    149  CE         9.4400   38.1340  -26.1620 C.3    88  MET88       0.0692
    150  N          7.1250   28.4290  -10.2070 N.3   118  ARG118     -0.1245
    151  CA         7.1190   27.1430  -10.8920 C.3   118  ARG118      0.1563
    152  C          8.5100   26.8170  -11.4120 C.2   118  ARG118      0.2260
    153  O          8.9570   25.6740  -11.3330 O.2   118  ARG118     -0.2867
    154  CB         6.1000   27.1310  -12.0310 C.3   118  ARG118      0.0307
    155  CG         4.6960   26.7820  -11.5690 C.3   118  ARG118      0.0489
    156  CD         3.6730   26.9580  -12.6770 C.3   118  ARG118      0.2205
    157  NE         2.3590   26.4460  -12.2960 N.pl3 118  ARG118     -0.0865
    158  CZ         1.9020   25.2340  -12.6060 C.cat 118  ARG118      0.5346
    159  NH1        2.6470   24.3900  -13.3090 N.pl3 118  ARG118      0.1354
    160  NH2        0.6890   24.8640  -12.2130 N.pl3 118  ARG118      0.1354
    161  N          5.0600   37.6880  -17.5240 N.3   147  ASN147     -0.1225
    162  CA         5.5410   37.2090  -18.8160 C.3   147  ASN147      0.1785
    163  C          4.9870   37.9730  -20.0170 C.2   147  ASN147      0.2597
    164  O          4.1170   37.4800  -20.7340 O.2   147  ASN147     -0.2718
    165  CB         5.2410   35.7200  -18.9700 C.3   147  ASN147      0.1169
    166  CG         6.1740   35.0460  -19.9370 C.2   147  ASN147      0.2627
    167  OD1        6.8610   35.7050  -20.7120 O.2   147  ASN147     -0.2716
    168  ND2        6.2210   33.7250  -19.8860 N.am  147  ASN147     -0.0877
    169  N          5.4990   39.1820  -20.2200 N.am  148  ASN148     -0.1960
    170  CA         5.2980   39.9250  -21.4570 C.3   148  ASN148      0.1819
    171  C          6.5240   40.8060  -21.6990 C.2   148  ASN148      0.2621
    172  O          7.4000   40.9090  -20.8360 O.2   148  ASN148     -0.2715
    173  CB         4.0210   40.7620  -21.4000 C.3   148  ASN148      0.1195
    174  CG         4.0700   41.8270  -20.3320 C.2   148  ASN148      0.2630
    175  OD1        4.8190   42.7930  -20.4400 O.2   148  ASN148     -0.2716
    176  ND2        3.2600   41.6640  -19.2960 N.am  148  ASN148     -0.0877
    177  N          6.5920   41.4390  -22.8620 N.am  149  ALA149     -0.1977
    178  CA         7.7900   42.1750  -23.2530 C.3   149  ALA149      0.1597
    179  C          8.1260   43.3190  -22.2930 C.2   149  ALA149      0.2287
    180  O          9.2830   43.5010  -21.9300 O.2   149  ALA149     -0.2864
    181  CB         7.6440   42.7000  -24.6790 C.3   149  ALA149      0.0319
@<TRIPOS>BOND
     1   115   116    1
     2    91    90    1
     3    90    89    1
     4   119   116    1
     5   119   120    1
     6   116   117    1
     7   117   118    2
     8   120   121   ar
     9   120   122   ar
    10    89    88    1
    11   121   123   ar
    12   122   124   ar
    13    88    85    1
    14   123   125   ar
    15   124   125   ar
    16    85    84    1
    17    85    86    1
    18    84    82   am
    19   126   127    1
    20    87    86    2
    21    86    92   am
    22   132   131    2
    23   136   137    2
    24   136   135    1
    25   133   131   am
    26   131   130    1
    27    92    93    1
    28    82    81    1
    29    82    83    2
    30    96    93    1
    31   138   135    1
    32   138   139    1
    33    81    80    1
    34   130   127    1
    35   127   128    1
    36   134   135    1
    37    93    94    1
    38   111   110    2
    39   140   139    1
    40   139   141    1
    41   128   129    2
    42    76    75    2
    43   110   109    1
    44   142   143    1
    45    80    75   am
    46    72    70    1
    47    95    94    2
    48    94    97   am
    49    75    74    1
    50   108   109    1
    51   108   114    1
    52   144   143    1
    53   144   145    2
    54   109   112    1
    55   143   146    1
    56    69    70    1
    57    69    66    1
    58   114   113    1
    59    70    71    1
    60    68    67    2
    61    97    98    1
    62    36    35    1
    63   146   147    1
    64    74    73    1
    65    74    77    1
    66    67    73   am
    67    67    66    1
    68   112   113    1
    69    73    79    1
    70    66    65    1
    71    35    34    1
    72    78    77    1
    73    78    79    1
    74    65    58   am
    75   147   148    1
    76    98    99    1
    77    98   101    1
    78    99   100    2
    79   148   149    1
    80    58    57    1
    81    58    59    2
    82   101   102    1
    83    34    33    1
    84    57    56    1
    85    57    60    1
    86    33    30    1
    87    60    61    1
    88    61    62    1
    89   102   104   ar
    90   102   103   ar
    91    32    31    2
    92    30    31    1
    93    30    29    1
    94   104   106   ar
    95   181   178    1
    96    24    23    2
    97    31    37   am
    98   103   105   ar
    99    63    62    1
   100    63    64    1
   101    18    17    2
   102    29    23   am
   103    23    22    1
   104    19    20    1
   105    19    16    1
   106   106   107   ar
   107    28    26   am
   108    37    38    1
   109   178   177    1
   110   178   179    1
   111   105   107   ar
   112    38    41    1
   113    38    39    1
   114    43    42    2
   115    17    16    1
   116    17    21   am
   117    41    42    1
   118   177   171   am
   119    26    25    1
   120    26    27    2
   121    25    22    1
   122    42    44   am
   123    16    15    1
   124    22    21    1
   125   179   180    2
   126    40    39    2
   127    39    45   am
   128   171   170    1
   129   171   172    2
   130   170   173    1
   131   170   169    1
   132   173   174    1
   133    15    11   am
   134   164   163    2
   135   167   166    2
   136    45    46    1
   137   175   174    2
   138    12    11    2
   139   174   176   am
   140    11    10    1
   141   169   163   am
   142     8     6   ar
   143   163   162    1
   144   166   168   am
   145   166   165    1
   146     7     6   ar
   147    46    47    1
   148    46    49    1
   149     6     5    1
   150    14    13    1
   151    47    48    2
   152   165   162    1
   153    13    10    1
   154    10     9    1
   155   162   161    1
   156     9     3   am
   157    50    49    1
   158    50    51    1
   159     5     2    1
   160    52    51    1
   161    52    53    2
   162    55    53    1
   163     3     4    2
   164     3     2    1
   165    53    54    1
   166     2     1    1
   167   159   158    1
   168   156   157    1
   169   156   155    1
   170   158   157    2
   171   158   160    1
   172   154   155    1
   173   154   151    1
   174   152   153    2
   175   152   151    1
   176   151   150    1
