@<TRIPOS>MOLECULE
tmp/3p9zA00.pdb
 97 94 0 0 0
SMALL
GASTEIGER

@<TRIPOS>ATOM
      1  N         14.5180    2.8500   22.8110 N.3    40  THR40      -0.1203
      2  CA        14.7120    3.1570   21.3920 C.3    40  THR40       0.1994
      3  C         15.2260    4.5870   21.2170 C.2    40  THR40       0.2618
      4  O         15.7360    4.9240   20.1650 O.2    40  THR40      -0.2717
      5  CB        13.4050    3.0430   20.5970 C.3    40  THR40       0.1784
      6  OG1       12.4260    3.8830   21.2070 O.3    40  THR40      -0.2211
      7  CG2       12.8920    1.6280   20.5780 C.3    40  THR40       0.0376
      8  N         15.0850    5.4270   22.2410 N.am   41  SER41      -0.1951
      9  CA        15.5280    6.8320   22.1550 C.3    41  SER41       0.1924
     10  C         16.3270    7.2740   23.3840 C.2    41  SER41       0.2314
     11  O         16.0360    6.8600   24.5080 O.2    41  SER41      -0.2863
     12  CB        14.3160    7.7530   21.9860 C.3    41  SER41       0.2116
     13  OG        14.6790    9.1120   22.1890 O.3    41  SER41      -0.2180
     14  N          9.8240   -1.6960   28.5280 N.3   100  TYR100     -0.1241
     15  CA        10.1090   -0.7670   27.4400 C.3   100  TYR100      0.1605
     16  C          9.7890    0.6660   27.8690 C.2   100  TYR100      0.2264
     17  O          8.6340    1.0110   28.0730 O.2   100  TYR100     -0.2867
     18  CB         9.2760   -1.1650   26.2160 C.3   100  TYR100      0.0534
     19  CG         9.3920   -0.2580   25.0180 C.ar  100  TYR100     -0.0201
     20  CD1       10.5850    0.4110   24.7170 C.ar  100  TYR100     -0.0009
     21  CD2        8.3170   -0.1160   24.1420 C.ar  100  TYR100     -0.0009
     22  CE1       10.6870    1.2350   23.5840 C.ar  100  TYR100      0.0417
     23  CE2        8.4060    0.6930   23.0060 C.ar  100  TYR100      0.0417
     24  CZ         9.5850    1.3630   22.7300 C.ar  100  TYR100      0.1957
     25  OH         9.6520    2.1650   21.6030 O.3   100  TYR100     -0.2866
     26  N          9.2950    4.2400   26.8190 N.3   102  ARG102     -0.1231
     27  CA         8.9340    4.6520   25.4640 C.3   102  ARG102      0.1694
     28  C          8.3070    6.0510   25.3400 C.2   102  ARG102      0.2591
     29  O          7.9310    6.6770   26.3430 O.2   102  ARG102     -0.2718
     30  CB         7.9920    3.6030   24.8540 C.3   102  ARG102      0.0321
     31  CG         6.6360    3.5170   25.5560 C.3   102  ARG102      0.0489
     32  CD         5.5540    2.9150   24.6550 C.3   102  ARG102      0.2205
     33  NE         5.3360    3.6960   23.4260 N.pl3 102  ARG102     -0.0865
     34  CZ         4.8310    3.2020   22.2920 C.cat 102  ARG102      0.5346
     35  NH1        4.4840    1.9170   22.1930 N.pl3 102  ARG102      0.1354
     36  NH2        4.6720    4.0000   21.2430 N.pl3 102  ARG102      0.1354
     37  N          8.1990    6.5060   24.0930 N.am  103  ALA103     -0.1980
     38  CA         7.4630    7.7000   23.7230 C.3   103  ALA103      0.1597
     39  C          5.9600    7.4360   23.7330 C.2   103  ALA103      0.2287
     40  O          5.5070    6.3010   23.5370 O.2   103  ALA103     -0.2864
     41  CB         7.8860    8.1590   22.3450 C.3   103  ALA103      0.0319
     42  N          3.9780    8.8020   21.5360 N.3   105  GLU105     -0.1231
     43  CA         3.5920    8.7220   20.1360 C.3   105  GLU105      0.1699
     44  C          4.0880    7.4200   19.5310 C.2   105  GLU105      0.2592
     45  O          5.0890    6.8490   19.9690 O.2   105  GLU105     -0.2718
     46  CB         4.0900    9.9500   19.3490 C.3   105  GLU105      0.0402
     47  CG         5.6080   10.1580   19.3810 C.3   105  GLU105      0.1161
     48  CD         6.1170   10.9430   20.6050 C.2   105  GLU105      0.3649
     49  OE1        7.3290   11.2530   20.6440 O.co2 105  GLU105     -0.2457
     50  OE2        5.3260   11.2640   21.5180 O.co2 105  GLU105     -0.2457
     51  N          3.3480    6.9520   18.5310 N.am  106  ILE106     -0.1966
     52  CA         3.6550    5.7280   17.8290 C.3   106  ILE106      0.1727
     53  C          4.6260    6.0510   16.6990 C.2   106  ILE106      0.2616
     54  O          4.2780    6.7640   15.7670 O.2   106  ILE106     -0.2715
     55  CB         2.3400    5.0750   17.3080 C.3   106  ILE106      0.0290
     56  CG1        1.5190    4.5560   18.5070 C.3   106  ILE106      0.0022
     57  CG2        2.6200    3.9630   16.2690 C.3   106  ILE106      0.0023
     58  CD1        0.0860    4.2580   18.1910 C.3   106  ILE106      0.0001
     59  N          5.8530    5.5540   16.8090 N.am  107  VAL107     -0.1963
     60  CA         6.8550    5.7770   15.7760 C.3   107  VAL107      0.1727
     61  C          7.2820    4.4470   15.1350 C.2   107  VAL107      0.2617
     62  O          6.8550    4.1310   14.0290 O.2   107  VAL107     -0.2715
     63  CB         8.0700    6.5870   16.2990 C.3   107  VAL107      0.0290
     64  CG1        9.1320    6.7630   15.1970 C.3   107  VAL107      0.0023
     65  CG2        7.6190    7.9560   16.8200 C.3   107  VAL107      0.0023
     66  N          8.0960    3.6630   15.8390 N.am  108  SER108     -0.1936
     67  CA         8.5550    2.3650   15.3350 C.3   108  SER108      0.2055
     68  C          7.5930    1.2010   15.6310 C.2   108  SER108      0.2644
     69  O          7.7640    0.0990   15.0960 O.2   108  SER108     -0.2714
     70  CB         9.9260    2.0540   15.9260 C.3   108  SER108      0.2130
     71  OG         9.8200    1.8580   17.3360 O.3   108  SER108     -0.2179
     72  N          6.5790    1.4590   16.4620 N.am  109  SER109     -0.1935
     73  CA         5.7630    0.4010   17.0970 C.3   109  SER109      0.2055
     74  C          6.5550   -0.8680   17.4500 C.2   109  SER109      0.2642
     75  O          6.2260   -1.9820   17.0200 O.2   109  SER109     -0.2714
     76  CB         4.4660    0.0960   16.3190 C.3   109  SER109      0.2130
     77  OG         4.6840    0.0500   14.9200 O.3   109  SER109     -0.2179
     78  N          7.5980   -0.6840   18.2550 N.am  110  LEU110     -0.1977
     79  CA         8.3850   -1.8040   18.7530 C.3   110  LEU110      0.1596
     80  C          7.5100   -2.7570   19.5780 C.2   110  LEU110      0.2287
     81  O          7.8150   -3.9380   19.6730 O.2   110  LEU110     -0.2864
     82  CB         9.6040   -1.3130   19.5550 C.3   110  LEU110      0.0297
     83  CG        10.4780   -2.3420   20.2870 C.3   110  LEU110      0.0022
     84  CD1       11.3610   -3.1060   19.3330 C.3   110  LEU110      0.0001
     85  CD2       11.3240   -1.6750   21.3600 C.3   110  LEU110      0.0001
     86  N          7.9260    9.8660   27.9920 N.3   127  TYR127     -0.1241
     87  CA         8.0730   11.1730   27.3450 C.3   127  TYR127      0.1605
     88  C          7.1600   11.3340   26.1440 C.2   127  TYR127      0.2264
     89  O          6.6370   10.3530   25.6100 O.2   127  TYR127     -0.2867
     90  CB         9.5440   11.4790   26.9710 C.3   127  TYR127      0.0534
     91  CG        10.0070   10.7960   25.7080 C.ar  127  TYR127     -0.0201
     92  CD1       10.4720    9.4850   25.7440 C.ar  127  TYR127     -0.0009
     93  CD2        9.9640   11.4470   24.4690 C.ar  127  TYR127     -0.0009
     94  CE1       10.8880    8.8300   24.5990 C.ar  127  TYR127      0.0417
     95  CE2       10.3840   10.7820   23.2900 C.ar  127  TYR127      0.0417
     96  CZ        10.8510    9.4790   23.3830 C.ar  127  TYR127      0.1957
     97  OH        11.2670    8.7910   22.2690 O.3   127  TYR127     -0.2866
@<TRIPOS>BOND
     1    62    61    2
     2    77    76    1
     3    69    68    2
     4    61    60    1
     5    61    66   am
     6    64    63    1
     7    67    68    1
     8    67    66    1
     9    67    70    1
    10    68    72   am
    11    54    53    2
    12    60    63    1
    13    60    59    1
    14    70    71    1
    15    57    55    1
    16    63    65    1
    17    76    73    1
    18    72    73    1
    19    53    59   am
    20    53    52    1
    21    75    74    2
    22    73    74    1
    23    55    52    1
    24    55    56    1
    25    74    78   am
    26    52    51    1
    27    58    56    1
    28    78    79    1
    29    51    44   am
    30    79    82    1
    31    79    80    1
    32    84    83    1
    33    46    47    1
    34    46    43    1
    35    47    48    1
    36    44    45    2
    37    44    43    1
    38    82    83    1
    39    80    81    2
    40    43    42    1
    41     4     3    2
    42    83    85    1
    43     7     5    1
    44     5     6    1
    45     5     2    1
    46    48    49   ar
    47    48    50   ar
    48     3     2    1
    49     3     8   am
    50    36    34    1
    51     2     1    1
    52    25    24    1
    53    12     9    1
    54    12    13    1
    55     9     8    1
    56     9    10    1
    57    35    34    1
    58    97    96    1
    59    34    33    2
    60    41    38    1
    61    24    23   ar
    62    24    22   ar
    63    23    21   ar
    64    95    96   ar
    65    95    93   ar
    66    96    94   ar
    67    10    11    2
    68    33    32    1
    69    40    39    2
    70    22    20   ar
    71    38    39    1
    72    38    37    1
    73    37    28   am
    74    21    19   ar
    75    93    91   ar
    76    94    92   ar
    77    32    31    1
    78    20    19   ar
    79    30    27    1
    80    30    31    1
    81    19    18    1
    82    28    27    1
    83    28    29    2
    84    27    26    1
    85    89    88    2
    86    91    92   ar
    87    91    90    1
    88    88    87    1
    89    18    15    1
    90    90    87    1
    91    87    86    1
    92    15    16    1
    93    15    14    1
    94    16    17    2
