@<TRIPOS>MOLECULE
tmp/3pa2B00.pdb
 78 75 0 0 0
SMALL
GASTEIGER

@<TRIPOS>ATOM
      1  N         11.3300   -7.2420   35.3810 N.3   111  GLN111     -0.1245
      2  CA         9.9600   -7.2210   34.9110 C.3   111  GLN111      0.1566
      3  C          9.9080   -6.3050   33.7010 C.2   111  GLN111      0.2260
      4  O          9.9760   -5.0900   33.8420 O.2   111  GLN111     -0.2867
      5  CB         9.0240   -6.6910   36.0010 C.3   111  GLN111      0.0367
      6  CG         8.9790   -7.5620   37.2430 C.3   111  GLN111      0.0905
      7  CD         7.9490   -7.1070   38.2490 C.2   111  GLN111      0.2608
      8  OE1        7.2500   -6.1140   38.0370 O.2   111  GLN111     -0.2717
      9  NE2        7.8520   -7.8330   39.3640 N.am  111  GLN111     -0.0878
     10  N          3.4000   -7.2900   31.2000 N.3   133  VAL133     -0.1245
     11  CA         4.6870   -7.3980   31.8810 C.3   133  VAL133      0.1561
     12  C          5.1660   -8.8340   31.7400 C.2   133  VAL133      0.2260
     13  O          4.3960   -9.7680   31.9290 O.2   133  VAL133     -0.2867
     14  CB         4.5500   -7.0750   33.3750 C.3   133  VAL133      0.0252
     15  CG1        5.8840   -7.2890   34.1060 C.3   133  VAL133      0.0019
     16  CG2        4.0110   -5.6490   33.5800 C.3   133  VAL133      0.0019
     17  N         -2.8150   -6.1160   33.4180 N.3   153  TRP153     -0.1241
     18  CA        -3.8080   -5.5050   34.2830 C.3   153  TRP153      0.1605
     19  C         -5.1830   -5.8880   33.7490 C.2   153  TRP153      0.2264
     20  O         -6.0950   -6.1770   34.5240 O.2   153  TRP153     -0.2867
     21  CB        -3.6260   -3.9880   34.3010 C.3   153  TRP153      0.0550
     22  CG        -2.3810   -3.5480   35.0570 C.ar  153  TRP153      0.0003
     23  CD1       -2.3150   -3.1870   36.3790 C.ar  153  TRP153      0.0946
     24  CD2       -1.0370   -3.4290   34.5460 C.ar  153  TRP153      0.0152
     25  NE1       -1.0310   -2.8540   36.7160 N.ar  153  TRP153     -0.2442
     26  CE2       -0.2290   -2.9870   35.6110 C.ar  153  TRP153      0.0810
     27  CE3       -0.4400   -3.6590   33.2990 C.ar  153  TRP153      0.0012
     28  CZ2        1.1420   -2.7780   35.4700 C.ar  153  TRP153      0.0191
     29  CZ3        0.9140   -3.4350   33.1570 C.ar  153  TRP153      0.0001
     30  CH2        1.6930   -3.0080   34.2380 C.ar  153  TRP153      0.0015
     31  N          8.7800   -2.5820   34.3100 N.3   172  ALA172     -0.1231
     32  CA         7.5290   -2.4050   35.0250 C.3   172  ALA172      0.1694
     33  C          7.7650   -1.8870   36.4370 C.2   172  ALA172      0.2592
     34  O          6.8710   -1.2770   37.0430 O.2   172  ALA172     -0.2718
     35  CB         6.7740   -3.7290   35.0780 C.3   172  ALA172      0.0304
     36  N          8.9570   -2.1610   36.9620 N.am  173  SER173     -0.1952
     37  CA         9.2980   -1.8760   38.3490 C.3   173  SER173      0.1924
     38  C         10.7880   -2.0400   38.5010 C.2   173  SER173      0.2314
     39  O         11.4020   -2.7880   37.7510 O.2   173  SER173     -0.2863
     40  CB         8.6020   -2.8860   39.2590 C.3   173  SER173      0.2116
     41  OG         8.9040   -2.6680   40.6250 O.3   173  SER173     -0.2180
     42  N         11.5360   -2.1060   42.0040 N.3   175  ASP175     -0.1239
     43  CA        11.4880   -2.3440   43.4490 C.3   175  ASP175      0.1674
     44  C         12.2220   -3.6460   43.7750 C.2   175  ASP175      0.2266
     45  O         12.5160   -4.4600   42.8910 O.2   175  ASP175     -0.2867
     46  CB        10.0430   -2.3450   43.9760 C.3   175  ASP175      0.1410
     47  CG         9.3080   -3.6400   43.6920 C.2   175  ASP175      0.3668
     48  OD1        9.7990   -4.4570   42.8860 O.co2 175  ASP175     -0.2456
     49  OD2        8.2180   -3.8420   44.2740 O.co2 175  ASP175     -0.2456
     50  N          7.5640    2.1020   34.3470 N.3   221  LYS221     -0.1231
     51  CA         6.1150    2.1890   34.4470 C.3   221  LYS221      0.1693
     52  C          5.6740    2.9530   35.7060 C.2   221  LYS221      0.2593
     53  O          4.6750    3.6900   35.6840 O.2   221  LYS221     -0.2718
     54  CB         5.5180    0.7680   34.4100 C.3   221  LYS221      0.0285
     55  CG         4.0560    0.6410   34.8010 C.3   221  LYS221      0.0035
     56  CD         3.1020    1.2680   33.7720 C.3   221  LYS221      0.0206
     57  CE         1.6420    1.1490   34.2400 C.3   221  LYS221      0.1093
     58  NZ         0.6730    1.8380   33.3420 N.3   221  LYS221     -0.1314
     59  N          6.4240    2.7930   36.7880 N.am  222  GLY222     -0.1942
     60  CA         6.1440    3.5100   38.0190 C.3   222  GLY222      0.2014
     61  C          7.2640    3.3550   39.0140 C.2   222  GLY222      0.2639
     62  O          8.2060    2.5920   38.7880 O.2   222  GLY222     -0.2714
     63  N          7.1630    4.0940   40.1120 N.am  223  GLY223     -0.1939
     64  CA         8.1400    4.0430   41.1790 C.3   223  GLY223      0.2014
     65  C          9.2990    5.0050   40.9890 C.2   223  GLY223      0.2638
     66  O          9.3520    5.7530   40.0080 O.2   223  GLY223     -0.2714
     67  N         10.2150    4.9930   41.9470 N.am  224  TYR224     -0.1973
     68  CA        11.4060    5.8170   41.8840 C.3   224  TYR224      0.1639
     69  C         12.5250    5.0110   41.2660 C.2   224  TYR224      0.2290
     70  O         12.6420    3.8110   41.5020 O.2   224  TYR224     -0.2864
     71  CB        11.8140    6.2640   43.2920 C.3   224  TYR224      0.0560
     72  CG        10.9350    7.3600   43.8300 C.ar  224  TYR224     -0.0198
     73  CD1        9.7760    7.0620   44.5220 C.ar  224  TYR224     -0.0009
     74  CD2       11.2610    8.6930   43.6290 C.ar  224  TYR224     -0.0009
     75  CE1        8.9630    8.0670   45.0120 C.ar  224  TYR224      0.0417
     76  CE2       10.4560    9.7050   44.1130 C.ar  224  TYR224      0.0417
     77  CZ         9.3050    9.3800   44.8000 C.ar  224  TYR224      0.1957
     78  OH         8.4970   10.3830   45.2920 O.3   224  TYR224     -0.2866
@<TRIPOS>BOND
     1    10    11    1
     2    12    11    1
     3    12    13    2
     4    11    14    1
     5    29    27   ar
     6    29    30   ar
     7    27    24   ar
     8    58    57    1
     9    14    16    1
    10    14    15    1
    11    17    18    1
    12     3     4    2
    13     3     2    1
    14    19    18    1
    15    19    20    2
    16    56    57    1
    17    56    55    1
    18    30    28   ar
    19    18    21    1
    20    21    22    1
    21    31    32    1
    22    50    51    1
    23    54    51    1
    24    54    55    1
    25    51    52    1
    26    24    22   ar
    27    24    26   ar
    28     2     1    1
    29     2     5    1
    30    32    35    1
    31    32    33    1
    32    22    23   ar
    33    28    26   ar
    34    26    25   ar
    35    53    52    2
    36    52    59   am
    37     5     6    1
    38    23    25   ar
    39    33    36   am
    40    33    34    2
    41    59    60    1
    42    36    37    1
    43     6     7    1
    44    39    38    2
    45    60    61    1
    46     8     7    2
    47     7     9   am
    48    37    38    1
    49    37    40    1
    50    62    61    2
    51    61    63   am
    52    40    41    1
    53    66    65    2
    54    63    64    1
    55    65    64    1
    56    65    67   am
    57    69    70    2
    58    69    68    1
    59    68    67    1
    60    68    71    1
    61    42    43    1
    62    48    47   ar
    63    45    44    2
    64    71    72    1
    65    43    44    1
    66    43    46    1
    67    74    72   ar
    68    74    76   ar
    69    47    46    1
    70    47    49   ar
    71    72    73   ar
    72    76    77   ar
    73    73    75   ar
    74    77    75   ar
    75    77    78    1
