@<TRIPOS>MOLECULE
tmp/3pa3A00.pdb
 166 158 0 0 0
SMALL
GASTEIGER

@<TRIPOS>ATOM
      1  N         18.5430   -6.3580   -0.3250 N.3    10  GLN10      -0.1231
      2  CA        19.4440   -6.9100    0.6790 C.3    10  GLN10       0.1698
      3  C         18.7900   -7.1680    2.0290 C.2    10  GLN10       0.2593
      4  O         17.8320   -6.4950    2.4070 O.2    10  GLN10      -0.2718
      5  CB        20.6680   -6.0040    0.8490 C.3    10  GLN10       0.0381
      6  CG        21.0280   -5.6910    2.2980 C.3    10  GLN10       0.0905
      7  CD        22.0830   -4.6050    2.4160 C.2    10  GLN10       0.2608
      8  OE1       22.7750   -4.5010    3.4300 O.2    10  GLN10      -0.2717
      9  NE2       22.2080   -3.7870    1.3770 N.am   10  GLN10      -0.0878
     10  N         19.3270   -8.1490    2.7540 N.am   11  THR11      -0.1939
     11  CA        18.8320   -8.4920    4.0850 C.3    11  THR11       0.2028
     12  C         19.5050   -7.5810    5.1060 C.2    11  THR11       0.2642
     13  O         20.7360   -7.4980    5.1680 O.2    11  THR11      -0.2714
     14  CB        19.0620   -9.9810    4.4100 C.3    11  THR11       0.1808
     15  OG1       18.2790  -10.7880    3.5180 O.3    11  THR11      -0.2208
     16  CG2       18.6550  -10.2760    5.8450 C.3    11  THR11       0.0379
     17  N         18.6930   -6.8860    5.8910 N.am   12  LEU12      -0.1963
     18  CA        19.2000   -5.9360    6.8780 C.3    12  LEU12       0.1728
     19  C         19.3150   -6.4930    8.2910 C.2    12  LEU12       0.2617
     20  O         20.2920   -6.2240    8.9970 O.2    12  LEU12      -0.2715
     21  CB        18.3160   -4.6970    6.9090 C.3    12  LEU12       0.0311
     22  CG        18.2220   -3.8940    5.6110 C.3    12  LEU12       0.0022
     23  CD1       17.1310   -2.8280    5.7170 C.3    12  LEU12       0.0001
     24  CD2       19.5810   -3.2690    5.2900 C.3    12  LEU12       0.0001
     25  N         18.2970   -7.2240    8.7220 N.am   13  GLY13      -0.1940
     26  CA        18.2950   -7.7760   10.0630 C.3    13  GLY13       0.2014
     27  C         17.3400   -8.9400   10.1960 C.2    13  GLY13       0.2639
     28  O         16.8060   -9.4470    9.2040 O.2    13  GLY13      -0.2714
     29  N         17.1330   -9.3660   11.4320 N.am   14  GLU14      -0.1963
     30  CA        16.2630  -10.4810   11.7150 C.3    14  GLU14       0.1733
     31  C         15.6480  -10.3080   13.0850 C.2    14  GLU14       0.2616
     32  O         16.3590  -10.1650   14.0790 O.2    14  GLU14      -0.2715
     33  CB        17.0560  -11.7990   11.6610 C.3    14  GLU14       0.0429
     34  CG        16.5430  -12.7910   10.6260 C.3    14  GLU14       0.1163
     35  CD        17.6390  -13.6840   10.0750 C.2    14  GLU14       0.3649
     36  OE1       18.1020  -14.5840   10.8110 O.co2  14  GLU14      -0.2457
     37  OE2       18.0290  -13.4970    8.9000 O.co2  14  GLU14      -0.2457
     38  N         14.3210  -10.3050   13.1320 N.am   15  GLY15      -0.1955
     39  CA        13.6050  -10.1880   14.3890 C.3    15  GLY15       0.1869
     40  C         13.2850  -11.5990   14.8570 C.2    15  GLY15       0.2309
     41  O         13.6820  -12.5770   14.2160 O.2    15  GLY15      -0.2863
     42  N         14.3770   -8.4440    8.1920 N.3    20  VAL20      -0.1245
     43  CA        14.1820   -7.0860    7.7110 C.3    20  VAL20       0.1561
     44  C         14.9760   -6.9880    6.4250 C.2    20  VAL20       0.2260
     45  O         16.1580   -7.3420    6.3780 O.2    20  VAL20      -0.2867
     46  CB        14.6580   -6.0160    8.7420 C.3    20  VAL20       0.0252
     47  CG1       14.1580   -4.6100    8.3220 C.3    20  VAL20       0.0019
     48  CG2       14.1560   -6.3600   10.1270 C.3    20  VAL20       0.0019
     49  N         12.5700    0.0570    4.6110 N.3    33  ALA33      -0.1245
     50  CA        12.8540   -1.2150    5.2460 C.3    33  ALA33       0.1562
     51  C         11.5670   -2.0400    5.3030 C.2    33  ALA33       0.2260
     52  O         10.4900   -1.5160    5.6090 O.2    33  ALA33      -0.2867
     53  CB        13.4390   -0.9960    6.6780 C.3    33  ALA33       0.0290
     54  N         11.2330    5.6270   14.2700 N.3    57  VAL57      -0.1245
     55  CA        11.1250    5.0590   12.9260 C.3    57  VAL57       0.1561
     56  C          9.6890    5.2570   12.4070 C.2    57  VAL57       0.2260
     57  O          8.7310    4.7950   13.0110 O.2    57  VAL57      -0.2867
     58  CB        11.5030    3.5620   12.9440 C.3    57  VAL57       0.0252
     59  CG1       11.1050    2.8800   11.6130 C.3    57  VAL57       0.0019
     60  CG2       12.9530    3.3810   13.2430 C.3    57  VAL57       0.0019
     61  N          8.6770    0.3230    6.7180 N.3    73  LEU73      -0.1231
     62  CA         9.2420    1.2960    7.6610 C.3    73  LEU73       0.1693
     63  C         10.3310    2.1910    7.1100 C.2    73  LEU73       0.2592
     64  O         11.0280    1.8400    6.1570 O.2    73  LEU73      -0.2718
     65  CB         9.8330    0.5210    8.8450 C.3    73  LEU73       0.0284
     66  CG         8.8880   -0.4610    9.5360 C.3    73  LEU73       0.0019
     67  CD1        9.6540   -1.6060   10.1940 C.3    73  LEU73       0.0001
     68  CD2        8.0400    0.2990   10.5510 C.3    73  LEU73       0.0001
     69  N         10.5450    3.3160    7.7900 N.am   74  GLU74      -0.1966
     70  CA        11.5900    4.2470    7.4350 C.3    74  GLU74       0.1733
     71  C         12.9480    3.5300    7.5160 C.2    74  GLU74       0.2616
     72  O         13.2760    2.9010    8.5420 O.2    74  GLU74      -0.2715
     73  CB        11.5580    5.4360    8.4130 C.3    74  GLU74       0.0429
     74  CG        12.7110    6.3780    8.2840 C.3    74  GLU74       0.1163
     75  CD        12.7010    7.4800    9.3490 C.2    74  GLU74       0.3649
     76  OE1       11.8090    7.4640   10.2420 O.co2  74  GLU74      -0.2457
     77  OE2       13.5930    8.3570    9.2860 O.co2  74  GLU74      -0.2457
     78  N         13.7140    3.5700    6.4250 N.am   75  TYR75      -0.1960
     79  CA        15.0150    2.9170    6.3680 C.3    75  TYR75       0.1771
     80  C         16.0860    3.7230    7.1030 C.2    75  TYR75       0.2620
     81  O         16.2510    4.9240    6.8560 O.2    75  TYR75      -0.2715
     82  CB        15.4360    2.6990    4.8990 C.3    75  TYR75       0.0574
     83  CG        16.8430    2.1580    4.7320 C.ar   75  TYR75      -0.0198
     84  CD1       17.2760    1.0350    5.4490 C.ar   75  TYR75      -0.0009
     85  CD2       17.7390    2.7470    3.8290 C.ar   75  TYR75      -0.0009
     86  CE1       18.5630    0.5490    5.3090 C.ar   75  TYR75       0.0417
     87  CE2       19.0190    2.2520    3.6640 C.ar   75  TYR75       0.0417
     88  CZ        19.4280    1.1470    4.3930 C.ar   75  TYR75       0.1957
     89  OH        20.7100    0.6570    4.2250 O.3    75  TYR75      -0.2866
     90  N         16.8230    3.0540    7.9910 N.am   76  CYS76      -0.1954
     91  CA        17.8640    3.7000    8.7760 C.3    76  CYS76       0.1843
     92  C         19.2000    3.1150    8.3710 C.2    76  CYS76       0.2626
     93  O         19.6240    2.0780    8.8750 O.2    76  CYS76      -0.2714
     94  CB        17.5850    3.4590   10.2650 C.3    76  CYS76       0.0997
     95  SG        16.0150    4.2320   10.8030 S.3    76  CYS76      -0.0797
     96  N         19.8370    3.7490    7.3860 N.am   77  SER77      -0.1936
     97  CA        21.0620    3.2180    6.8230 C.3    77  SER77       0.2055
     98  C         22.2620    3.0950    7.7330 C.2    77  SER77       0.2644
     99  O         23.2360    2.3810    7.4050 O.2    77  SER77      -0.2714
    100  CB        21.4400    3.9740    5.5670 C.3    77  SER77       0.2130
    101  OG        21.8390    5.2970    5.8700 O.3    77  SER77      -0.2179
    102  N         22.2090    3.7870    8.8810 N.am   78  GLY78      -0.1939
    103  CA        23.2790    3.7520    9.8500 C.3    78  GLY78       0.2014
    104  C         23.2270    2.4980   10.7300 C.2    78  GLY78       0.2639
    105  O         24.1620    2.2430   11.5050 O.2    78  GLY78      -0.2714
    106  N         22.1410    1.7270   10.6220 N.am   79  GLY79      -0.1939
    107  CA        22.0200    0.4830   11.3760 C.3    79  GLY79       0.2014
    108  C         21.7560    0.6880   12.8870 C.2    79  GLY79       0.2638
    109  O         21.2790    1.7490   13.3200 O.2    79  GLY79      -0.2714
    110  N         22.1030   -0.3260   13.6700 N.am   80  GLU80      -0.1977
    111  CA        21.8420   -0.3230   15.1160 C.3    80  GLU80       0.1602
    112  C         22.8350    0.4590   15.9020 C.2    80  GLU80       0.2287
    113  O         24.0440    0.3600   15.6840 O.2    80  GLU80      -0.2864
    114  CB        21.8640   -1.7520   15.6570 C.3    80  GLU80       0.0415
    115  CG        20.7430   -2.6160   15.1680 C.3    80  GLU80       0.1163
    116  CD        20.7980   -4.0340   15.7410 C.2    80  GLU80       0.3649
    117  OE1       21.5670   -4.2760   16.7020 O.co2  80  GLU80      -0.2457
    118  OE2       20.0260   -4.8980   15.2540 O.co2  80  GLU80      -0.2457
    119  N         16.7350   -0.5680   24.0700 N.3   121  LYS121     -0.1245
    120  CA        18.0790   -1.1260   24.1320 C.3   121  LYS121      0.1561
    121  C         18.7490   -0.7700   22.8310 C.2   121  LYS121      0.2260
    122  O         18.0580   -0.3910   21.8790 O.2   121  LYS121     -0.2867
    123  CB        18.0570   -2.6650   24.3570 C.3   121  LYS121      0.0271
    124  CG        17.2200   -3.4530   23.3630 C.3   121  LYS121      0.0035
    125  CD        17.2890   -4.9790   23.6950 C.3   121  LYS121      0.0206
    126  CE        16.3820   -5.7700   22.7600 C.3   121  LYS121      0.1093
    127  NZ        16.4190   -7.2710   23.1300 N.3   121  LYS121     -0.1314
    128  N         19.9050   -2.3580   20.3730 N.3   123  GLU123     -0.1231
    129  CA        19.4850   -3.1060   19.2080 C.3   123  GLU123      0.1699
    130  C         18.2020   -2.5510   18.6250 C.2   123  GLU123      0.2592
    131  O         17.8500   -2.8410   17.4660 O.2   123  GLU123     -0.2718
    132  CB        19.2500   -4.5680   19.5750 C.3   123  GLU123      0.0402
    133  CG        20.4820   -5.3070   20.0730 C.3   123  GLU123      0.1161
    134  CD        20.6440   -5.2770   21.5970 C.2   123  GLU123      0.3649
    135  OE1       20.2690   -4.2750   22.2420 O.co2 123  GLU123     -0.2457
    136  OE2       21.1920   -6.2750   22.1520 O.co2 123  GLU123     -0.2457
    137  N         17.4790   -1.7520   19.4240 N.am  124  ASN124     -0.1974
    138  CA        16.2020   -1.1760   19.0160 C.3   124  ASN124      0.1688
    139  C         16.2750    0.3250   18.8770 C.2   124  ASN124      0.2292
    140  O         15.2330    1.0050   18.8750 O.2   124  ASN124     -0.2864
    141  CB        15.0710   -1.5410   20.0030 C.3   124  ASN124      0.1181
    142  CG        14.7670   -3.0190   20.0160 C.2   124  ASN124      0.2629
    143  OD1       15.0520   -3.7340   19.0420 O.2   124  ASN124     -0.2716
    144  ND2       14.1280   -3.4790   21.0660 N.am  124  ASN124     -0.0877
    145  N         17.9580    2.8370   16.1060 N.3   126  LEU126     -0.1245
    146  CA        18.6400    2.8440   14.8020 C.3   126  LEU126      0.1561
    147  C         19.1450    4.2300   14.4520 C.2   126  LEU126      0.2260
    148  O         18.7400    5.2410   15.0470 O.2   126  LEU126     -0.2867
    149  CB        17.6780    2.3500   13.7220 C.3   126  LEU126      0.0270
    150  CG        17.0280    0.9890   14.0070 C.3   126  LEU126      0.0019
    151  CD1       16.0550    0.6070   12.8420 C.3   126  LEU126      0.0001
    152  CD2       18.0680   -0.1190   14.2390 C.3   126  LEU126      0.0001
    153  N         12.9900    2.1900   17.4800 N.3   136  SER136     -0.1202
    154  CA        12.4460    1.1760   16.5900 C.3   136  SER136      0.2020
    155  C         11.8920   -0.0190   17.3610 C.2   136  SER136      0.2618
    156  O         12.1290   -0.1570   18.5680 O.2   136  SER136     -0.2717
    157  CB        13.6630    0.6960   15.7520 C.3   136  SER136      0.2103
    158  OG        13.3180   -0.3190   14.8230 O.3   136  SER136     -0.2182
    159  N         11.1650   -0.8940   16.6530 N.am  137  ASP137     -0.1973
    160  CA        10.7370   -2.1910   17.1840 C.3   137  ASP137      0.1709
    161  C          9.6790   -2.0380   18.2850 C.2   137  ASP137      0.2293
    162  O          9.9670   -2.2320   19.4860 O.2   137  ASP137     -0.2864
    163  CB        11.9610   -3.0240   17.6800 C.3   137  ASP137      0.1436
    164  CG        12.8940   -3.4900   16.5320 C.2   137  ASP137      0.3671
    165  OD1       13.4150   -2.6520   15.7880 O.co2 137  ASP137     -0.2456
    166  OD2       13.1750   -4.6990   16.4520 O.co2 137  ASP137     -0.2456
@<TRIPOS>BOND
     1     1     2    1
     2     2     5    1
     3     2     3    1
     4     5     6    1
     5     9     7   am
     6     3     4    2
     7     3    10   am
     8     6     7    1
     9     7     8    2
    10    10    11    1
    11    15    14    1
    12    87    85   ar
    13    87    88   ar
    14    85    83   ar
    15    11    14    1
    16    11    12    1
    17    89    88    1
    18    88    86   ar
    19    14    16    1
    20    49    50    1
    21    83    82    1
    22    83    84   ar
    23    82    79    1
    24    12    13    2
    25    12    17   am
    26    50    51    1
    27    50    53    1
    28    24    22    1
    29    51    52    2
    30    86    84   ar
    31   100   101    1
    32   100    97    1
    33    22    23    1
    34    22    21    1
    35    17    18    1
    36    64    63    2
    37    79    78    1
    38    79    80    1
    39    45    44    2
    40    78    71   am
    41    44    43    1
    42    61    62    1
    43    97    96    1
    44    97    98    1
    45    81    80    2
    46    18    21    1
    47    18    19    1
    48    80    90   am
    49    63    62    1
    50    63    69   am
    51    96    92   am
    52    99    98    2
    53    70    71    1
    54    70    69    1
    55    70    73    1
    56    71    72    2
    57    62    65    1
    58    43    42    1
    59    43    46    1
    60    98   102   am
    61    90    91    1
    62    74    73    1
    63    74    75    1
    64    19    25   am
    65    19    20    2
    66    47    46    1
    67    92    91    1
    68    92    93    2
    69    25    26    1
    70    46    48    1
    71    91    94    1
    72    65    66    1
    73   102   103    1
    74    37    35   ar
    75    28    27    2
    76    77    75   ar
    77    75    76   ar
    78    66    67    1
    79    66    68    1
    80   103   104    1
    81    26    27    1
    82    35    34    1
    83    35    36   ar
    84    27    29   am
    85    94    95    1
    86   106   104   am
    87   106   107    1
    88    34    33    1
    89   104   105    2
    90   107   108    1
    91    29    30    1
    92    59    58    1
    93    33    30    1
    94    30    31    1
    95    56    55    1
    96    56    57    2
    97   151   150    1
    98   108   109    2
    99   108   110   am
   100    55    58    1
   101    55    54    1
   102    58    60    1
   103    31    38   am
   104    31    32    2
   105    38    39    1
   106   110   111    1
   107   149   150    1
   108   149   146    1
   109   150   152    1
   110    41    40    2
   111    39    40    1
   112   147   146    1
   113   147   148    2
   114   146   145    1
   115   158   157    1
   116   111   114    1
   117   111   112    1
   118   115   114    1
   119   115   116    1
   120   118   116   ar
   121   113   112    2
   122   116   117   ar
   123   157   154    1
   124   165   164   ar
   125   166   164   ar
   126   164   163    1
   127   154   155    1
   128   154   153    1
   129   159   160    1
   130   159   155   am
   131   160   163    1
   132   160   161    1
   133   155   156    2
   134   131   130    2
   135   161   162    2
   136   130   129    1
   137   130   137   am
   138   140   139    2
   139   139   138    1
   140   138   137    1
   141   138   141    1
   142   143   142    2
   143   129   132    1
   144   129   128    1
   145   132   133    1
   146   141   142    1
   147   142   144   am
   148   133   134    1
   149   134   136   ar
   150   134   135   ar
   151   122   121    2
   152   126   127    1
   153   126   125    1
   154   121   120    1
   155   124   125    1
   156   124   123    1
   157   119   120    1
   158   120   123    1
