@<TRIPOS>MOLECULE
tmp/3pa5A00.pdb
 159 150 0 0 0
SMALL
GASTEIGER

@<TRIPOS>ATOM
      1  N         18.1420   -6.4160   -0.4000 N.3    11  GLN11      -0.1245
      2  CA        19.0230   -6.9960    0.6080 C.3    11  GLN11       0.1566
      3  C         18.3560   -7.2350    1.9580 C.2    11  GLN11       0.2260
      4  O         17.4600   -6.4930    2.3590 O.2    11  GLN11      -0.2867
      5  CB        20.2800   -6.1380    0.7750 C.3    11  GLN11       0.0367
      6  CG        20.2700   -5.2420    1.9950 C.3    11  GLN11       0.0905
      7  CD        21.6640   -4.7980    2.4000 C.2    11  GLN11       0.2608
      8  OE1       21.9300   -4.5420    3.5760 O.2    11  GLN11      -0.2717
      9  NE2       22.5630   -4.7050    1.4260 N.am   11  GLN11      -0.0878
     10  N         18.1060   -7.0890    5.8680 N.3    13  LEU13      -0.1231
     11  CA        18.6150   -6.1570    6.8590 C.3    13  LEU13       0.1693
     12  C         18.8740   -6.7260    8.2540 C.2    13  LEU13       0.2593
     13  O         20.0070   -6.6830    8.7300 O.2    13  LEU13      -0.2718
     14  CB        17.7430   -4.9010    6.9250 C.3    13  LEU13       0.0284
     15  CG        17.8260   -3.9910    5.6950 C.3    13  LEU13       0.0019
     16  CD1       16.9020   -2.7910    5.8320 C.3    13  LEU13       0.0001
     17  CD2       19.2650   -3.5510    5.4350 C.3    13  LEU13       0.0001
     18  N         17.8370   -7.2350    8.9200 N.am   14  GLY14      -0.1942
     19  CA        18.0250   -7.7480   10.2830 C.3    14  GLY14       0.2014
     20  C         17.0840   -8.8570   10.7860 C.2    14  GLY14       0.2639
     21  O         16.3670   -9.4950   10.0130 O.2    14  GLY14      -0.2714
     22  N         17.1290   -9.0670   12.1050 N.am   15  GLU15      -0.1963
     23  CA        16.3560  -10.0960   12.8080 C.3    15  GLU15       0.1733
     24  C         14.8550   -9.8540   12.8160 C.2    15  GLU15       0.2616
     25  O         14.3130   -9.1790   11.9440 O.2    15  GLU15      -0.2715
     26  CB        16.8570  -10.2110   14.2560 C.3    15  GLU15       0.0429
     27  CG        16.4860  -11.5100   14.9720 C.3    15  GLU15       0.1163
     28  CD        16.1860  -11.2990   16.4550 C.2    15  GLU15       0.3649
     29  OE1       16.2090  -10.1330   16.9090 O.co2  15  GLU15      -0.2457
     30  OE2       15.9190  -12.2980   17.1610 O.co2  15  GLU15      -0.2457
     31  N         14.1930  -10.4160   13.8240 N.am   16  GLY16      -0.1955
     32  CA        12.7510  -10.2920   13.9780 C.3    16  GLY16       0.1869
     33  C         12.1840  -11.5490   14.6410 C.2    16  GLY16       0.2309
     34  O         12.7500  -12.6370   14.5200 O.2    16  GLY16      -0.2863
     35  N         13.9710   -8.4920    8.2080 N.3    20  VAL20      -0.1245
     36  CA        13.9120   -7.1040    7.7700 C.3    20  VAL20       0.1561
     37  C         14.6670   -6.9850    6.4560 C.2    20  VAL20       0.2260
     38  O         15.8490   -7.3320    6.3720 O.2    20  VAL20      -0.2867
     39  CB        14.4830   -6.1380    8.8310 C.3    20  VAL20       0.0252
     40  CG1       14.1120   -4.7000    8.4840 C.3    20  VAL20       0.0019
     41  CG2       13.9710   -6.5030   10.2080 C.3    20  VAL20       0.0019
     42  N         12.2800    0.1390    4.6120 N.3    33  ALA33      -0.1245
     43  CA        12.5680   -1.1270    5.2540 C.3    33  ALA33       0.1562
     44  C         11.2610   -1.9000    5.2920 C.2    33  ALA33       0.2260
     45  O         10.1930   -1.3250    5.5160 O.2    33  ALA33      -0.2867
     46  CB        13.1200   -0.9050    6.6840 C.3    33  ALA33       0.0290
     47  N         10.9490    5.6570   14.3110 N.3    57  VAL57      -0.1245
     48  CA        10.8750    5.0780   12.9560 C.3    57  VAL57       0.1561
     49  C          9.4660    5.3100   12.4020 C.2    57  VAL57       0.2260
     50  O          8.4890    4.8550   12.9810 O.2    57  VAL57      -0.2867
     51  CB        11.2250    3.5600   12.9710 C.3    57  VAL57       0.0252
     52  CG1       10.8800    2.9090   11.6130 C.3    57  VAL57       0.0019
     53  CG2       12.6930    3.3490   13.3100 C.3    57  VAL57       0.0019
     54  N          8.3910    0.4450    6.6650 N.3    69  LEU69      -0.1231
     55  CA         8.9240    1.4450    7.5820 C.3    69  LEU69       0.1693
     56  C         10.0370    2.3280    7.0450 C.2    69  LEU69       0.2592
     57  O         10.7330    1.9780    6.0950 O.2    69  LEU69      -0.2718
     58  CB         9.4190    0.7420    8.8460 C.3    69  LEU69       0.0284
     59  CG         8.4960   -0.3450    9.4090 C.3    69  LEU69       0.0019
     60  CD1        9.3070   -1.4950   10.0300 C.3    69  LEU69       0.0001
     61  CD2        7.5350    0.2570   10.4140 C.3    69  LEU69       0.0001
     62  N         10.2430    3.4540    7.7210 N.am   70  GLU70      -0.1966
     63  CA        11.3060    4.3810    7.3680 C.3    70  GLU70       0.1733
     64  C         12.6490    3.6610    7.4580 C.2    70  GLU70       0.2616
     65  O         12.9630    3.0390    8.4800 O.2    70  GLU70      -0.2715
     66  CB        11.2800    5.5950    8.3140 C.3    70  GLU70       0.0429
     67  CG        12.5590    6.4040    8.3330 C.3    70  GLU70       0.1163
     68  CD        12.5270    7.5250    9.3630 C.2    70  GLU70       0.3649
     69  OE1       11.6400    7.5040   10.2390 O.co2  70  GLU70      -0.2457
     70  OE2       13.3930    8.4230    9.3000 O.co2  70  GLU70      -0.2457
     71  N         13.4180    3.6980    6.3720 N.am   71  TYR71      -0.1960
     72  CA        14.7130    3.0290    6.3200 C.3    71  TYR71       0.1771
     73  C         15.7850    3.8120    7.0510 C.2    71  TYR71       0.2620
     74  O         15.9730    4.9960    6.8010 O.2    71  TYR71      -0.2715
     75  CB        15.1470    2.8230    4.8620 C.3    71  TYR71       0.0574
     76  CG        16.5460    2.2610    4.7030 C.ar   71  TYR71      -0.0198
     77  CD1       16.9340    1.0930    5.3580 C.ar   71  TYR71      -0.0009
     78  CD2       17.4720    2.8780    3.8610 C.ar   71  TYR71      -0.0009
     79  CE1       18.2070    0.5700    5.1920 C.ar   71  TYR71       0.0417
     80  CE2       18.7330    2.3620    3.6850 C.ar   71  TYR71       0.0417
     81  CZ        19.1000    1.2040    4.3480 C.ar   71  TYR71       0.1957
     82  OH        20.3680    0.6890    4.1730 O.3    71  TYR71      -0.2866
     83  N         16.5030    3.1320    7.9420 N.am   72  CYS72      -0.1954
     84  CA        17.5590    3.7600    8.7250 C.3    72  CYS72       0.1843
     85  C         18.8810    3.1320    8.3220 C.2    72  CYS72       0.2626
     86  O         19.2580    2.0680    8.8150 O.2    72  CYS72      -0.2714
     87  CB        17.2790    3.5570   10.2290 C.3    72  CYS72       0.0997
     88  SG        15.7080    4.2790   10.7710 S.3    72  CYS72      -0.0797
     89  N         19.5580    3.7740    7.3680 N.am   73  SER73      -0.1936
     90  CA        20.7940    3.2460    6.7960 C.3    73  SER73       0.2055
     91  C         21.9810    3.0880    7.7340 C.2    73  SER73       0.2644
     92  O         22.9350    2.3710    7.4180 O.2    73  SER73      -0.2714
     93  CB        21.1910    4.0610    5.5640 C.3    73  SER73       0.2130
     94  OG        21.8440    5.2570    5.9400 O.3    73  SER73      -0.2179
     95  N         21.9370    3.7680    8.8780 N.am   74  GLY74      -0.1939
     96  CA        23.0220    3.7000    9.8500 C.3    74  GLY74       0.2014
     97  C         22.9710    2.4330   10.7060 C.2    74  GLY74       0.2639
     98  O         23.8990    2.1460   11.4540 O.2    74  GLY74      -0.2714
     99  N         21.8730    1.6900   10.6170 N.am   75  GLY75      -0.1939
    100  CA        21.7520    0.4340   11.3570 C.3    75  GLY75       0.2014
    101  C         21.4970    0.6300   12.8600 C.2    75  GLY75       0.2638
    102  O         21.0280    1.6740   13.2790 O.2    75  GLY75      -0.2714
    103  N         21.8340   -0.3890   13.6460 N.am   76  GLU76      -0.1977
    104  CA        21.5830   -0.3900   15.1030 C.3    76  GLU76       0.1602
    105  C         22.5870    0.3890   15.8980 C.2    76  GLU76       0.2287
    106  O         23.7820    0.3410   15.6400 O.2    76  GLU76      -0.2864
    107  CB        21.5710   -1.8240   15.6450 C.3    76  GLU76       0.0415
    108  CG        20.3980   -2.6610   15.2040 C.3    76  GLU76       0.1163
    109  CD        20.4740   -4.0780   15.7560 C.2    76  GLU76       0.3649
    110  OE1       21.2720   -4.3190   16.6930 O.co2  76  GLU76      -0.2457
    111  OE2       19.7270   -4.9440   15.2690 O.co2  76  GLU76      -0.2457
    112  N         16.4840   -0.5730   24.1330 N.3   117  LYS117     -0.1245
    113  CA        17.8410   -1.1340   24.2110 C.3   117  LYS117      0.1561
    114  C         18.4730   -0.8060   22.8770 C.2   117  LYS117      0.2260
    115  O         17.7730   -0.4580   21.9350 O.2   117  LYS117     -0.2867
    116  CB        17.8250   -2.6620   24.4480 C.3   117  LYS117      0.0271
    117  CG        16.9460   -3.4630   23.4480 C.3   117  LYS117      0.0035
    118  CD        16.9370   -4.9680   23.8130 C.3   117  LYS117      0.0206
    119  CE        16.1970   -5.7960   22.7840 C.3   117  LYS117      0.1093
    120  NZ        16.1280   -7.2550   23.2130 N.3   117  LYS117     -0.1314
    121  N         19.6990   -2.4610   20.4720 N.3   119  GLU119     -0.1231
    122  CA        19.2700   -3.2080   19.2920 C.3   119  GLU119      0.1699
    123  C         17.9740   -2.6330   18.6970 C.2   119  GLU119      0.2592
    124  O         17.6580   -2.8830   17.5360 O.2   119  GLU119     -0.2718
    125  CB        19.0620   -4.6940   19.6350 C.3   119  GLU119      0.0402
    126  CG        20.3150   -5.3860   20.1460 C.3   119  GLU119      0.1161
    127  CD        20.4410   -5.3620   21.6780 C.2   119  GLU119      0.3649
    128  OE1       20.1590   -4.3140   22.3020 O.co2 119  GLU119     -0.2457
    129  OE2       20.8690   -6.3860   22.2510 O.co2 119  GLU119     -0.2457
    130  N         17.2260   -1.8660   19.4960 N.am  120  ASN120     -0.1974
    131  CA        15.9620   -1.2580   19.0330 C.3   120  ASN120      0.1688
    132  C         16.0420    0.2510   18.8270 C.2   120  ASN120      0.2292
    133  O         15.0140    0.9290   18.8200 O.2   120  ASN120     -0.2864
    134  CB        14.8170   -1.5630   20.0070 C.3   120  ASN120      0.1181
    135  CG        14.4340   -3.0360   20.0090 C.2   120  ASN120      0.2629
    136  OD1       14.6770   -3.7510   19.0330 O.2   120  ASN120     -0.2716
    137  ND2       13.8630   -3.4980   21.1060 N.am  120  ASN120     -0.0877
    138  N         17.7130    2.7410   16.0850 N.3   122  LEU122     -0.1245
    139  CA        18.3860    2.7560   14.7720 C.3   122  LEU122      0.1561
    140  C         18.9000    4.1260   14.4360 C.2   122  LEU122      0.2260
    141  O         18.4950    5.1130   15.0370 O.2   122  LEU122     -0.2867
    142  CB        17.4170    2.2950   13.6880 C.3   122  LEU122      0.0270
    143  CG        16.7430    0.9300   13.9080 C.3   122  LEU122      0.0019
    144  CD1       15.7190    0.6340   12.7820 C.3   122  LEU122      0.0001
    145  CD2       17.7760   -0.1920   14.0310 C.3   122  LEU122      0.0001
    146  N         12.7840    2.1790   17.4150 N.3   132  SER132     -0.1202
    147  CA        12.2490    1.1470   16.5390 C.3   132  SER132      0.2020
    148  C         11.6730   -0.0560   17.2990 C.2   132  SER132      0.2618
    149  O         11.8720   -0.2010   18.5120 O.2   132  SER132     -0.2717
    150  CB        13.4140    0.6670   15.6110 C.3   132  SER132      0.2103
    151  OG        13.0320   -0.3960   14.7520 O.3   132  SER132     -0.2182
    152  N         10.9450   -0.9080   16.5730 N.am  133  ASP133     -0.1973
    153  CA        10.4060   -2.1650   17.1230 C.3   133  ASP133      0.1709
    154  C          9.3490   -1.9780   18.2070 C.2   133  ASP133      0.2293
    155  O          9.6290   -2.1770   19.3950 O.2   133  ASP133     -0.2864
    156  CB        11.5490   -3.0570   17.6540 C.3   133  ASP133      0.1436
    157  CG        12.5020   -3.5540   16.5380 C.2   133  ASP133      0.3671
    158  OD1       13.0890   -2.7220   15.8240 O.co2 133  ASP133     -0.2456
    159  OD2       12.7300   -4.7760   16.4500 O.co2 133  ASP133     -0.2456
@<TRIPOS>BOND
     1     1     2    1
     2     2     5    1
     3     2     3    1
     4     5     6    1
     5     9     7   am
     6     3     4    2
     7     6     7    1
     8     7     8    2
     9    80    78   ar
    10    80    81   ar
    11    78    76   ar
    12    82    81    1
    13    81    79   ar
    14    42    43    1
    15    76    75    1
    16    76    77   ar
    17    75    72    1
    18    79    77   ar
    19    43    44    1
    20    43    46    1
    21    44    45    2
    22    17    15    1
    23    93    94    1
    24    93    90    1
    25    15    16    1
    26    15    14    1
    27    10    11    1
    28    57    56    2
    29    72    71    1
    30    72    73    1
    31    38    37    2
    32    71    64   am
    33    37    36    1
    34    54    55    1
    35    90    89    1
    36    90    91    1
    37    74    73    2
    38    11    14    1
    39    11    12    1
    40    56    55    1
    41    56    62   am
    42    73    83   am
    43    89    85   am
    44    63    64    1
    45    63    62    1
    46    63    66    1
    47    92    91    2
    48    64    65    2
    49    55    58    1
    50    91    95   am
    51    36    35    1
    52    36    39    1
    53    83    84    1
    54    12    13    2
    55    12    18   am
    56    66    67    1
    57    85    84    1
    58    85    86    2
    59    67    68    1
    60    40    39    1
    61    84    87    1
    62    39    41    1
    63    58    59    1
    64    95    96    1
    65    18    19    1
    66    70    68   ar
    67    68    69   ar
    68    59    60    1
    69    59    61    1
    70    96    97    1
    71    21    20    2
    72    87    88    1
    73    19    20    1
    74    99    97   am
    75    99   100    1
    76    97    98    2
    77    20    22   am
    78   100   101    1
    79    52    51    1
    80    25    24    2
    81    22    23    1
    82    49    48    1
    83    49    50    2
    84   144   143    1
    85    23    24    1
    86    23    26    1
    87    24    31   am
    88   101   102    2
    89   101   103   am
    90    48    51    1
    91    48    47    1
    92    51    53    1
    93   103   104    1
    94   142   143    1
    95   142   139    1
    96    31    32    1
    97   143   145    1
    98    32    33    1
    99    26    27    1
   100   140   139    1
   101   140   141    2
   102    34    33    2
   103   151   150    1
   104   139   138    1
   105    27    28    1
   106   104   107    1
   107   104   105    1
   108   108   107    1
   109   108   109    1
   110   111   109   ar
   111   150   147    1
   112   106   105    2
   113   109   110   ar
   114   158   157   ar
   115   159   157   ar
   116    28    29   ar
   117    28    30   ar
   118   157   156    1
   119   147   148    1
   120   147   146    1
   121   152   153    1
   122   152   148   am
   123   153   156    1
   124   153   154    1
   125   148   149    2
   126   124   123    2
   127   154   155    2
   128   123   122    1
   129   123   130   am
   130   133   132    2
   131   132   131    1
   132   131   130    1
   133   131   134    1
   134   136   135    2
   135   122   125    1
   136   122   121    1
   137   125   126    1
   138   134   135    1
   139   135   137   am
   140   126   127    1
   141   127   129   ar
   142   127   128   ar
   143   115   114    2
   144   119   120    1
   145   119   118    1
   146   114   113    1
   147   117   118    1
   148   117   116    1
   149   112   113    1
   150   113   116    1
