@<TRIPOS>MOLECULE
tmp/3paaA00.pdb
 103 100 0 0 0
SMALL
GASTEIGER

@<TRIPOS>ATOM
      1  N         25.9680   20.3910   -8.8890 N.3    13  ILE13      -0.1245
      2  CA        24.7080   19.6270   -8.8880 C.3    13  ILE13       0.1561
      3  C         23.8690   20.0100   -7.6700 C.2    13  ILE13       0.2260
      4  O         22.7280   20.4290   -7.8280 O.2    13  ILE13      -0.2867
      5  CB        24.8800   18.0460   -9.0570 C.3    13  ILE13       0.0252
      6  CG1       24.9970   17.2930   -7.7230 C.3    13  ILE13       0.0019
      7  CG2       26.0370   17.6800  -10.0190 C.3    13  ILE13       0.0019
      8  CD1       23.7080   16.5940   -7.2880 C.3    13  ILE13       0.0001
      9  N         19.5820   15.6360  -12.8660 N.3    34  GLY34      -0.1210
     10  CA        20.0450   14.3080  -13.2310 C.3    34  GLY34       0.1956
     11  C         18.9120   13.3630  -13.6360 C.2    34  GLY34       0.2611
     12  O         19.1540   12.3970  -14.3620 O.2    34  GLY34      -0.2717
     13  N         17.5630   13.6570  -13.2710 N.am   35  VAL35      -0.1979
     14  CA        16.4580   12.7040  -13.4030 C.3    35  VAL35       0.1595
     15  C         15.5810   13.0010  -14.6240 C.2    35  VAL35       0.2287
     16  O         15.6490   14.0940  -15.1960 O.2    35  VAL35      -0.2864
     17  CB        15.5710   12.6990  -12.1450 C.3    35  VAL35       0.0276
     18  CG1       16.3600   12.2140  -10.9390 C.3    35  VAL35       0.0022
     19  CG2       14.9960   14.0850  -11.8920 C.3    35  VAL35       0.0022
     20  N         30.7360   10.0670  -16.5870 N.3   130  TRP130     -0.1228
     21  CA        30.0890   10.4630  -15.3500 C.3   130  TRP130      0.1722
     22  C         31.2170   10.6860  -14.3520 C.2   130  TRP130      0.2437
     23  O         32.0890    9.8230  -14.2280 O.2   130  TRP130     -0.2733
     24  CB        29.1980    9.3040  -14.9240 C.3   130  TRP130      0.0563
     25  CG        28.3830    9.4940  -13.7270 C.ar  130  TRP130      0.0003
     26  CD1       27.5820   10.5600  -13.4250 C.ar  130  TRP130      0.0946
     27  CD2       28.2070    8.5410  -12.6650 C.ar  130  TRP130      0.0152
     28  NE1       26.9330   10.3280  -12.2240 N.ar  130  TRP130     -0.2442
     29  CE2       27.2970    9.0990  -11.7460 C.ar  130  TRP130      0.0810
     30  CE3       28.7340    7.2720  -12.4060 C.ar  130  TRP130      0.0012
     31  CZ2       26.9030    8.4310  -10.5810 C.ar  130  TRP130      0.0191
     32  CZ3       28.3310    6.6010  -11.2320 C.ar  130  TRP130      0.0001
     33  CH2       27.4330    7.1890  -10.3460 C.ar  130  TRP130      0.0015
     34  N         31.2610   11.8690  -13.6910 N.am  131  PRO131     -0.2729
     35  CA        32.3660   12.1870  -12.7950 C.3   131  PRO131      0.1401
     36  C         32.5230   11.2030  -11.6330 C.2   131  PRO131      0.2269
     37  O         33.6420   10.9910  -11.1440 O.2   131  PRO131     -0.2865
     38  CB        31.9980   13.5900  -12.2750 C.3   131  PRO131      0.0296
     39  CG        31.1930   14.1670  -13.3610 C.3   131  PRO131      0.0237
     40  CD        30.3220   13.0050  -13.7920 C.3   131  PRO131      0.0939
     41  N         26.8940    9.0160  -21.0010 N.3   183  ASN183     -0.1240
     42  CA        26.7370   10.1720  -20.1320 C.3   183  ASN183      0.1653
     43  C         28.1240   10.7830  -19.9840 C.2   183  ASN183      0.2266
     44  O         29.0350   10.1180  -19.4720 O.2   183  ASN183     -0.2867
     45  CB        26.2070    9.7150  -18.7670 C.3   183  ASN183      0.1155
     46  CG        26.0720   10.8560  -17.7540 C.2   183  ASN183      0.2627
     47  OD1       26.3080   12.0360  -18.0590 O.2   183  ASN183     -0.2716
     48  ND2       25.7070   10.5000  -16.5290 N.am  183  ASN183     -0.0877
     49  N         20.9190    3.1170  -18.5750 N.3   214  TYR214     -0.1241
     50  CA        19.8390    3.7300  -19.3560 C.3   214  TYR214      0.1605
     51  C         19.1780    2.7800  -20.3630 C.2   214  TYR214      0.2264
     52  O         18.6960    3.2170  -21.4190 O.2   214  TYR214     -0.2867
     53  CB        20.3690    5.0150  -20.0550 C.3   214  TYR214      0.0534
     54  CG        20.9240    6.0040  -19.0600 C.ar  214  TYR214     -0.0201
     55  CD1       20.0720    6.8010  -18.3010 C.ar  214  TYR214     -0.0009
     56  CD2       22.3130    6.1330  -18.8690 C.ar  214  TYR214     -0.0009
     57  CE1       20.5780    7.6930  -17.3410 C.ar  214  TYR214      0.0417
     58  CE2       22.8340    7.0250  -17.9130 C.ar  214  TYR214      0.0417
     59  CZ        21.9530    7.7960  -17.1540 C.ar  214  TYR214      0.1957
     60  OH        22.4460    8.6720  -16.2160 O.3   214  TYR214     -0.2866
     61  N         16.6740    5.0890  -13.5030 N.3   246  LYS246     -0.1301
     62  CA        16.0300    5.8400  -14.5650 C.3   246  LYS246      0.1247
     63  C         14.9390    4.9760  -15.2550 C.3   246  LYS246      0.2009
     64  O         13.8910    5.5330  -15.3160 O.3   246  LYS246     -0.2188
     65  CB        16.9790    6.3930  -15.6080 C.3   246  LYS246      0.0218
     66  CG        17.5590    7.7310  -15.2350 C.3   246  LYS246      0.0031
     67  CD        18.6040    7.6920  -14.1530 C.3   246  LYS246      0.0205
     68  CE        19.2760    9.0470  -13.9220 C.3   246  LYS246      0.1093
     69  NZ        20.2420    9.0830  -12.8760 N.3   246  LYS246     -0.1314
     70  N         14.8980    5.7920   -8.5960 N.3   251  TYR251     -0.1241
     71  CA        16.1100    6.4550   -8.0930 C.3   251  TYR251      0.1605
     72  C         16.4340    6.1810   -6.6280 C.2   251  TYR251      0.2264
     73  O         17.4680    5.5970   -6.3140 O.2   251  TYR251     -0.2867
     74  CB        15.9890    7.9720   -8.2900 C.3   251  TYR251      0.0534
     75  CG        15.5040    8.3660   -9.6720 C.ar  251  TYR251     -0.0201
     76  CD1       16.4070    8.5380  -10.7330 C.ar  251  TYR251     -0.0009
     77  CD2       14.1480    8.5670   -9.9220 C.ar  251  TYR251     -0.0009
     78  CE1       15.9620    8.8970  -12.0190 C.ar  251  TYR251      0.0417
     79  CE2       13.6860    8.9340  -11.2080 C.ar  251  TYR251      0.0417
     80  CZ        14.6010    9.0970  -12.2410 C.ar  251  TYR251      0.1957
     81  OH        14.1620    9.4590  -13.4920 O.3   251  TYR251     -0.2866
     82  N         20.9550   13.2150  -21.9260 N.3   348  PHE348     -0.1241
     83  CA        22.0870   14.1610  -21.8370 C.3   348  PHE348      0.1605
     84  C         22.7730   14.4160  -23.1630 C.2   348  PHE348      0.2264
     85  O         22.9760   13.4860  -23.9640 O.2   348  PHE348     -0.2867
     86  CB        23.1480   13.6610  -20.8460 C.3   348  PHE348      0.0534
     87  CG        22.6270   13.4550  -19.4590 C.ar  348  PHE348     -0.0203
     88  CD1       22.1200   14.5250  -18.7270 C.ar  348  PHE348     -0.0042
     89  CD2       22.6360   12.1900  -18.8900 C.ar  348  PHE348     -0.0042
     90  CE1       21.6230   14.3320  -17.4230 C.ar  348  PHE348     -0.0003
     91  CE2       22.1380   11.9790  -17.6140 C.ar  348  PHE348     -0.0003
     92  CZ        21.6370   13.0550  -16.8700 C.ar  348  PHE348     -0.0000
     93  N         26.7370   20.4220  -20.4740 N.3   374  ARG374     -0.1245
     94  CA        25.8040   19.2960  -20.5330 C.3   374  ARG374      0.1563
     95  C         24.4100   19.7540  -20.1420 C.2   374  ARG374      0.2260
     96  O         24.2300   20.4390  -19.1340 O.2   374  ARG374     -0.2867
     97  CB        26.2040   18.1660  -19.5970 C.3   374  ARG374      0.0307
     98  CG        25.2270   16.9800  -19.7130 C.3   374  ARG374      0.0489
     99  CD        25.3830   16.0030  -18.5850 C.3   374  ARG374      0.2205
    100  NE        24.6490   16.3940  -17.3840 N.pl3 374  ARG374     -0.0865
    101  CZ        24.5060   15.6130  -16.3210 C.cat 374  ARG374      0.5346
    102  NH1       25.0430   14.3990  -16.3280 N.pl3 374  ARG374      0.1354
    103  NH2       23.8240   16.0340  -15.2610 N.pl3 374  ARG374      0.1354
@<TRIPOS>BOND
     1    85    84    2
     2    84    83    1
     3    82    83    1
     4    83    86    1
     5    52    51    2
     6    41    42    1
     7    86    87    1
     8    94    93    1
     9    94    95    1
    10    94    97    1
    11    51    50    1
    12    95    96    2
    13    42    43    1
    14    42    45    1
    15    53    50    1
    16    53    54    1
    17    43    44    2
    18    98    97    1
    19    98    99    1
    20    87    89   ar
    21    87    88   ar
    22    50    49    1
    23    54    56   ar
    24    54    55   ar
    25    89    91   ar
    26    56    58   ar
    27    45    46    1
    28    88    90   ar
    29    99   100    1
    30    55    57   ar
    31    47    46    2
    32    58    59   ar
    33    46    48   am
    34    91    92   ar
    35    90    92   ar
    36   100   101    2
    37    57    59   ar
    38    59    60    1
    39    20    21    1
    40   102   101    1
    41   101   103    1
    42    65    66    1
    43    65    62    1
    44    21    24    1
    45    21    22    1
    46    64    63    1
    47    63    62    1
    48    66    67    1
    49    16    15    2
    50    24    25    1
    51    15    14    1
    52    62    61    1
    53    12    11    2
    54    22    23    2
    55    22    34   am
    56    67    68    1
    57    68    69    1
    58    40    34    1
    59    40    39    1
    60    25    26   ar
    61    25    27   ar
    62    34    35    1
    63    11    13   am
    64    11    10    1
    65    81    80    1
    66    26    28   ar
    67    14    13    1
    68    14    17    1
    69    39    38    1
    70    10     9    1
    71    35    38    1
    72    35    36    1
    73    27    30   ar
    74    27    29   ar
    75    30    32   ar
    76    80    78   ar
    77    80    79   ar
    78    28    29   ar
    79    17    19    1
    80    17    18    1
    81    78    76   ar
    82    29    31   ar
    83    36    37    2
    84    32    33   ar
    85    79    77   ar
    86    76    75   ar
    87    31    33   ar
    88     7     5    1
    89    77    75   ar
    90    75    74    1
    91     5     2    1
    92     5     6    1
    93     1     2    1
    94     2     3    1
    95    70    71    1
    96    74    71    1
    97    71    72    1
    98     4     3    2
    99     6     8    1
   100    72    73    2
