@<TRIPOS>MOLECULE
tmp/3paeA00.pdb
 164 162 0 0 0
SMALL
GASTEIGER

@<TRIPOS>ATOM
      1  N         26.1110  -48.0190    2.9160 N.3    49  ALA49      -0.1231
      2  CA        26.9400  -48.9650    3.6290 C.3    49  ALA49       0.1694
      3  C         26.3240  -49.3940    4.9420 C.2    49  ALA49       0.2592
      4  O         25.1950  -49.7550    4.9480 O.2    49  ALA49      -0.2718
      5  CB        28.3460  -48.4600    3.7880 C.3    49  ALA49       0.0304
      6  N         27.0280  -49.3080    6.0440 N.am   50  SER50      -0.1952
      7  CA        26.5050  -49.7910    7.3100 C.3    50  SER50       0.1924
      8  C         25.5260  -48.8080    7.9550 C.2    50  SER50       0.2314
      9  O         24.9250  -49.1310    8.9220 O.2    50  SER50      -0.2863
     10  CB        27.5850  -50.2160    8.3340 C.3    50  SER50       0.2116
     11  OG        28.5470  -51.0980    7.8370 O.3    50  SER50      -0.2180
     12  N         36.5480  -59.8330   10.3770 N.3    81  TYR81      -0.1241
     13  CA        37.1150  -59.2900   11.6230 C.3    81  TYR81       0.1605
     14  C         36.8610  -60.2510   12.7590 C.2    81  TYR81       0.2264
     15  O         35.7210  -60.6820   12.9520 O.2    81  TYR81      -0.2867
     16  CB        36.5240  -57.8970   11.9510 C.3    81  TYR81       0.0534
     17  CG        36.6370  -56.9460   10.7800 C.ar   81  TYR81      -0.0201
     18  CD1       37.8290  -56.2250   10.5430 C.ar   81  TYR81      -0.0009
     19  CD2       35.5880  -56.8030    9.8770 C.ar   81  TYR81      -0.0009
     20  CE1       37.9450  -55.3680    9.4360 C.ar   81  TYR81       0.0417
     21  CE2       35.6930  -55.9530    8.7790 C.ar   81  TYR81       0.0417
     22  CZ        36.8740  -55.2420    8.5640 C.ar   81  TYR81       0.1957
     23  OH        36.9690  -54.4240    7.4650 O.3    81  TYR81      -0.2866
     24  N         36.6010  -59.8410   15.8160 N.3    83  MET83      -0.1230
     25  CA        35.5540  -59.3260   16.7230 C.3    83  MET83       0.1702
     26  C         34.1140  -59.7620   16.3270 C.2    83  MET83       0.2592
     27  O         33.2020  -59.7510   17.1590 O.2    83  MET83      -0.2718
     28  CB        35.6310  -57.8000   16.8190 C.3    83  MET83       0.0401
     29  CG        35.3730  -57.0710   15.4670 C.3    83  MET83       0.0596
     30  SD        34.9330  -55.2900   15.5640 S.3    83  MET83      -0.1393
     31  CE        36.5060  -54.5860   16.1070 C.3    83  MET83       0.0692
     32  N         33.9070  -60.1280   15.0590 N.am   84  TRP84      -0.1976
     33  CA        32.5760  -60.5620   14.6060 C.3    84  TRP84       0.1640
     34  C         32.3340  -62.0630   14.8250 C.2    84  TRP84       0.2290
     35  O         31.2510  -62.5510   14.5390 O.2    84  TRP84      -0.2864
     36  CB        32.3450  -60.2560   13.1320 C.3    84  TRP84       0.0576
     37  CG        32.2810  -58.7810   12.7440 C.ar   84  TRP84       0.0006
     38  CD1       32.1700  -57.6960   13.5730 C.ar   84  TRP84       0.0946
     39  CD2       32.2780  -58.2600   11.4040 C.ar   84  TRP84       0.0152
     40  NE1       32.1060  -56.5420   12.8350 N.ar   84  TRP84      -0.2442
     41  CE2       32.1890  -56.8570   11.5020 C.ar   84  TRP84       0.0810
     42  CE3       32.3760  -58.8510   10.1280 C.ar   84  TRP84       0.0012
     43  CZ2       32.1690  -56.0330   10.3770 C.ar   84  TRP84       0.0191
     44  CZ3       32.3460  -58.0490    9.0160 C.ar   84  TRP84       0.0001
     45  CH2       32.2310  -56.6400    9.1410 C.ar   84  TRP84       0.0015
     46  N         26.8580  -51.7200   17.3650 N.3    95  ALA95      -0.1231
     47  CA        28.1320  -51.1070   17.8170 C.3    95  ALA95       0.1694
     48  C         29.3280  -51.6450   17.0200 C.2    95  ALA95       0.2592
     49  O         30.2330  -50.9030   16.6480 O.2    95  ALA95      -0.2718
     50  CB        28.3440  -51.3210   19.3490 C.3    95  ALA95       0.0304
     51  N         29.3090  -52.9400   16.7150 N.am   96  LEU96      -0.1966
     52  CA        30.4150  -53.5340   16.0080 C.3    96  LEU96       0.1728
     53  C         30.2970  -53.4500   14.5030 C.2    96  LEU96       0.2616
     54  O         31.2230  -53.9040   13.8190 O.2    96  LEU96      -0.2715
     55  CB        30.5890  -55.0030   16.4050 C.3    96  LEU96       0.0311
     56  CG        30.8880  -55.3340   17.8700 C.3    96  LEU96       0.0022
     57  CD1       31.1940  -56.8380   18.0470 C.3    96  LEU96       0.0001
     58  CD2       32.0210  -54.4850   18.4620 C.3    96  LEU96       0.0001
     59  N         29.1930  -52.8960   13.9820 N.am   97  SER97      -0.1950
     60  CA        28.8650  -52.9520   12.5470 C.3    97  SER97       0.1924
     61  C         28.9950  -54.3600   11.9350 C.2    97  SER97       0.2314
     62  O         29.5150  -54.5220   10.8110 O.2    97  SER97      -0.2863
     63  CB        29.7540  -52.0140   11.7290 C.3    97  SER97       0.2116
     64  OG        29.1950  -50.7400   11.5680 O.3    97  SER97      -0.2180
     65  N         28.1550  -56.9110    9.8250 N.3    99  VAL99      -0.1245
     66  CA        27.3020  -57.1320    8.6690 C.3    99  VAL99       0.1561
     67  C         26.6510  -58.5440    8.5930 C.2    99  VAL99       0.2260
     68  O         25.5010  -58.6440    8.1520 O.2    99  VAL99      -0.2867
     69  CB        27.9810  -56.7090    7.3100 C.3    99  VAL99       0.0252
     70  CG1       29.1290  -57.6190    6.9500 C.3    99  VAL99       0.0019
     71  CG2       26.9470  -56.6600    6.1530 C.3    99  VAL99       0.0019
     72  N         22.6560  -52.5540    0.1890 N.3   136  TRP136     -0.1227
     73  CA        23.0950  -51.3410    0.8860 C.3   136  TRP136      0.1737
     74  C         24.6020  -51.2160    0.8230 C.2   136  TRP136      0.2595
     75  O         25.1580  -50.2380    1.2850 O.2   136  TRP136     -0.2718
     76  CB        22.5940  -51.3000    2.3390 C.3   136  TRP136      0.0564
     77  CG        23.1030  -52.4140    3.2150 C.ar  136  TRP136      0.0003
     78  CD1       24.1520  -52.3650    4.0700 C.ar  136  TRP136      0.0946
     79  CD2       22.5420  -53.7500    3.3390 C.ar  136  TRP136      0.0152
     80  NE1       24.3110  -53.5940    4.7140 N.ar  136  TRP136     -0.2442
     81  CE2       23.3290  -54.4500    4.2890 C.ar  136  TRP136      0.0810
     82  CE3       21.4420  -54.4050    2.7480 C.ar  136  TRP136      0.0012
     83  CZ2       23.0670  -55.7860    4.6540 C.ar  136  TRP136      0.0191
     84  CZ3       21.1740  -55.7390    3.1090 C.ar  136  TRP136      0.0001
     85  CH2       21.9920  -56.4100    4.0630 C.ar  136  TRP136      0.0015
     86  N         25.2570  -52.2100    0.2220 N.am  137  LEU137     -0.1980
     87  CA        26.7160  -52.2870    0.2190 C.3   137  LEU137      0.1596
     88  C         27.3080  -51.9140   -1.1330 C.2   137  LEU137      0.2287
     89  O         28.3210  -51.2370   -1.2050 O.2   137  LEU137     -0.2864
     90  CB        27.1980  -53.6940    0.6190 C.3   137  LEU137      0.0297
     91  CG        26.7330  -54.1630    2.0050 C.3   137  LEU137      0.0022
     92  CD1       27.0380  -55.6340    2.2580 C.3   137  LEU137      0.0001
     93  CD2       27.3390  -53.3070    3.1010 C.3   137  LEU137      0.0001
     94  N         28.2130  -45.5210   12.2670 N.3   188  SER188     -0.1202
     95  CA        29.3070  -45.3550   11.3110 C.3   188  SER188      0.2020
     96  C         29.0550  -46.1880   10.0510 C.2   188  SER188      0.2619
     97  O         28.1980  -47.0720   10.0420 O.2   188  SER188     -0.2717
     98  CB        30.6540  -45.6960   11.9370 C.3   188  SER188      0.2103
     99  OG        30.7510  -47.1030   12.2200 O.3   188  SER188     -0.2182
    100  N         29.7960  -45.8780    8.9840 N.am  189  GLY189     -0.1942
    101  CA        29.6560  -46.5860    7.7260 C.3   189  GLY189      0.2014
    102  C         31.0060  -46.5430    7.0340 C.2   189  GLY189      0.2639
    103  O         31.7550  -45.5580    7.1610 O.2   189  GLY189     -0.2714
    104  N         31.3380  -47.6350    6.3490 N.am  190  TRP190     -0.1959
    105  CA        32.5870  -47.7310    5.6250 C.3   190  TRP190      0.1771
    106  C         32.3380  -48.7020    4.4780 C.2   190  TRP190      0.2620
    107  O         32.3660  -49.9050    4.6610 O.2   190  TRP190     -0.2715
    108  CB        33.7100  -48.2140    6.5510 C.3   190  TRP190      0.0590
    109  CG        35.0840  -48.1160    5.9470 C.ar  190  TRP190      0.0006
    110  CD1       35.3970  -47.9590    4.6050 C.ar  190  TRP190      0.0946
    111  CD2       36.3370  -48.2280    6.6400 C.ar  190  TRP190      0.0152
    112  NE1       36.7600  -47.9320    4.4490 N.ar  190  TRP190     -0.2442
    113  CE2       37.3620  -48.0860    5.6740 C.ar  190  TRP190      0.0810
    114  CE3       36.6960  -48.4140    7.9900 C.ar  190  TRP190      0.0012
    115  CZ2       38.7200  -48.1440    6.0090 C.ar  190  TRP190      0.0191
    116  CZ3       38.0640  -48.4590    8.3280 C.ar  190  TRP190      0.0001
    117  CH2       39.0540  -48.3190    7.3420 C.ar  190  TRP190      0.0015
    118  N         32.0520  -48.1590    3.3050 N.am  191  GLY191     -0.1940
    119  CA        31.7300  -48.9550    2.1570 C.3   191  GLY191      0.2014
    120  C         32.9700  -49.3230    1.3830 C.2   191  GLY191      0.2638
    121  O         33.5000  -48.5010    0.6380 O.2   191  GLY191     -0.2714
    122  N         33.4090  -50.5700    1.5290 N.am  192  MET192     -0.1976
    123  CA        34.6080  -51.0700    0.8510 C.3   192  MET192      0.1605
    124  C         34.2940  -51.8280   -0.4320 C.2   192  MET192      0.2287
    125  O         35.1930  -52.1920   -1.1660 O.2   192  MET192     -0.2864
    126  CB        35.4480  -51.9240    1.7900 C.3   192  MET192      0.0413
    127  CG        35.6270  -51.3130    3.1430 C.3   192  MET192      0.0598
    128  SD        36.8890  -52.2110    4.0010 S.3   192  MET192     -0.1393
    129  CE        36.7250  -51.6070    5.6650 C.3   192  MET192      0.0692
    130  N         42.6430  -45.0200    9.2300 N.3   226  SER226     -0.1202
    131  CA        41.9510  -45.5700   10.3700 C.3   226  SER226      0.2020
    132  C         40.4840  -45.0900   10.3700 C.2   226  SER226      0.2619
    133  O         40.1980  -43.9100   10.0930 O.2   226  SER226     -0.2717
    134  CB        42.6550  -45.1360   11.6460 C.3   226  SER226      0.2103
    135  OG        41.8020  -45.3460   12.7620 O.3   226  SER226     -0.2182
    136  N         39.5630  -46.0100   10.6730 N.am  227  GLY227     -0.1942
    137  CA        38.1280  -45.7240   10.7130 C.3   227  GLY227      0.2014
    138  C         37.7810  -44.6560   11.7330 C.2   227  GLY227      0.2639
    139  O         36.7980  -43.9170   11.5920 O.2   227  GLY227     -0.2714
    140  N         38.6210  -44.5340   12.7440 N.am  228  SER228     -0.1949
    141  CA        38.3740  -43.5960   13.8290 C.3   228  SER228      0.1924
    142  C         38.5450  -42.1210   13.4090 C.2   228  SER228      0.2314
    143  O         38.1610  -41.2250   14.1500 O.2   228  SER228     -0.2863
    144  CB        39.2960  -43.9290   15.0010 C.3   228  SER228      0.2116
    145  OG        40.6320  -43.7660   14.5750 O.3   228  SER228     -0.2180
    146  N         36.7590  -40.7900   11.2150 N.3   230  ARG230     -0.1231
    147  CA        35.3810  -40.3510   11.0170 C.3   230  ARG230      0.1694
    148  C         34.8750  -39.7170   12.3150 C.2   230  ARG230      0.2592
    149  O         34.3710  -38.5970   12.3170 O.2   230  ARG230     -0.2718
    150  CB        34.4770  -41.5030   10.5820 C.3   230  ARG230      0.0321
    151  CG        34.7500  -42.0230    9.1870 C.3   230  ARG230      0.0489
    152  CD        34.1730  -43.4130    8.9730 C.3   230  ARG230      0.2205
    153  NE        34.6070  -44.3240   10.0420 N.pl3 230  ARG230     -0.0865
    154  CZ        34.1670  -45.5730   10.1700 C.cat 230  ARG230      0.5346
    155  NH1       34.5930  -46.3160   11.1890 N.pl3 230  ARG230      0.1354
    156  NH2       33.2910  -46.0750    9.2840 N.pl3 230  ARG230      0.1354
    157  N         35.0750  -40.4320   13.4200 N.am  231  ASN231     -0.1974
    158  CA        34.7830  -39.9260   14.7570 C.3   231  ASN231      0.1688
    159  C         35.5890  -38.6960   15.1760 C.2   231  ASN231      0.2292
    160  O         35.0430  -37.7520   15.7570 O.2   231  ASN231     -0.2864
    161  CB        34.9810  -41.0540   15.7810 C.3   231  ASN231      0.1181
    162  CG        34.1230  -42.2450   15.4700 C.2   231  ASN231      0.2629
    163  OD1       34.4330  -43.0080   14.5520 O.2   231  ASN231     -0.2716
    164  ND2       33.0080  -42.3890   16.1880 N.am  231  ASN231     -0.0877
@<TRIPOS>BOND
     1    89    88    2
     2   125   124    2
     3    88    87    1
     4   124   123    1
     5    72    73    1
     6    87    86    1
     7    87    90    1
     8    86    74   am
     9    90    91    1
    10   121   120    2
    11    74    73    1
    12    74    75    2
    13   123   122    1
    14   123   126    1
    15    73    76    1
    16   120   122   am
    17   120   119    1
    18   126   127    1
    19    91    92    1
    20    91    93    1
    21   119   118    1
    22    76    77    1
    23    82    84   ar
    24    82    79   ar
    25     1     2    1
    26    84    85   ar
    27   127   128    1
    28    77    79   ar
    29    77    78   ar
    30   118   106   am
    31    79    81   ar
    32     2     5    1
    33     2     3    1
    34   128   129    1
    35    85    83   ar
    36    78    80   ar
    37    81    83   ar
    38    81    80   ar
    39   112   110   ar
    40   112   113   ar
    41   106   107    2
    42   106   105    1
    43   110   109   ar
    44     3     4    2
    45     3     6   am
    46   105   104    1
    47   105   108    1
    48   113   115   ar
    49   113   111   ar
    50   109   108    1
    51   109   111   ar
    52   115   117   ar
    53     6     7    1
    54    71    69    1
    55   104   102   am
    56   111   114   ar
    57    70    69    1
    58   102   103    2
    59   102   101    1
    60    69    66    1
    61     7     8    1
    62     7    10    1
    63   117   116   ar
    64    23    22    1
    65   101   100    1
    66    11    10    1
    67     8     9    2
    68   114   116   ar
    69    68    67    2
    70    22    21   ar
    71    22    20   ar
    72    67    66    1
    73    66    65    1
    74    21    19   ar
    75   152   151    1
    76   152   153    1
    77   100    96   am
    78    44    45   ar
    79    44    42   ar
    80    45    43   ar
    81   151   150    1
    82   130   131    1
    83   156   154    1
    84    20    18   ar
    85    19    17   ar
    86    97    96    2
    87   153   154    2
    88    96    95    1
    89   133   132    2
    90    42    39   ar
    91   154   155    1
    92   131   132    1
    93   131   134    1
    94   132   136   am
    95    43    41   ar
    96    12    13    1
    97    18    17   ar
    98   150   147    1
    99   136   137    1
   100   137   138    1
   101    17    16    1
   102    62    61    2
   103   147   146    1
   104   147   148    1
   105    95    98    1
   106    95    94    1
   107    39    41   ar
   108    39    37   ar
   109    41    40   ar
   110    64    63    1
   111   139   138    2
   112    13    16    1
   113    13    14    1
   114   134   135    1
   115    63    60    1
   116   138   140   am
   117    61    60    1
   118    98    99    1
   119   148   149    2
   120   148   157   am
   121    60    59    1
   122   140   141    1
   123    37    36    1
   124    37    38   ar
   125    14    15    2
   126    40    38   ar
   127    36    33    1
   128   142   141    1
   129   142   143    2
   130   157   158    1
   131    54    53    2
   132   141   144    1
   133    59    53   am
   134    53    52    1
   135    35    34    2
   136   163   162    2
   137   145   144    1
   138    33    34    1
   139    33    32    1
   140   158   159    1
   141   158   161    1
   142    32    26   am
   143   159   160    2
   144    29    30    1
   145    29    28    1
   146   162   161    1
   147   162   164   am
   148    30    31    1
   149    24    25    1
   150    52    55    1
   151    52    51    1
   152    26    25    1
   153    26    27    2
   154    55    56    1
   155    49    48    2
   156    51    48   am
   157    25    28    1
   158    48    47    1
   159    46    47    1
   160    47    50    1
   161    56    57    1
   162    56    58    1
