@<TRIPOS>MOLECULE
tmp/3pahA00.pdb
 115 114 0 0 0
SMALL
GASTEIGER

@<TRIPOS>ATOM
      1  N        -10.0110   18.1820    5.5920 N.3   132  LEU132     -0.1231
      2  CA       -10.0640   19.6330    5.6260 C.3   132  LEU132      0.1693
      3  C        -10.9820   20.2000    6.6850 C.2   132  LEU132      0.2591
      4  O        -12.1830   19.9460    6.6690 O.2   132  LEU132     -0.2718
      5  CB       -10.4850   20.1340    4.2340 C.3   132  LEU132      0.0284
      6  CG       -10.3710   21.6350    3.9690 C.3   132  LEU132      0.0019
      7  CD1       -8.8720   22.0290    3.9890 C.3   132  LEU132      0.0001
      8  CD2      -10.9930   21.9610    2.5700 C.3   132  LEU132      0.0001
      9  N        -10.4250   20.9890    7.6020 N.am  133  LEU133     -0.1980
     10  CA       -11.2520   21.6060    8.6540 C.3   133  LEU133      0.1596
     11  C        -11.7740   22.9240    8.1340 C.2   133  LEU133      0.2287
     12  O        -11.1170   23.5410    7.3160 O.2   133  LEU133     -0.2864
     13  CB       -10.4050   21.9400    9.9140 C.3   133  LEU133      0.0297
     14  CG       -10.0230   20.8190   10.8950 C.3   133  LEU133      0.0022
     15  CD1       -8.9580   21.2630   11.8770 C.3   133  LEU133      0.0001
     16  CD2      -11.2770   20.4040   11.6440 C.3   133  LEU133      0.0001
     17  N        -12.2770   26.9600    8.1630 N.3   135  SER135     -0.1217
     18  CA       -11.3160   27.9710    8.6580 C.3   135  SER135      0.1889
     19  C        -11.6510   28.2570   10.1250 C.2   135  SER135      0.2288
     20  O        -10.7510   28.4520   10.9660 O.2   135  SER135     -0.2866
     21  CB       -11.4010   29.2900    7.8360 C.3   135  SER135      0.2089
     22  OG       -10.9690   29.0570    6.4980 O.3   135  SER135     -0.2183
     23  N        -10.1490   25.3630   12.2990 N.3   138  PHE138     -0.1241
     24  CA        -8.7060   25.3850   12.2110 C.3   138  PHE138      0.1605
     25  C         -8.0860   26.5480   13.0380 C.2   138  PHE138      0.2264
     26  O         -7.1560   26.3390   13.8670 O.2   138  PHE138     -0.2867
     27  CB        -8.2420   25.5030   10.7470 C.3   138  PHE138      0.0534
     28  CG        -6.7440   25.4980   10.6120 C.ar  138  PHE138     -0.0203
     29  CD1       -6.0240   24.3050   10.7520 C.ar  138  PHE138     -0.0042
     30  CD2       -6.0370   26.7100   10.5390 C.ar  138  PHE138     -0.0042
     31  CE1       -4.5940   24.3210   10.8420 C.ar  138  PHE138     -0.0003
     32  CE2       -4.6340   26.7390   10.6290 C.ar  138  PHE138     -0.0003
     33  CZ        -3.9130   25.5420   10.7830 C.ar  138  PHE138     -0.0000
     34  N         -1.9720   23.0030   16.9270 N.3   147  PHE147     -0.1241
     35  CA        -1.8770   23.0520   15.4540 C.3   147  PHE147      0.1605
     36  C         -2.3610   21.7100   14.8750 C.2   147  PHE147      0.2264
     37  O         -1.7610   20.6830   15.1780 O.2   147  PHE147     -0.2867
     38  CB        -0.4170   23.2810   15.0180 C.3   147  PHE147      0.0534
     39  CG        -0.2670   23.3990   13.5290 C.ar  147  PHE147     -0.0203
     40  CD1       -0.9030   24.4360   12.8560 C.ar  147  PHE147     -0.0042
     41  CD2        0.4350   22.4510   12.8110 C.ar  147  PHE147     -0.0042
     42  CE1       -0.8420   24.5210   11.4270 C.ar  147  PHE147     -0.0003
     43  CE2        0.5070   22.5190   11.3880 C.ar  147  PHE147     -0.0003
     44  CZ        -0.1260   23.5390   10.7210 C.ar  147  PHE147     -0.0000
     45  N         -1.8460   20.3070    1.9330 N.3   165  PRO165     -0.2116
     46  CA        -0.7720   20.1640    2.9090 C.3   165  PRO165      0.1372
     47  C         -0.5310   18.6610    3.0830 C.2   165  PRO165      0.2244
     48  O         -1.4460   17.8380    2.8650 O.2   165  PRO165     -0.2868
     49  CB        -1.3720   20.7960    4.1830 C.3   165  PRO165      0.0268
     50  CG        -2.7650   20.5560    4.0830 C.3   165  PRO165      0.0207
     51  CD        -3.0430   20.8890    2.5670 C.3   165  PRO165      0.0892
     52  N          5.1340   19.4760    4.2020 N.3   169  HIS169     -0.1226
     53  CA         4.7880   20.8910    4.3880 C.3   169  HIS169      0.1752
     54  C          4.6400   21.2160    5.8890 C.2   169  HIS169      0.2595
     55  O          5.0870   22.2740    6.3370 O.2   169  HIS169     -0.2718
     56  CB         3.4540   21.1740    3.6690 C.3   169  HIS169      0.0759
     57  CG         2.8090   22.4690    4.0680 C.ar  169  HIS169      0.0818
     58  ND1        3.2210   23.6790    3.5610 N.ar  169  HIS169     -0.2268
     59  CD2        1.7410   22.7350    4.8790 C.ar  169  HIS169      0.1154
     60  CE1        2.4310   24.6360    4.0310 C.ar  169  HIS169      0.1986
     61  NE2        1.5280   24.0900    4.8310 N.ar  169  HIS169     -0.2212
     62  N          4.0090   20.3370    6.6800 N.am  170  GLU170     -0.1979
     63  CA         3.8520   20.6430    8.1060 C.3   170  GLU170      0.1602
     64  C          5.2010   20.7200    8.8210 C.2   170  GLU170      0.2287
     65  O          5.4720   21.6680    9.5480 O.2   170  GLU170     -0.2864
     66  CB         3.0190   19.5470    8.8580 C.3   170  GLU170      0.0415
     67  CG         1.7330   19.0340    8.1560 C.3   170  GLU170      0.1163
     68  CD         0.6080   20.1120    8.0610 C.2   170  GLU170      0.3649
     69  OE1        0.9050   21.3100    8.0270 O.co2 170  GLU170     -0.2457
     70  OE2       -0.5700   19.7510    8.0160 O.co2 170  GLU170     -0.2457
     71  N          5.7990   24.5500    8.7570 N.3   174  HIS174     -0.1241
     72  CA         5.2050   25.1440    9.9560 C.3   174  HIS174      0.1621
     73  C          5.9550   24.9550   11.2810 C.2   174  HIS174      0.2264
     74  O          6.1330   25.9170   12.0390 O.2   174  HIS174     -0.2867
     75  CB         3.8170   24.5460   10.1930 C.3   174  HIS174      0.0745
     76  CG         2.7710   25.0500    9.2570 C.ar  174  HIS174      0.0817
     77  ND1        2.2260   26.3120    9.3770 N.ar  174  HIS174     -0.2268
     78  CD2        2.1520   24.4630    8.1920 C.ar  174  HIS174      0.1154
     79  CE1        1.3150   26.4870    8.4330 C.ar  174  HIS174      0.1986
     80  NE2        1.2500   25.3880    7.7010 N.ar  174  HIS174     -0.2212
     81  N         -4.1560   35.0540    7.8880 N.3   209  TYR209     -0.1227
     82  CA        -3.3410   33.8380    8.1340 C.3   209  TYR209      0.1736
     83  C         -2.5570   33.4470    6.8530 C.2   209  TYR209      0.2595
     84  O         -1.3330   33.1430    6.8740 O.2   209  TYR209     -0.2718
     85  CB        -4.2730   32.6930    8.5520 C.3   209  TYR209      0.0548
     86  CG        -3.5980   31.3570    8.7400 C.ar  209  TYR209     -0.0200
     87  CD1       -3.4110   30.5210    7.6540 C.ar  209  TYR209     -0.0009
     88  CD2       -3.1810   30.9180    9.9950 C.ar  209  TYR209     -0.0009
     89  CE1       -2.8070   29.2300    7.7950 C.ar  209  TYR209      0.0417
     90  CE2       -2.5830   29.6190   10.1530 C.ar  209  TYR209      0.0417
     91  CZ        -2.4100   28.8080    9.0610 C.ar  209  TYR209      0.1957
     92  OH        -1.8590   27.5500    9.1780 O.3   209  TYR209     -0.2866
     93  N         -3.2580   33.4550    5.7240 N.am  210  TRP210     -0.1976
     94  CA        -2.6190   33.1230    4.4510 C.3   210  TRP210      0.1640
     95  C         -1.4470   34.0170    4.1590 C.2   210  TRP210      0.2290
     96  O         -0.3830   33.5150    3.7170 O.2   210  TRP210     -0.2864
     97  CB        -3.5970   33.2830    3.2910 C.3   210  TRP210      0.0576
     98  CG        -3.0480   32.8060    1.9920 C.ar  210  TRP210      0.0006
     99  CD1       -2.5390   33.5710    0.9510 C.ar  210  TRP210      0.0946
    100  CD2       -3.0090   31.4520    1.5530 C.ar  210  TRP210      0.0152
    101  NE1       -2.2080   32.7500   -0.1030 N.ar  210  TRP210     -0.2442
    102  CE2       -2.4880   31.4480    0.2410 C.ar  210  TRP210      0.0810
    103  CE3       -3.3690   30.2360    2.1420 C.ar  210  TRP210      0.0012
    104  CZ2       -2.3200   30.2610   -0.4970 C.ar  210  TRP210      0.0191
    105  CZ3       -3.1960   29.0420    1.3960 C.ar  210  TRP210      0.0001
    106  CH2       -2.6830   29.0730    0.1080 C.ar  210  TRP210      0.0015
    107  N          1.2590   31.4210    6.2020 N.3   214  GLU214     -0.1245
    108  CA         1.5600   30.6280    5.0200 C.3   214  GLU214      0.1567
    109  C          2.4780   31.3000    4.0080 C.2   214  GLU214      0.2260
    110  O          3.3380   30.6270    3.4830 O.2   214  GLU214     -0.2867
    111  CB         0.2740   30.1650    4.2960 C.3   214  GLU214      0.0388
    112  CG        -0.4710   29.0110    4.9710 C.3   214  GLU214      0.1160
    113  CD         0.3240   27.6900    4.8340 C.2   214  GLU214      0.3649
    114  OE1        0.8880   27.4030    3.7820 O.co2 214  GLU214     -0.2457
    115  OE2        0.3710   26.9190    5.7560 O.co2 214  GLU214     -0.2457
@<TRIPOS>BOND
     1   104   106   ar
     2   104   102   ar
     3   101   102   ar
     4   101    99   ar
     5   106   105   ar
     6   102   100   ar
     7    99    98   ar
     8   105   103   ar
     9   100    98   ar
    10   100   103   ar
    11    45    51    1
    12    45    46    1
    13    98    97    1
    14    51    50    1
    15     8     6    1
    16    48    47    2
    17    46    47    1
    18    46    49    1
    19    97    94    1
    20   110   109    2
    21    58    60   ar
    22    58    57   ar
    23    56    57    1
    24    56    53    1
    25    96    95    2
    26   114   113   ar
    27     6     7    1
    28     6     5    1
    29   109   108    1
    30    60    61   ar
    31    57    59   ar
    32    50    49    1
    33    95    94    1
    34    52    53    1
    35     5     2    1
    36   111   112    1
    37   111   108    1
    38    53    54    1
    39    94    93    1
    40    61    59   ar
    41   113   112    1
    42   113   115   ar
    43   108   107    1
    44     1     2    1
    45     2     3    1
    46    93    83   am
    47    54    55    2
    48    54    62   am
    49    22    21    1
    50     4     3    2
    51    62    63    1
    52     3     9   am
    53    83    84    2
    54    83    82    1
    55    12    11    2
    56     9    10    1
    57    87    89   ar
    58    87    86   ar
    59    80    78   ar
    60    80    79   ar
    61    89    91   ar
    62    21    18    1
    63    81    82    1
    64    70    68   ar
    65    69    68   ar
    66    68    67    1
    67    63    64    1
    68    63    66    1
    69    11    10    1
    70    82    85    1
    71    67    66    1
    72    17    18    1
    73    78    76   ar
    74    79    77   ar
    75    85    86    1
    76    10    13    1
    77    18    19    1
    78    86    88   ar
    79    71    72    1
    80    64    65    2
    81    91    92    1
    82    91    90   ar
    83    76    77   ar
    84    76    75    1
    85    13    14    1
    86    72    75    1
    87    72    73    1
    88    88    90   ar
    89    19    20    2
    90    30    28   ar
    91    30    32   ar
    92    28    27    1
    93    28    29   ar
    94    32    33   ar
    95    44    43   ar
    96    44    42   ar
    97    27    24    1
    98    29    31   ar
    99    33    31   ar
   100    14    16    1
   101    14    15    1
   102    73    74    2
   103    43    41   ar
   104    42    40   ar
   105    24    23    1
   106    24    25    1
   107    41    39   ar
   108    40    39   ar
   109    25    26    2
   110    39    38    1
   111    36    37    2
   112    36    35    1
   113    38    35    1
   114    35    34    1
