@<TRIPOS>MOLECULE
tmp/3panB00.pdb
 143 137 0 0 0
SMALL
GASTEIGER

@<TRIPOS>ATOM
      1  N         41.7250   30.8710   75.7030 N.3    15  HIS15      -0.1241
      2  CA        41.3850   31.8240   76.7420 C.3    15  HIS15       0.1621
      3  C         42.5120   32.8370   76.8890 C.2    15  HIS15       0.2264
      4  O         43.6540   32.4690   77.1590 O.2    15  HIS15      -0.2867
      5  CB        41.1580   31.0920   78.0620 C.3    15  HIS15       0.0745
      6  CG        40.1420   29.9960   77.9710 C.ar   15  HIS15       0.0817
      7  ND1       38.8560   30.1320   78.4500 N.ar   15  HIS15      -0.2268
      8  CD2       40.2190   28.7510   77.4450 C.ar   15  HIS15       0.1154
      9  CE1       38.1870   29.0150   78.2270 C.ar   15  HIS15       0.1986
     10  NE2       38.9900   28.1620   77.6180 N.ar   15  HIS15      -0.2212
     11  N         40.9130   19.4880   85.9810 N.3    53  LEU53      -0.1245
     12  CA        40.4960   20.8330   85.6080 C.3    53  LEU53       0.1561
     13  C         40.4770   21.7720   86.8100 C.2    53  LEU53       0.2260
     14  O         41.0160   22.8790   86.7560 O.2    53  LEU53      -0.2867
     15  CB        39.1110   20.7990   84.9560 C.3    53  LEU53       0.0270
     16  CG        38.5080   22.1490   84.5590 C.3    53  LEU53       0.0019
     17  CD1       39.4150   22.8880   83.5800 C.3    53  LEU53       0.0001
     18  CD2       37.1170   21.9640   83.9680 C.3    53  LEU53       0.0001
     19  N         43.7940   23.2290   88.0490 N.3    56  PHE56      -0.1227
     20  CA        44.2450   24.2540   87.1180 C.3    56  PHE56       0.1736
     21  C         43.4560   25.5470   87.3140 C.2    56  PHE56       0.2595
     22  O         44.0400   26.6230   87.4490 O.2    56  PHE56      -0.2718
     23  CB        44.1150   23.7580   85.6760 C.3    56  PHE56       0.0547
     24  CG        43.9550   24.8590   84.6640 C.ar   56  PHE56      -0.0202
     25  CD1       45.0240   25.6750   84.3270 C.ar   56  PHE56      -0.0042
     26  CD2       42.7350   25.0730   84.0420 C.ar   56  PHE56      -0.0042
     27  CE1       44.8740   26.6910   83.3900 C.ar   56  PHE56      -0.0003
     28  CE2       42.5800   26.0820   83.1090 C.ar   56  PHE56      -0.0003
     29  CZ        43.6490   26.8910   82.7810 C.ar   56  PHE56      -0.0000
     30  N         42.1310   25.4360   87.3420 N.am   57  LEU57      -0.1980
     31  CA        41.2680   26.6070   87.5000 C.3    57  LEU57       0.1596
     32  C         41.6140   27.4200   88.7490 C.2    57  LEU57       0.2287
     33  O         41.6000   28.6490   88.7240 O.2    57  LEU57      -0.2864
     34  CB        39.7920   26.1990   87.5270 C.3    57  LEU57       0.0297
     35  CG        39.1790   25.7560   86.1980 C.3    57  LEU57       0.0022
     36  CD1       37.7080   25.4220   86.3750 C.3    57  LEU57       0.0001
     37  CD2       39.3500   26.8360   85.1450 C.3    57  LEU57       0.0001
     38  N         44.5850   29.2410   87.7900 N.3    60  TYR60      -0.1227
     39  CA        44.1370   30.0640   86.6740 C.3    60  TYR60       0.1736
     40  C         43.4720   31.3560   87.1470 C.2    60  TYR60       0.2595
     41  O         43.7980   32.4370   86.6620 O.2    60  TYR60      -0.2718
     42  CB        43.1870   29.2280   85.8110 C.3    60  TYR60       0.0548
     43  CG        42.4790   29.9350   84.6710 C.ar   60  TYR60      -0.0200
     44  CD1       41.1040   30.1180   84.7020 C.ar   60  TYR60      -0.0009
     45  CD2       43.1720   30.3740   83.5520 C.ar   60  TYR60      -0.0009
     46  CE1       40.4380   30.7370   83.6660 C.ar   60  TYR60       0.0417
     47  CE2       42.5110   31.0010   82.5040 C.ar   60  TYR60       0.0417
     48  CZ        41.1410   31.1780   82.5690 C.ar   60  TYR60       0.1957
     49  OH        40.4600   31.7930   81.5410 O.3    60  TYR60      -0.2866
     50  N         42.5600   31.2450   88.1100 N.am   61  TYR61      -0.1976
     51  CA        41.8310   32.4120   88.6100 C.3    61  TYR61       0.1639
     52  C         42.6710   33.3030   89.5300 C.2    61  TYR61       0.2290
     53  O         42.5970   34.5340   89.4510 O.2    61  TYR61      -0.2864
     54  CB        40.5350   31.9940   89.3140 C.3    61  TYR61       0.0560
     55  CG        39.4860   31.4110   88.3880 C.ar   61  TYR61      -0.0198
     56  CD1       39.0710   32.0970   87.2520 C.ar   61  TYR61      -0.0009
     57  CD2       38.8980   30.1810   88.6590 C.ar   61  TYR61      -0.0009
     58  CE1       38.1080   31.5670   86.4070 C.ar   61  TYR61       0.0417
     59  CE2       37.9370   29.6440   87.8210 C.ar   61  TYR61       0.0417
     60  CZ        37.5450   30.3400   86.6980 C.ar   61  TYR61       0.1957
     61  OH        36.5870   29.8060   85.8680 O.3    61  TYR61      -0.2866
     62  N         32.4960   28.2810   80.0810 N.3   165  ASP165     -0.1225
     63  CA        33.6840   27.6060   80.5910 C.3   165  ASP165      0.1805
     64  C         33.6640   27.5110   82.1120 C.2   165  ASP165      0.2598
     65  O         32.6680   27.8630   82.7470 O.2   165  ASP165     -0.2718
     66  CB        34.9710   28.2890   80.1000 C.3   165  ASP165      0.1424
     67  CG        35.0330   29.7670   80.4650 C.2   165  ASP165      0.3668
     68  OD1       34.0990   30.2710   81.1280 O.co2 165  ASP165     -0.2456
     69  OD2       36.0230   30.4290   80.0870 O.co2 165  ASP165     -0.2456
     70  N         34.7760   27.0360   82.6720 N.am  166  SER166     -0.1952
     71  CA        34.9240   26.7730   84.1030 C.3   166  SER166      0.1924
     72  C         34.5770   25.3220   84.4360 C.2   166  SER166      0.2314
     73  O         34.5580   24.4660   83.5520 O.2   166  SER166     -0.2863
     74  CB        34.0880   27.7370   84.9420 C.3   166  SER166      0.2116
     75  OG        34.6850   27.9460   86.2050 O.3   166  SER166     -0.2180
     76  N         33.0690   22.0630   84.6430 N.3   168  GLU168     -0.1245
     77  CA        32.0170   21.5220   83.7880 C.3   168  GLU168      0.1567
     78  C         31.0780   20.5470   84.5070 C.2   168  GLU168      0.2260
     79  O         29.8560   20.7010   84.4590 O.2   168  GLU168     -0.2867
     80  CB        32.6060   20.8670   82.5370 C.3   168  GLU168      0.0388
     81  CG        31.5400   20.4240   81.5420 C.3   168  GLU168      0.1160
     82  CD        32.1110   19.6570   80.3680 C.2   168  GLU168      0.3649
     83  OE1       33.3370   19.4170   80.3550 O.co2 168  GLU168     -0.2457
     84  OE2       31.3320   19.2960   79.4590 O.co2 168  GLU168     -0.2457
     85  N         31.9690   24.9480   76.0010 N.3   193  HIS193     -0.1241
     86  CA        32.7820   23.8260   76.4430 C.3   193  HIS193      0.1621
     87  C         31.8410   22.6820   76.7760 C.2   193  HIS193      0.2264
     88  O         30.8730   22.8580   77.5240 O.2   193  HIS193     -0.2867
     89  CB        33.5900   24.1920   77.6890 C.3   193  HIS193      0.0745
     90  CG        34.7760   25.0650   77.4180 C.ar  193  HIS193      0.0817
     91  ND1       34.6890   26.2440   76.7070 N.ar  193  HIS193     -0.2268
     92  CD2       36.0740   24.9430   77.7830 C.ar  193  HIS193      0.1154
     93  CE1       35.8830   26.8020   76.6370 C.ar  193  HIS193      0.1986
     94  NE2       36.7420   26.0360   77.2860 N.ar  193  HIS193     -0.2212
     95  N         34.6380   17.8000   77.9380 N.3   196  GLU196     -0.1245
     96  CA        36.0000   17.8450   78.4490 C.3   196  GLU196      0.1567
     97  C         36.1130   16.8760   79.6230 C.2   196  GLU196      0.2260
     98  O         36.7760   15.8400   79.5300 O.2   196  GLU196     -0.2867
     99  CB        36.3630   19.2640   78.8820 C.3   196  GLU196      0.0388
    100  CG        37.8410   19.4700   79.1560 C.3   196  GLU196      0.1160
    101  CD        38.1330   20.8510   79.7040 C.2   196  GLU196      0.3649
    102  OE1       37.1680   21.6180   79.9200 O.co2 196  GLU196     -0.2457
    103  OE2       39.3230   21.1710   79.9210 O.co2 196  GLU196     -0.2457
    104  N         36.3860   21.5150   73.0560 N.3   217  HIS217     -0.1241
    105  CA        36.8910   20.2270   73.5400 C.3   217  HIS217      0.1621
    106  C         36.1050   19.0890   72.8940 C.2   217  HIS217      0.2264
    107  O         36.4310   18.6540   71.7890 O.2   217  HIS217     -0.2867
    108  CB        36.8340   20.1230   75.0660 C.3   217  HIS217      0.0745
    109  CG        37.9450   20.8440   75.7660 C.ar  217  HIS217      0.0817
    110  ND1       37.7570   22.0400   76.4290 N.ar  217  HIS217     -0.2268
    111  CD2       39.2570   20.5390   75.9090 C.ar  217  HIS217      0.1154
    112  CE1       38.9030   22.4370   76.9510 C.ar  217  HIS217      0.1986
    113  NE2       39.8310   21.5450   76.6500 N.ar  217  HIS217     -0.2212
    114  N         46.2110   20.5670   76.6120 N.3   243  SER243     -0.1217
    115  CA        45.2560   20.7640   77.6920 C.3   243  SER243      0.1889
    116  C         44.7480   19.4180   78.1840 C.2   243  SER243      0.2288
    117  O         44.9110   19.0720   79.3490 O.2   243  SER243     -0.2866
    118  CB        44.0800   21.6210   77.2220 C.3   243  SER243      0.2089
    119  OG        43.1040   21.7430   78.2410 O.3   243  SER243     -0.2183
    120  N         45.5070   18.2170   81.9680 N.3   247  LEU247     -0.1245
    121  CA        44.3770   18.1220   82.8890 C.3   247  LEU247      0.1561
    122  C         43.9720   16.6730   83.1270 C.2   247  LEU247      0.2260
    123  O         42.9560   16.3970   83.7670 O.2   247  LEU247     -0.2867
    124  CB        43.1900   18.9440   82.3870 C.3   247  LEU247      0.0270
    125  CG        43.4740   20.4370   82.2160 C.3   247  LEU247      0.0019
    126  CD1       42.1810   21.1960   82.0020 C.3   247  LEU247      0.0001
    127  CD2       44.2240   20.9880   83.4170 C.3   247  LEU247      0.0001
    128  N         44.3420   26.4210   73.9030 N.3   271  ASP271     -0.1225
    129  CA        43.4320   26.5390   75.0450 C.3   271  ASP271      0.1805
    130  C         43.9090   27.5440   76.1040 C.2   271  ASP271      0.2597
    131  O         43.4000   28.6610   76.1870 O.2   271  ASP271     -0.2718
    132  CB        43.1930   25.1630   75.6780 C.3   271  ASP271      0.1424
    133  CG        41.9630   25.1350   76.5660 C.2   271  ASP271      0.3668
    134  OD1       41.4350   26.2180   76.8890 O.co2 271  ASP271     -0.2456
    135  OD2       41.5220   24.0300   76.9440 O.co2 271  ASP271     -0.2456
    136  N         44.8700   27.1290   76.9220 N.am  272  ASP272     -0.1974
    137  CA        45.4810   27.9970   77.9270 C.3   272  ASP272      0.1709
    138  C         46.9980   27.8100   77.8920 C.2   272  ASP272      0.2293
    139  O         47.5700   27.1770   78.7780 O.2   272  ASP272     -0.2864
    140  CB        44.9450   27.6660   79.3210 C.3   272  ASP272      0.1436
    141  CG        43.4410   27.8730   79.4350 C.2   272  ASP272      0.3671
    142  OD1       43.0090   29.0190   79.7030 O.co2 272  ASP272     -0.2456
    143  OD2       42.6910   26.8820   79.2670 O.co2 272  ASP272     -0.2456
@<TRIPOS>BOND
     1   107   106    2
     2   106   105    1
     3   104   105    1
     4   105   108    1
     5   128   129    1
     6   129   132    1
     7   129   130    1
     8   108   109    1
     9   132   133    1
    10     1     2    1
    11   109   111   ar
    12   109   110   ar
    13   111   113   ar
    14    85    86    1
    15   130   131    2
    16   130   136   am
    17   110   112   ar
    18    86    87    1
    19    86    89    1
    20   133   134   ar
    21   133   135   ar
    22   114   115    1
    23    93    91   ar
    24    93    94   ar
    25   113   112   ar
    26    91    90   ar
    27     2     3    1
    28     2     5    1
    29    87    88    2
    30     3     4    2
    31   136   137    1
    32   118   115    1
    33   118   119    1
    34    94    92   ar
    35    90    89    1
    36    90    92   ar
    37     8    10   ar
    38     8     6   ar
    39    10     9   ar
    40   115   116    1
    41   138   137    1
    42   138   139    2
    43   137   140    1
    44    95    96    1
    45     6     5    1
    46     6     7   ar
    47   116   117    2
    48     9     7   ar
    49    96    99    1
    50    96    97    1
    51    99   100    1
    52   100   101    1
    53   143   141   ar
    54   140   141    1
    55   141   142   ar
    56    84    82   ar
    57    98    97    2
    58   101   102   ar
    59   101   103   ar
    60    62    63    1
    61    69    67   ar
    62    66    67    1
    63    66    63    1
    64    83    82   ar
    65    82    81    1
    66    67    68   ar
    67    63    64    1
    68    49    48    1
    69    81    80    1
    70   120   121    1
    71   126   125    1
    72    64    70   am
    73    64    65    2
    74   125   124    1
    75   125   127    1
    76   124   121    1
    77    47    48   ar
    78    47    45   ar
    79    80    77    1
    80    48    46   ar
    81    70    71    1
    82    29    28   ar
    83    29    27   ar
    84   121   122    1
    85    28    26   ar
    86   122   123    2
    87    27    25   ar
    88    45    43   ar
    89    73    72    2
    90    17    16    1
    91    46    44   ar
    92    77    78    1
    93    77    76    1
    94    18    16    1
    95    26    24   ar
    96    71    72    1
    97    71    74    1
    98    25    24   ar
    99    79    78    2
   100    16    15    1
   101    24    23    1
   102    43    44   ar
   103    43    42    1
   104    74    75    1
   105    15    12    1
   106    37    35    1
   107    12    11    1
   108    12    13    1
   109    23    20    1
   110    42    39    1
   111    61    60    1
   112    35    36    1
   113    35    34    1
   114    58    60   ar
   115    58    56   ar
   116    41    40    2
   117    39    40    1
   118    39    38    1
   119    60    59   ar
   120    14    13    2
   121    20    21    1
   122    20    19    1
   123    40    50   am
   124    56    55   ar
   125    21    30   am
   126    21    22    2
   127    30    31    1
   128    31    34    1
   129    31    32    1
   130    59    57   ar
   131    50    51    1
   132    55    57   ar
   133    55    54    1
   134    51    54    1
   135    51    52    1
   136    33    32    2
   137    53    52    2
