@<TRIPOS>MOLECULE
tmp/3paoB00.pdb
 162 155 0 0 0
SMALL
GASTEIGER

@<TRIPOS>ATOM
      1  N         41.7650   30.7850   75.7100 N.3    15  HIS15      -0.1241
      2  CA        41.3930   31.7160   76.7580 C.3    15  HIS15       0.1621
      3  C         42.4910   32.7610   76.9210 C.2    15  HIS15       0.2264
      4  O         43.6460   32.4220   77.2030 O.2    15  HIS15      -0.2867
      5  CB        41.1630   30.9620   78.0600 C.3    15  HIS15       0.0745
      6  CG        40.1410   29.8750   77.9440 C.ar   15  HIS15       0.0817
      7  ND1       38.8350   30.0350   78.3590 N.ar   15  HIS15      -0.2268
      8  CD2       40.2280   28.6210   77.4430 C.ar   15  HIS15       0.1154
      9  CE1       38.1640   28.9220   78.1240 C.ar   15  HIS15       0.1986
     10  NE2       38.9850   28.0490   77.5670 N.ar   15  HIS15      -0.2212
     11  N         40.8060   19.3370   86.0250 N.3    53  LEU53      -0.1245
     12  CA        40.4200   20.6780   85.5950 C.3    53  LEU53       0.1561
     13  C         40.3760   21.6660   86.7520 C.2    53  LEU53       0.2260
     14  O         40.9140   22.7720   86.6550 O.2    53  LEU53      -0.2867
     15  CB        39.0540   20.6570   84.9110 C.3    53  LEU53       0.0270
     16  CG        38.4580   22.0360   84.5960 C.3    53  LEU53       0.0019
     17  CD1       39.3000   22.7960   83.5560 C.3    53  LEU53       0.0001
     18  CD2       37.0190   21.9080   84.1330 C.3    53  LEU53       0.0001
     19  N         43.6770   23.1790   88.0070 N.3    56  PHE56      -0.1227
     20  CA        44.1400   24.2230   87.0960 C.3    56  PHE56       0.1736
     21  C         43.3270   25.5150   87.2810 C.2    56  PHE56       0.2595
     22  O         43.8870   26.6100   87.3790 O.2    56  PHE56      -0.2718
     23  CB        44.0690   23.7310   85.6400 C.3    56  PHE56       0.0547
     24  CG        43.8190   24.8250   84.6310 C.ar   56  PHE56      -0.0202
     25  CD1       44.8440   25.6620   84.2210 C.ar   56  PHE56      -0.0042
     26  CD2       42.5560   25.0100   84.0850 C.ar   56  PHE56      -0.0042
     27  CE1       44.6120   26.6640   83.2920 C.ar   56  PHE56      -0.0003
     28  CE2       42.3190   26.0140   83.1520 C.ar   56  PHE56      -0.0003
     29  CZ        43.3460   26.8390   82.7560 C.ar   56  PHE56      -0.0000
     30  N         42.0050   25.3750   87.3500 N.am   57  LEU57      -0.1980
     31  CA        41.1170   26.5250   87.5280 C.3    57  LEU57       0.1596
     32  C         41.4640   27.3480   88.7750 C.2    57  LEU57       0.2287
     33  O         41.3480   28.5740   88.7790 O.2    57  LEU57      -0.2864
     34  CB        39.6530   26.0740   87.5700 C.3    57  LEU57       0.0297
     35  CG        39.0800   25.5990   86.2300 C.3    57  LEU57       0.0022
     36  CD1       37.6110   25.2320   86.3530 C.3    57  LEU57       0.0001
     37  CD2       39.2590   26.6680   85.1640 C.3    57  LEU57       0.0001
     38  N         44.5380   29.2420   87.8800 N.3    60  TYR60      -0.1227
     39  CA        44.1490   30.0730   86.7510 C.3    60  TYR60       0.1736
     40  C         43.3940   31.3210   87.2010 C.2    60  TYR60       0.2595
     41  O         43.6710   32.4090   86.7180 O.2    60  TYR60      -0.2718
     42  CB        43.3170   29.2080   85.7890 C.3    60  TYR60       0.0548
     43  CG        42.5690   29.8960   84.6560 C.ar   60  TYR60      -0.0200
     44  CD1       41.1940   30.0750   84.7260 C.ar   60  TYR60      -0.0009
     45  CD2       43.2200   30.3060   83.5010 C.ar   60  TYR60      -0.0009
     46  CE1       40.4900   30.6650   83.7020 C.ar   60  TYR60       0.0417
     47  CE2       42.5200   30.9080   82.4650 C.ar   60  TYR60       0.0417
     48  CZ        41.1480   31.0810   82.5730 C.ar   60  TYR60       0.1957
     49  OH        40.4110   31.6660   81.5600 O.3    60  TYR60      -0.2866
     50  N         42.4570   31.1700   88.1360 N.am   61  TYR61      -0.1976
     51  CA        41.6920   32.3190   88.6250 C.3    61  TYR61       0.1639
     52  C         42.5140   33.2170   89.5590 C.2    61  TYR61       0.2290
     53  O         42.3980   34.4540   89.5170 O.2    61  TYR61      -0.2864
     54  CB        40.4040   31.8690   89.3190 C.3    61  TYR61       0.0560
     55  CG        39.3580   31.2940   88.3840 C.ar   61  TYR61      -0.0198
     56  CD1       38.9640   31.9750   87.2340 C.ar   61  TYR61      -0.0009
     57  CD2       38.7550   30.0730   88.6580 C.ar   61  TYR61      -0.0009
     58  CE1       38.0030   31.4430   86.3850 C.ar   61  TYR61       0.0417
     59  CE2       37.8050   29.5370   87.8220 C.ar   61  TYR61       0.0417
     60  CZ        37.4270   30.2230   86.6910 C.ar   61  TYR61       0.1957
     61  OH        36.4730   29.6730   85.8690 O.3    61  TYR61      -0.2866
     62  N         36.7890   35.8310   80.0970 N.3    97  ASP97      -0.1239
     63  CA        35.8170   35.5840   81.1630 C.3    97  ASP97       0.1674
     64  C         35.5620   36.8700   81.9410 C.2    97  ASP97       0.2266
     65  O         36.1940   37.0970   82.9760 O.2    97  ASP97      -0.2867
     66  CB        36.3440   34.5410   82.1620 C.3    97  ASP97       0.1410
     67  CG        36.8110   33.2490   81.5070 C.2    97  ASP97       0.3668
     68  OD1       36.2400   32.8190   80.4790 O.co2  97  ASP97      -0.2456
     69  OD2       37.7530   32.6480   82.0570 O.co2  97  ASP97      -0.2456
     70  N         32.4370   28.2430   80.0370 N.3   165  ASP165     -0.1225
     71  CA        33.6060   27.5390   80.5430 C.3   165  ASP165      0.1805
     72  C         33.5730   27.4460   82.0640 C.2   165  ASP165      0.2598
     73  O         32.5400   27.7300   82.6830 O.2   165  ASP165     -0.2718
     74  CB        34.9190   28.1570   80.0210 C.3   165  ASP165      0.1424
     75  CG        35.0570   29.6470   80.3480 C.2   165  ASP165      0.3668
     76  OD1       34.1640   30.2200   81.0230 O.co2 165  ASP165     -0.2456
     77  OD2       36.0740   30.2440   79.9250 O.co2 165  ASP165     -0.2456
     78  N         34.7020   27.0300   82.6370 N.am  166  SER166     -0.1952
     79  CA        34.8260   26.7570   84.0640 C.3   166  SER166      0.1924
     80  C         34.4170   25.3190   84.4080 C.2   166  SER166      0.2314
     81  O         34.2740   24.4870   83.5140 O.2   166  SER166     -0.2863
     82  CB        34.0330   27.7630   84.8860 C.3   166  SER166      0.2116
     83  OG        34.5810   27.8760   86.1800 O.3   166  SER166     -0.2180
     84  N         33.0460   21.9270   84.7620 N.3   168  GLU168     -0.1245
     85  CA        32.0150   21.3620   83.9020 C.3   168  GLU168      0.1567
     86  C         31.0500   20.3940   84.6080 C.2   168  GLU168      0.2260
     87  O         29.8310   20.5830   84.5710 O.2   168  GLU168     -0.2867
     88  CB        32.6100   20.7290   82.6420 C.3   168  GLU168      0.0388
     89  CG        31.5550   20.4510   81.5820 C.3   168  GLU168      0.1160
     90  CD        32.0580   19.5840   80.4470 C.2   168  GLU168      0.3649
     91  OE1       33.2730   19.2850   80.4130 O.co2 168  GLU168     -0.2457
     92  OE2       31.2360   19.2000   79.5840 O.co2 168  GLU168     -0.2457
     93  N         31.9660   24.8430   75.9980 N.3   193  HIS193     -0.1241
     94  CA        32.7770   23.7170   76.4210 C.3   193  HIS193      0.1621
     95  C         31.8100   22.5920   76.7540 C.2   193  HIS193      0.2264
     96  O         30.7590   22.8140   77.3800 O.2   193  HIS193     -0.2867
     97  CB        33.5960   24.0710   77.6600 C.3   193  HIS193      0.0745
     98  CG        34.7490   24.9910   77.3870 C.ar  193  HIS193      0.0817
     99  ND1       34.6000   26.1960   76.7340 N.ar  193  HIS193     -0.2268
    100  CD2       36.0600   24.8860   77.6950 C.ar  193  HIS193      0.1154
    101  CE1       35.7760   26.7900   76.6430 C.ar  193  HIS193      0.1986
    102  NE2       36.6780   26.0190   77.2200 N.ar  193  HIS193     -0.2212
    103  N         34.5820   17.6810   77.8910 N.3   196  GLU196     -0.1245
    104  CA        35.9430   17.7270   78.3940 C.3   196  GLU196      0.1567
    105  C         36.0230   16.7780   79.5820 C.2   196  GLU196      0.2260
    106  O         36.6720   15.7330   79.5150 O.2   196  GLU196     -0.2867
    107  CB        36.3200   19.1520   78.7970 C.3   196  GLU196      0.0388
    108  CG        37.7810   19.3360   79.1800 C.3   196  GLU196      0.1160
    109  CD        38.0730   20.7270   79.7410 C.2   196  GLU196      0.3649
    110  OE1       37.1150   21.5130   79.9440 O.co2 196  GLU196     -0.2457
    111  OE2       39.2630   21.0340   79.9870 O.co2 196  GLU196     -0.2457
    112  N         36.3710   21.4360   73.1140 N.3   217  HIS217     -0.1241
    113  CA        36.8320   20.1120   73.5380 C.3   217  HIS217      0.1621
    114  C         36.0000   19.0560   72.8060 C.2   217  HIS217      0.2264
    115  O         36.2250   18.8020   71.6160 O.2   217  HIS217     -0.2867
    116  CB        36.7640   19.9320   75.0550 C.3   217  HIS217      0.0745
    117  CG        37.6920   20.8360   75.8070 C.ar  217  HIS217      0.0817
    118  ND1       39.0520   20.6100   75.8860 N.ar  217  HIS217     -0.2268
    119  CD2       37.4580   21.9770   76.5010 C.ar  217  HIS217      0.1154
    120  CE1       39.6120   21.5680   76.6040 C.ar  217  HIS217      0.1986
    121  NE2       38.6670   22.4070   76.9940 N.ar  217  HIS217     -0.2212
    122  N         46.1970   20.4980   76.6360 N.3   243  SER243     -0.1217
    123  CA        45.2560   20.6840   77.7340 C.3   243  SER243      0.1889
    124  C         44.7280   19.3450   78.2210 C.2   243  SER243      0.2288
    125  O         44.8380   19.0240   79.4010 O.2   243  SER243     -0.2866
    126  CB        44.0790   21.5600   77.3120 C.3   243  SER243      0.2089
    127  OG        43.0690   21.5250   78.3040 O.3   243  SER243     -0.2183
    128  N         45.5070   18.0630   81.9620 N.3   247  LEU247     -0.1245
    129  CA        44.3840   17.9700   82.8940 C.3   247  LEU247      0.1561
    130  C         43.9430   16.5340   83.1320 C.2   247  LEU247      0.2260
    131  O         42.9420   16.2860   83.8080 O.2   247  LEU247     -0.2867
    132  CB        43.2040   18.8230   82.4240 C.3   247  LEU247      0.0270
    133  CG        43.4570   20.3310   82.2830 C.3   247  LEU247      0.0019
    134  CD1       42.1260   21.0570   82.2660 C.3   247  LEU247      0.0001
    135  CD2       44.3740   20.9000   83.3860 C.3   247  LEU247      0.0001
    136  N         44.3490   26.3730   73.8320 N.3   271  ASP271     -0.1225
    137  CA        43.4440   26.5640   74.9590 C.3   271  ASP271      0.1805
    138  C         44.0260   27.5590   75.9580 C.2   271  ASP271      0.2597
    139  O         43.8710   28.7700   75.8030 O.2   271  ASP271     -0.2718
    140  CB        43.1590   25.2290   75.6500 C.3   271  ASP271      0.1424
    141  CG        42.2250   25.3740   76.8350 C.2   271  ASP271      0.3668
    142  OD1       41.8000   26.5130   77.1220 O.co2 271  ASP271     -0.2456
    143  OD2       41.9160   24.3500   77.4790 O.co2 271  ASP271     -0.2456
    144  N         44.6960   27.0400   76.9820 N.am  272  ASP272     -0.1974
    145  CA        45.3160   27.8790   77.9850 C.3   272  ASP272      0.1709
    146  C         46.8120   27.7000   77.9750 C.2   272  ASP272      0.2293
    147  O         47.3180   27.0570   78.8260 O.2   272  ASP272     -0.2864
    148  CB        44.8200   27.5370   79.3950 C.3   272  ASP272      0.1436
    149  CG        43.3710   27.8750   79.6060 C.2   272  ASP272      0.3671
    150  OD1       43.0440   29.0350   79.8660 O.co2 272  ASP272     -0.2456
    151  OD2       42.5520   26.9640   79.4850 O.co2 272  ASP272     -0.2456
    152  N         49.7350   25.2510   79.9560 N.3   276  PHE276     -0.1241
    153  CA        49.9440   23.8850   79.4960 C.3   276  PHE276      0.1605
    154  C         51.2510   23.6900   78.7410 C.2   276  PHE276      0.2264
    155  O         51.5010   22.6190   78.2210 O.2   276  PHE276     -0.2867
    156  CB        48.7610   23.4250   78.6570 C.3   276  PHE276      0.0534
    157  CG        47.4380   23.6030   79.3490 C.ar  276  PHE276     -0.0203
    158  CD1       47.3470   23.4730   80.7240 C.ar  276  PHE276     -0.0042
    159  CD2       46.2970   23.9010   78.6340 C.ar  276  PHE276     -0.0042
    160  CE1       46.1390   23.6350   81.3750 C.ar  276  PHE276     -0.0003
    161  CE2       45.0830   24.0590   79.2780 C.ar  276  PHE276     -0.0003
    162  CZ        45.0020   23.9250   80.6540 C.ar  276  PHE276     -0.0000
@<TRIPOS>BOND
     1   115   114    2
     2   114   113    1
     3   112   113    1
     4   113   116    1
     5   136   137    1
     6   137   140    1
     7   137   138    1
     8   116   117    1
     9   140   141    1
    10     1     2    1
    11   139   138    2
    12   117   118   ar
    13   117   119   ar
    14   118   120   ar
    15   138   144   am
    16    93    94    1
    17    94    95    1
    18    94    97    1
    19   119   121   ar
    20   120   121   ar
    21   122   123    1
    22   101    99   ar
    23   101   102   ar
    24    99    98   ar
    25    95    96    2
    26     2     3    1
    27     2     5    1
    28   141   142   ar
    29   141   143   ar
    30     3     4    2
    31   144   145    1
    32   102   100   ar
    33   126   123    1
    34   126   127    1
    35    98    97    1
    36    98   100   ar
    37     8    10   ar
    38     8     6   ar
    39    10     9   ar
    40   123   124    1
    41   103   104    1
    42     6     5    1
    43     6     7   ar
    44   146   145    1
    45   146   147    2
    46   145   148    1
    47     9     7   ar
    48   155   154    2
    49   124   125    2
    50   104   107    1
    51   104   105    1
    52   159   161   ar
    53   159   157   ar
    54   156   157    1
    55   156   153    1
    56   154   153    1
    57   107   108    1
    58   108   109    1
    59   161   162   ar
    60   157   158   ar
    61   148   149    1
    62   151   149   ar
    63   153   152    1
    64   106   105    2
    65    92    90   ar
    66   149   150   ar
    67   109   110   ar
    68   109   111   ar
    69    77    75   ar
    70    74    75    1
    71    74    71    1
    72    70    71    1
    73    62    63    1
    74    75    76   ar
    75    91    90   ar
    76    90    89    1
    77    68    67   ar
    78    71    72    1
    79   162   160   ar
    80   158   160   ar
    81    63    64    1
    82    63    66    1
    83    67    69   ar
    84    67    66    1
    85    49    48    1
    86    89    88    1
    87    64    65    2
    88   128   129    1
    89    72    78   am
    90    72    73    2
    91   134   133    1
    92   133   132    1
    93   133   135    1
    94   132   129    1
    95    47    48   ar
    96    47    45   ar
    97    48    46   ar
    98    78    79    1
    99    88    85    1
   100    29    28   ar
   101    29    27   ar
   102   129   130    1
   103   130   131    2
   104    28    26   ar
   105    27    25   ar
   106    45    43   ar
   107    81    80    2
   108    17    16    1
   109    46    44   ar
   110    85    86    1
   111    85    84    1
   112    79    80    1
   113    79    82    1
   114    26    24   ar
   115    18    16    1
   116    25    24   ar
   117    87    86    2
   118    16    15    1
   119    24    23    1
   120    43    44   ar
   121    43    42    1
   122    82    83    1
   123    15    12    1
   124    37    35    1
   125    12    11    1
   126    12    13    1
   127    23    20    1
   128    42    39    1
   129    61    60    1
   130    35    36    1
   131    35    34    1
   132    58    60   ar
   133    58    56   ar
   134    14    13    2
   135    60    59   ar
   136    41    40    2
   137    39    40    1
   138    39    38    1
   139    20    21    1
   140    20    19    1
   141    40    50   am
   142    56    55   ar
   143    21    30   am
   144    21    22    2
   145    30    31    1
   146    31    34    1
   147    31    32    1
   148    59    57   ar
   149    50    51    1
   150    55    57   ar
   151    55    54    1
   152    51    54    1
   153    51    52    1
   154    32    33    2
   155    53    52    2
