@<TRIPOS>MOLECULE
tmp/3paxA00.pdb
 107 105 0 0 0
SMALL
GASTEIGER

@<TRIPOS>ATOM
      1  N         32.7210   22.9440   11.8090 N.3   102  GLN102     -0.1245
      2  CA        34.1780   22.9870   11.9930 C.3   102  GLN102      0.1566
      3  C         34.8440   23.4480   10.7040 C.2   102  GLN102      0.2260
      4  O         35.7730   24.2520   10.7310 O.2   102  GLN102     -0.2867
      5  CB        34.7260   21.6070   12.3520 C.3   102  GLN102      0.0367
      6  CG        35.3280   21.5100   13.7380 C.3   102  GLN102      0.0905
      7  CD        34.3900   20.8510   14.7340 C.2   102  GLN102      0.2608
      8  OE1       34.1770   19.6310   14.6790 O.2   102  GLN102     -0.2717
      9  NE2       33.8200   21.6520   15.6530 N.am  102  GLN102     -0.0878
     10  N         47.1450   26.3540   22.4160 N.3   201  HIS201     -0.1226
     11  CA        46.1370   26.4570   21.3680 C.3   201  HIS201      0.1752
     12  C         46.6800   25.9740   20.0080 C.2   201  HIS201      0.2596
     13  O         47.5370   26.6280   19.3990 O.2   201  HIS201     -0.2718
     14  CB        45.5690   27.8610   21.2340 C.3   201  HIS201      0.0759
     15  CG        44.4330   27.9230   20.2690 C.ar  201  HIS201      0.0818
     16  ND1       43.1230   27.7360   20.6560 N.ar  201  HIS201     -0.2268
     17  CD2       44.4150   28.0420   18.9190 C.ar  201  HIS201      0.1154
     18  CE1       42.3490   27.7300   19.5830 C.ar  201  HIS201      0.1986
     19  NE2       43.1080   27.9140   18.5190 N.ar  201  HIS201     -0.2212
     20  N         46.1980   24.8130   19.5640 N.am  202  GLY202     -0.1957
     21  CA        46.6230   24.2530   18.2930 C.3   202  GLY202      0.1869
     22  C         45.6180   24.5750   17.2040 C.2   202  GLY202      0.2309
     23  O         44.4320   24.7300   17.4900 O.2   202  GLY202     -0.2863
     24  N         29.7270   23.4870   19.1790 N.3   228  TYR228     -0.1227
     25  CA        30.8440   23.5290   20.1260 C.3   228  TYR228      0.1736
     26  C         30.5120   22.9480   21.5120 C.2   228  TYR228      0.2595
     27  O         29.5480   23.3780   22.1610 O.2   228  TYR228     -0.2718
     28  CB        31.3000   24.9810   20.2690 C.3   228  TYR228      0.0548
     29  CG        31.4010   25.6960   18.9480 C.ar  228  TYR228     -0.0200
     30  CD1       30.2700   26.2350   18.3380 C.ar  228  TYR228     -0.0009
     31  CD2       32.6100   25.7660   18.2750 C.ar  228  TYR228     -0.0009
     32  CE1       30.3470   26.8120   17.0850 C.ar  228  TYR228      0.0417
     33  CE2       32.7030   26.3420   17.0180 C.ar  228  TYR228      0.0417
     34  CZ        31.5730   26.8610   16.4260 C.ar  228  TYR228      0.1957
     35  OH        31.6740   27.4150   15.1700 O.3   228  TYR228     -0.2866
     36  N         31.3730   22.0470   22.0000 N.am  229  MET229     -0.1979
     37  CA        31.1670   21.3870   23.2900 C.3   229  MET229      0.1605
     38  C         30.7980   22.2840   24.4640 C.2   229  MET229      0.2287
     39  O         29.9110   21.9310   25.2380 O.2   229  MET229     -0.2864
     40  CB        32.3520   20.4950   23.6600 C.3   229  MET229      0.0413
     41  CG        32.0480   19.5600   24.8270 C.3   229  MET229      0.0598
     42  SD        33.3350   18.3680   25.1410 S.3   229  MET229     -0.1393
     43  CE        33.1590   17.3300   23.6670 C.3   229  MET229      0.0692
     44  N         38.9620   28.0440   22.8590 N.3   235  TYR235     -0.1227
     45  CA        39.4620   26.8840   23.5900 C.3   235  TYR235      0.1736
     46  C         40.9690   26.7910   23.7410 C.2   235  TYR235      0.2595
     47  O         41.7080   27.1340   22.8250 O.2   235  TYR235     -0.2718
     48  CB        38.9440   25.5870   22.9680 C.3   235  TYR235      0.0548
     49  CG        37.4500   25.4140   23.0270 C.ar  235  TYR235     -0.0200
     50  CD1       36.5990   26.3160   22.3770 C.ar  235  TYR235     -0.0009
     51  CD2       36.8780   24.3520   23.7360 C.ar  235  TYR235     -0.0009
     52  CE1       35.2210   26.1740   22.4320 C.ar  235  TYR235      0.0417
     53  CE2       35.4800   24.1960   23.7990 C.ar  235  TYR235      0.0417
     54  CZ        34.6660   25.1150   23.1450 C.ar  235  TYR235      0.1957
     55  OH        33.2960   25.0040   23.2050 O.3   235  TYR235     -0.2866
     56  N         41.3920   26.2690   24.8960 N.am  236  PHE236     -0.1962
     57  CA        42.7900   26.1000   25.2650 C.3   236  PHE236      0.1771
     58  C         42.9480   24.8070   26.0450 C.2   236  PHE236      0.2619
     59  O         41.9670   24.2820   26.5550 O.2   236  PHE236     -0.2715
     60  CB        43.2310   27.2330   26.1760 C.3   236  PHE236      0.0574
     61  CG        43.1960   28.5650   25.5310 C.ar  236  PHE236     -0.0200
     62  CD1       44.3020   29.0410   24.8380 C.ar  236  PHE236     -0.0042
     63  CD2       42.0650   29.3530   25.6210 C.ar  236  PHE236     -0.0042
     64  CE1       44.2770   30.2760   24.2520 C.ar  236  PHE236     -0.0003
     65  CE2       42.0330   30.5880   25.0370 C.ar  236  PHE236     -0.0003
     66  CZ        43.1350   31.0560   24.3500 C.ar  236  PHE236     -0.0000
     67  N         44.1910   24.3460   26.1930 N.am  237  ALA237     -0.1977
     68  CA        44.4920   23.1240   26.9200 C.3   237  ALA237      0.1597
     69  C         45.7400   23.3360   27.7460 C.2   237  ALA237      0.2287
     70  O         46.4460   24.3230   27.5560 O.2   237  ALA237     -0.2864
     71  CB        44.7240   21.9820   25.9520 C.3   237  ALA237      0.0319
     72  N         46.8770   17.4800   23.7980 N.3   242  LYS242     -0.1231
     73  CA        45.5180   17.7870   23.3950 C.3   242  LYS242      0.1693
     74  C         45.4610   18.7970   22.2450 C.2   242  LYS242      0.2592
     75  O         44.7760   18.5740   21.2510 O.2   242  LYS242     -0.2718
     76  CB        44.7060   18.2930   24.5900 C.3   242  LYS242      0.0285
     77  CG        43.2740   18.6720   24.2330 C.3   242  LYS242      0.0035
     78  CD        42.3090   18.3370   25.3490 C.3   242  LYS242      0.0206
     79  CE        40.8870   18.6390   24.9370 C.3   242  LYS242      0.1093
     80  NZ        40.4810   17.9470   23.6710 N.3   242  LYS242     -0.1314
     81  N         46.1680   19.9100   22.3960 N.am  243  SER243     -0.1952
     82  CA        46.1880   20.9470   21.3770 C.3   243  SER243      0.1924
     83  C         46.8890   20.4840   20.0990 C.2   243  SER243      0.2314
     84  O         46.4050   20.7170   18.9910 O.2   243  SER243     -0.2863
     85  CB        46.8840   22.2000   21.9090 C.3   243  SER243      0.2116
     86  OG        46.1300   22.8120   22.9360 O.3   243  SER243     -0.2180
     87  N         45.0120   19.2340   17.1710 N.3   246  TYR246     -0.1241
     88  CA        44.2260   20.1680   16.3560 C.3   246  TYR246      0.1605
     89  C         45.0580   20.8310   15.2770 C.2   246  TYR246      0.2264
     90  O         44.5580   21.6780   14.5350 O.2   246  TYR246     -0.2867
     91  CB        43.5290   21.2140   17.2300 C.3   246  TYR246      0.0534
     92  CG        42.4670   20.6090   18.1170 C.ar  246  TYR246     -0.0201
     93  CD1       41.1850   20.4050   17.6430 C.ar  246  TYR246     -0.0009
     94  CD2       42.7700   20.1740   19.4040 C.ar  246  TYR246     -0.0009
     95  CE1       40.2230   19.7760   18.4160 C.ar  246  TYR246      0.0417
     96  CE2       41.8210   19.5430   20.1970 C.ar  246  TYR246      0.0417
     97  CZ        40.5440   19.3440   19.6920 C.ar  246  TYR246      0.1957
     98  OH        39.5920   18.6910   20.4490 O.3   246  TYR246     -0.2866
     99  N         40.0770   21.3270   29.5110 N.3   327  GLU327     -0.1245
    100  CA        39.7910   22.2460   28.4250 C.3   327  GLU327      0.1567
    101  C         39.4170   23.5460   29.1020 C.2   327  GLU327      0.2260
    102  O         38.6440   23.5380   30.0630 O.2   327  GLU327     -0.2867
    103  CB        38.5880   21.7790   27.6150 C.3   327  GLU327      0.0388
    104  CG        38.8620   20.6130   26.7230 C.3   327  GLU327      0.1160
    105  CD        37.6760   20.2450   25.8660 C.2   327  GLU327      0.3649
    106  OE1       36.6840   21.0100   25.8370 O.co2 327  GLU327     -0.2457
    107  OE2       37.7440   19.1760   25.2220 O.co2 327  GLU327     -0.2457
@<TRIPOS>BOND
     1     3     4    2
     2     3     2    1
     3     1     2    1
     4     2     5    1
     5     5     6    1
     6     6     7    1
     7    90    89    2
     8     8     7    2
     9     7     9   am
    10    35    34    1
    11    89    88    1
    12    88    87    1
    13    88    91    1
    14    34    33   ar
    15    34    32   ar
    16    33    31   ar
    17    32    30   ar
    18    22    23    2
    19    22    21    1
    20    91    92    1
    21    93    92   ar
    22    93    95   ar
    23    92    94   ar
    24    31    29   ar
    25    21    20    1
    26    30    29   ar
    27    95    97   ar
    28    19    17   ar
    29    19    18   ar
    30    17    15   ar
    31    29    28    1
    32    84    83    2
    33    24    25    1
    34    13    12    2
    35    94    96   ar
    36    20    12   am
    37    18    16   ar
    38    97    96   ar
    39    97    98    1
    40    12    11    1
    41    83    82    1
    42    25    28    1
    43    25    26    1
    44    15    16   ar
    45    15    14    1
    46    14    11    1
    47    75    74    2
    48    11    10    1
    49    82    85    1
    50    82    81    1
    51    26    36   am
    52    26    27    2
    53    85    86    1
    54    36    37    1
    55    74    81   am
    56    74    73    1
    57    50    52   ar
    58    50    49   ar
    59    52    54   ar
    60    47    46    2
    61    44    45    1
    62    48    49    1
    63    48    45    1
    64    49    51   ar
    65    54    55    1
    66    54    53   ar
    67    37    40    1
    68    37    38    1
    69    73    72    1
    70    73    76    1
    71    45    46    1
    72    40    41    1
    73    43    42    1
    74    80    79    1
    75    51    53   ar
    76    46    56   am
    77    77    76    1
    78    77    78    1
    79    64    66   ar
    80    64    62   ar
    81    66    65   ar
    82    38    39    2
    83    41    42    1
    84    62    61   ar
    85    56    57    1
    86    79    78    1
    87    65    63   ar
    88   107   105   ar
    89    57    58    1
    90    57    60    1
    91    61    63   ar
    92    61    60    1
    93   106   105   ar
    94   105   104    1
    95    71    68    1
    96    58    67   am
    97    58    59    2
    98    67    68    1
    99   104   103    1
   100    68    69    1
   101    70    69    2
   102   103   100    1
   103   100   101    1
   104   100    99    1
   105   101   102    2
