@<TRIPOS>MOLECULE
tmp/3pb7A00.pdb
 158 158 0 0 0
SMALL
GASTEIGER

@<TRIPOS>ATOM
      1  N          6.1430   44.6300   31.6990 N.3   113  ASP113     -0.1239
      2  CA         7.1280   45.2300   30.7910 C.3   113  ASP113      0.1674
      3  C          8.4020   45.5410   31.5970 C.2   113  ASP113      0.2266
      4  O          8.6960   46.7110   31.8630 O.2   113  ASP113     -0.2867
      5  CB         6.4860   46.5150   30.2270 C.3   113  ASP113      0.1410
      6  CG         7.2970   47.2230   29.1870 C.2   113  ASP113      0.3668
      7  OD1        8.3330   46.6920   28.7410 O.co2 113  ASP113     -0.2456
      8  OD2        6.8990   48.3600   28.8160 O.co2 113  ASP113     -0.2456
      9  N         16.6300   48.1110   27.6840 N.3   152  GLU152     -0.1231
     10  CA        15.7900   47.9870   26.5240 C.3   152  GLU152      0.1699
     11  C         15.1380   49.3400   26.2190 C.2   152  GLU152      0.2592
     12  O         15.0060   49.6990   25.0280 O.2   152  GLU152     -0.2718
     13  CB        14.7940   46.8550   26.7410 C.3   152  GLU152      0.0402
     14  CG        13.8790   46.4810   25.5340 C.3   152  GLU152      0.1161
     15  CD        12.6780   47.2840   25.3650 C.2   152  GLU152      0.3649
     16  OE1       12.3720   48.1790   26.1680 O.co2 152  GLU152     -0.2457
     17  OE2       11.9170   46.9300   24.3840 O.co2 152  GLU152     -0.2457
     18  N         14.6400   50.0160   27.2350 N.am  153  GLU153     -0.1979
     19  CA        13.7480   51.1340   27.0150 C.3   153  GLU153      0.1602
     20  C         14.5540   52.3760   26.6510 C.2   153  GLU153      0.2287
     21  O         15.6950   52.5530   27.0950 O.2   153  GLU153     -0.2864
     22  CB        12.9820   51.4280   28.2910 C.3   153  GLU153      0.0415
     23  CG        12.0920   50.2920   28.7660 C.3   153  GLU153      0.1163
     24  CD        10.7200   50.1660   28.0480 C.2   153  GLU153      0.3649
     25  OE1       10.4650   50.8730   27.0030 O.co2 153  GLU153     -0.2457
     26  OE2        9.8760   49.4480   28.6010 O.co2 153  GLU153     -0.2457
     27  N         12.1260   56.8710   21.9470 N.3   158  TRP158     -0.1241
     28  CA        12.5440   55.6350   21.2760 C.3   158  TRP158      0.1605
     29  C         13.0980   55.9020   19.8540 C.2   158  TRP158      0.2264
     30  O         12.4520   56.5590   18.9700 O.2   158  TRP158     -0.2867
     31  CB        11.3620   54.6560   21.2430 C.3   158  TRP158      0.0550
     32  CG        11.6990   53.2790   20.6640 C.ar  158  TRP158      0.0003
     33  CD1       11.7900   52.9250   19.2970 C.ar  158  TRP158      0.0946
     34  CD2       11.9860   52.0650   21.4090 C.ar  158  TRP158      0.0152
     35  NE1       12.1260   51.6020   19.1890 N.ar  158  TRP158     -0.2442
     36  CE2       12.2230   51.0330   20.4580 C.ar  158  TRP158      0.0810
     37  CE3       12.0520   51.7500   22.7830 C.ar  158  TRP158      0.0012
     38  CZ2       12.5360   49.6930   20.8620 C.ar  158  TRP158      0.0191
     39  CZ3       12.3810   50.4360   23.1960 C.ar  158  TRP158      0.0001
     40  CH2       12.6060   49.4250   22.2200 C.ar  158  TRP158      0.0015
     41  N          8.1170   39.4350   26.0890 N.3   196  ASP196     -0.1225
     42  CA         7.9010   40.8340   26.4470 C.3   196  ASP196      0.1805
     43  C          6.4030   41.0650   26.5560 C.2   196  ASP196      0.2597
     44  O          5.5900   40.4740   25.8430 O.2   196  ASP196     -0.2718
     45  CB         8.5730   41.6940   25.3580 C.3   196  ASP196      0.1424
     46  CG         8.8100   43.1620   25.7750 C.2   196  ASP196      0.3668
     47  OD1        8.3880   43.5840   26.8580 O.co2 196  ASP196     -0.2456
     48  OD2        9.4860   43.9410   25.0100 O.co2 196  ASP196     -0.2456
     49  N          6.0320   41.9640   27.4650 N.am  197  LEU197     -0.1979
     50  CA         4.6460   42.4960   27.5620 C.3   197  LEU197      0.1596
     51  C          3.7140   41.3030   27.8740 C.2   197  LEU197      0.2287
     52  O          2.7340   41.0220   27.1450 O.2   197  LEU197     -0.2864
     53  CB         4.1820   43.2670   26.3290 C.3   197  LEU197      0.0297
     54  CG         5.0840   44.4360   25.9250 C.3   197  LEU197      0.0022
     55  CD1        4.4090   45.2270   24.8160 C.3   197  LEU197      0.0001
     56  CD2        5.4260   45.3190   27.1070 C.3   197  LEU197      0.0001
     57  N         -0.1320   42.0630   13.0540 N.3   248  PHE248     -0.1227
     58  CA        -0.5850   43.4040   12.7670 C.3   248  PHE248      0.1736
     59  C          0.4950   44.4250   12.4780 C.2   248  PHE248      0.2596
     60  O          0.1800   45.5530   12.1010 O.2   248  PHE248     -0.2718
     61  CB        -1.3400   43.9230   13.9880 C.3   248  PHE248      0.0547
     62  CG        -2.5710   43.1060   14.3510 C.ar  248  PHE248     -0.0202
     63  CD1       -2.9370   42.9620   15.7030 C.ar  248  PHE248     -0.0042
     64  CD2       -3.3680   42.5040   13.3450 C.ar  248  PHE248     -0.0042
     65  CE1       -4.0770   42.2440   16.0540 C.ar  248  PHE248     -0.0003
     66  CE2       -4.4990   41.7790   13.6700 C.ar  248  PHE248     -0.0003
     67  CZ        -4.8610   41.6450   15.0380 C.ar  248  PHE248     -0.0000
     68  N          1.7500   44.0060   12.6200 N.am  249  GLY249     -0.1942
     69  CA         2.9070   44.8490   12.3970 C.3   249  GLY249      0.2014
     70  C          4.0240   44.2500   13.2230 C.2   249  GLY249      0.2640
     71  O          3.7820   43.5210   14.1690 O.2   249  GLY249     -0.2714
     72  N          5.2440   44.6130   12.9020 N.am  250  SER250     -0.1935
     73  CA         6.3890   44.2000   13.7100 C.3   250  SER250      0.2055
     74  C          6.6520   45.1870   14.8310 C.2   250  SER250      0.2643
     75  O          6.2080   46.3520   14.7950 O.2   250  SER250     -0.2714
     76  CB         7.6340   44.1750   12.8120 C.3   250  SER250      0.2130
     77  OG         7.8890   45.4460   12.2090 O.3   250  SER250     -0.2179
     78  N          7.4220   44.7220   15.8160 N.am  251  VAL251     -0.1963
     79  CA         7.7170   45.5410   16.9970 C.3   251  VAL251      0.1727
     80  C          9.2120   45.5340   17.2300 C.2   251  VAL251      0.2616
     81  O          9.7650   44.4760   17.4620 O.2   251  VAL251     -0.2715
     82  CB         6.9420   45.0290   18.2590 C.3   251  VAL251      0.0290
     83  CG1        7.2790   45.8260   19.5130 C.3   251  VAL251      0.0023
     84  CG2        5.4280   44.9610   17.9640 C.3   251  VAL251      0.0023
     85  N          9.8680   46.7090   17.2740 N.am  252  GLU252     -0.1963
     86  CA        11.2700   46.7990   17.5970 C.3   252  GLU252      0.1733
     87  C         11.4630   46.3800   19.0360 C.2   252  GLU252      0.2616
     88  O         10.6690   46.7830   19.9360 O.2   252  GLU252     -0.2715
     89  CB        11.8110   48.2410   17.4150 C.3   252  GLU252      0.0429
     90  CG        11.9550   48.5620   15.8710 C.3   252  GLU252      0.1163
     91  CD        13.4690   48.2600   15.3370 C.2   252  GLU252      0.3649
     92  OE1       14.5010   48.4680   16.1000 O.co2 252  GLU252     -0.2457
     93  OE2       13.6370   47.8170   14.1510 O.co2 252  GLU252     -0.2457
     94  N         12.5330   45.6130   19.2720 N.am  253  ASP253     -0.1971
     95  CA        12.7250   45.0280   20.6320 C.3   253  ASP253      0.1709
     96  C         14.1200   44.4370   20.6710 C.2   253  ASP253      0.2293
     97  O         14.8870   44.4890   19.6520 O.2   253  ASP253     -0.2864
     98  CB        11.6260   44.0010   20.9380 C.3   253  ASP253      0.1436
     99  CG        11.3470   43.8350   22.4200 C.2   253  ASP253      0.3671
    100  OD1       12.0960   44.3410   23.2860 O.co2 253  ASP253     -0.2456
    101  OD2       10.3120   43.1970   22.7270 O.co2 253  ASP253     -0.2456
    102  N          5.5370   38.3700   22.2830 N.3   269  ILE269     -0.1245
    103  CA         5.1380   39.7010   22.7470 C.3   269  ILE269      0.1561
    104  C          3.6290   39.8200   22.4740 C.2   269  ILE269      0.2260
    105  O          3.1790   39.5050   21.3690 O.2   269  ILE269     -0.2867
    106  CB         5.9210   40.8410   22.0720 C.3   269  ILE269      0.0252
    107  CG1        5.5230   42.2230   22.6770 C.3   269  ILE269      0.0019
    108  CG2        5.7910   40.7990   20.5220 C.3   269  ILE269      0.0019
    109  CD1        6.5430   43.3440   22.2490 C.3   269  ILE269      0.0001
    110  N          0.4180   41.5340   21.1030 N.3   271  THR271     -0.1204
    111  CA         0.0190   42.5840   20.1730 C.3   271  THR271      0.1979
    112  C         -1.4700   42.3420   19.9240 C.2   271  THR271      0.2460
    113  O         -1.8300   41.2520   19.4260 O.2   271  THR271     -0.2732
    114  CB         0.7920   42.4860   18.8450 C.3   271  THR271      0.1783
    115  OG1        0.5860   41.2070   18.2090 O.3   271  THR271     -0.2211
    116  CG2        2.2840   42.8010   19.0050 C.3   271  THR271      0.0376
    117  N         -2.3270   43.2810   20.2700 N.am  272  PRO272     -0.2717
    118  CA        -2.0370   44.6050   20.8760 C.3   272  PRO272      0.1535
    119  C         -1.3040   44.4750   22.2000 C.2   272  PRO272      0.2598
    120  O         -1.4280   43.4810   22.9300 O.2   272  PRO272     -0.2715
    121  CB        -3.4420   45.2480   21.0650 C.3   272  PRO272      0.0310
    122  CG        -4.3440   44.4780   20.0890 C.3   272  PRO272      0.0237
    123  CD        -3.7650   43.0520   20.0560 C.3   272  PRO272      0.0939
    124  N         -0.6100   45.5700   22.5190 N.am  273  PHE273     -0.1974
    125  CA         0.0530   45.6920   23.8010 C.3   273  PHE273      0.1639
    126  C         -0.9760   45.7220   24.9330 C.2   273  PHE273      0.2290
    127  O         -2.1430   46.0650   24.7270 O.2   273  PHE273     -0.2864
    128  CB         0.8210   47.0310   23.7930 C.3   273  PHE273      0.0560
    129  CG         2.0610   47.0620   22.9350 C.ar  273  PHE273     -0.0200
    130  CD1        2.4180   45.9770   22.1110 C.ar  273  PHE273     -0.0042
    131  CD2        2.8680   48.1940   22.9290 C.ar  273  PHE273     -0.0042
    132  CE1        3.6160   46.0350   21.2870 C.ar  273  PHE273     -0.0003
    133  CE2        4.0220   48.2660   22.1560 C.ar  273  PHE273     -0.0003
    134  CZ         4.4010   47.2060   21.3210 C.ar  273  PHE273     -0.0000
    135  N          0.0180   49.7130   28.9330 N.3   277  TRP277     -0.1227
    136  CA         1.3900   49.9010   28.4370 C.3   277  TRP277      0.1737
    137  C          1.9360   51.3310   28.5650 C.2   277  TRP277      0.2595
    138  O          1.2520   52.3130   28.1430 O.2   277  TRP277     -0.2718
    139  CB         1.4700   49.4390   26.9700 C.3   277  TRP277      0.0564
    140  CG         2.8240   49.5150   26.3260 C.ar  277  TRP277      0.0003
    141  CD1        3.8460   48.6120   26.4070 C.ar  277  TRP277      0.0946
    142  CD2        3.2810   50.5800   25.4330 C.ar  277  TRP277      0.0152
    143  NE1        4.9470   49.0560   25.6210 N.ar  277  TRP277     -0.2442
    144  CE2        4.6070   50.2430   25.0030 C.ar  277  TRP277      0.0810
    145  CE3        2.6810   51.7490   24.9310 C.ar  277  TRP277      0.0012
    146  CZ2        5.3310   51.0470   24.1390 C.ar  277  TRP277      0.0191
    147  CZ3        3.4250   52.5220   24.0070 C.ar  277  TRP277      0.0001
    148  CH2        4.7070   52.1660   23.6240 C.ar  277  TRP277      0.0015
    149  N          3.1070   51.4720   29.1880 N.am  278  HIS278     -0.1975
    150  CA         3.8160   52.7560   29.3670 C.3   278  HIS278      0.1656
    151  C          2.9030   53.8100   30.0380 C.2   278  HIS278      0.2291
    152  O          3.0800   55.0040   29.8020 O.2   278  HIS278     -0.2864
    153  CB         4.3610   53.2500   28.0080 C.3   278  HIS278      0.0771
    154  CG         5.5810   52.4810   27.5940 C.ar  278  HIS278      0.0820
    155  ND1        6.4280   52.8630   26.5700 N.ar  278  HIS278     -0.2267
    156  CD2        6.0500   51.2970   28.0570 C.ar  278  HIS278      0.1154
    157  CE1        7.4120   51.9700   26.4480 C.ar  278  HIS278      0.1986
    158  NE2        7.1970   50.9900   27.3370 N.ar  278  HIS278     -0.2212
@<TRIPOS>BOND
     1    60    59    2
     2    77    76    1
     3    69    68    1
     4    69    70    1
     5    59    68   am
     6    59    58    1
     7    58    57    1
     8    58    61    1
     9    76    73    1
    10    72    70   am
    11    72    73    1
    12    70    71    2
    13    64    66   ar
    14    64    62   ar
    15    66    67   ar
    16    73    74    1
    17    61    62    1
    18    93    91   ar
    19    62    63   ar
    20    75    74    2
    21    74    78   am
    22    67    65   ar
    23    91    90    1
    24    91    92   ar
    25    63    65   ar
    26    78    79    1
    27    90    89    1
    28    79    80    1
    29    79    82    1
    30    80    85   am
    31    80    81    2
    32    85    86    1
    33    89    86    1
    34    86    87    1
    35    84    82    1
    36   115   114    1
    37    82    83    1
    38   114   116    1
    39   114   111    1
    40    30    29    2
    41    87    94   am
    42    87    88    2
    43    35    33   ar
    44    35    36   ar
    45    94    95    1
    46    33    32   ar
    47   113   112    2
    48    97    96    2
    49    29    28    1
    50   112   111    1
    51   112   117   am
    52   123   122    1
    53   123   117    1
    54   122   121    1
    55   111   110    1
    56   117   118    1
    57    36    38   ar
    58    36    34   ar
    59   108   106    1
    60    95    96    1
    61    95    98    1
    62    32    31    1
    63    32    34   ar
    64    38    40   ar
    65   118   121    1
    66   118   119    1
    67    98    99    1
    68    31    28    1
    69    28    27    1
    70   132   134   ar
    71   132   130   ar
    72   134   133   ar
    73   105   104    2
    74    34    37   ar
    75   106   107    1
    76   106   103    1
    77   130   129   ar
    78   133   131   ar
    79   119   124   am
    80   119   120    2
    81    40    39   ar
    82   109   107    1
    83   102   103    1
    84    99   101   ar
    85    99   100   ar
    86   104   103    1
    87   124   125    1
    88    37    39   ar
    89   131   129   ar
    90   129   128    1
    91   148   147   ar
    92   148   146   ar
    93   128   125    1
    94   125   126    1
    95   147   145   ar
    96   146   144   ar
    97    17    15   ar
    98   127   126    2
    99    55    54    1
   100   145   142   ar
   101   144   142   ar
   102   144   143   ar
   103    48    46   ar
   104    12    11    2
   105    45    46    1
   106    45    42    1
   107    15    14    1
   108    15    16   ar
   109   142   140   ar
   110    14    13    1
   111   143   141   ar
   112    46    47   ar
   113    44    43    2
   114    54    53    1
   115    54    56    1
   116    41    42    1
   117    11    10    1
   118    11    18   am
   119   140   141   ar
   120   140   139    1
   121    53    50    1
   122    42    43    1
   123   157   155   ar
   124   157   158   ar
   125    10    13    1
   126    10     9    1
   127    43    49   am
   128   155   154   ar
   129    20    19    1
   130    20    21    2
   131   139   136    1
   132    25    24   ar
   133    19    18    1
   134    19    22    1
   135    52    51    2
   136   158   156   ar
   137    49    50    1
   138    50    51    1
   139   154   153    1
   140   154   156   ar
   141   153   150    1
   142    24    26   ar
   143    24    23    1
   144   138   137    2
   145    22    23    1
   146   136   137    1
   147   136   135    1
   148   137   149   am
   149     7     6   ar
   150     8     6   ar
   151     6     5    1
   152   149   150    1
   153   150   151    1
   154   152   151    2
   155     5     2    1
   156     2     3    1
   157     2     1    1
   158     3     4    2
