@<TRIPOS>MOLECULE
tmp/3pb8A00.pdb
 119 116 0 0 0
SMALL
GASTEIGER

@<TRIPOS>ATOM
      1  N        -12.8010   -6.8990    9.7140 N.3    99  HIS99      -0.1241
      2  CA       -12.1180   -8.0790    9.1500 C.3    99  HIS99       0.1621
      3  C        -12.4810   -8.2430    7.6740 C.2    99  HIS99       0.2264
      4  O        -13.6450   -8.0930    7.3060 O.2    99  HIS99      -0.2867
      5  CB       -12.3560   -9.3530    9.9770 C.3    99  HIS99       0.0745
      6  CG       -13.6730  -10.0470    9.7280 C.ar   99  HIS99       0.0817
      7  ND1      -13.7930  -11.0770    8.8120 N.ar   99  HIS99      -0.2268
      8  CD2      -14.9160   -9.9020   10.2820 C.ar   99  HIS99       0.1154
      9  CE1      -15.0380  -11.5060    8.7980 C.ar   99  HIS99       0.1986
     10  NE2      -15.7300  -10.8080    9.6600 N.ar   99  HIS99      -0.2212
     11  N        -20.5540   -9.4730    7.0260 N.3   117  ASP117     -0.1239
     12  CA       -19.5960  -10.1380    7.9160 C.3   117  ASP117      0.1674
     13  C        -18.3340  -10.4520    7.1320 C.2   117  ASP117      0.2266
     14  O        -18.0580  -11.6170    6.8080 O.2   117  ASP117     -0.2867
     15  CB       -20.2350  -11.4100    8.4390 C.3   117  ASP117      0.1410
     16  CG       -19.4020  -12.1750    9.4190 C.2   117  ASP117      0.3668
     17  OD1      -18.3380  -11.7130    9.8750 O.co2 117  ASP117     -0.2456
     18  OD2      -19.8310  -13.3260    9.7560 O.co2 117  ASP117     -0.2456
     19  N        -10.1100  -13.2760   11.0160 N.3   156  GLU156     -0.1231
     20  CA       -10.9640  -13.1880   12.2050 C.3   156  GLU156      0.1699
     21  C        -11.6640  -14.4890   12.4510 C.2   156  GLU156      0.2592
     22  O        -11.8380  -14.9090   13.6000 O.2   156  GLU156     -0.2718
     23  CB       -11.9280  -12.0230   12.0550 C.3   156  GLU156      0.0402
     24  CG       -12.8680  -11.8270   13.2290 C.3   156  GLU156      0.1161
     25  CD       -14.0570  -12.6580   13.2410 C.2   156  GLU156      0.3649
     26  OE1      -14.5100  -13.1840   12.2700 O.co2 156  GLU156     -0.2457
     27  OE2      -14.5720  -12.9160   14.4370 O.co2 156  GLU156     -0.2457
     28  N        -12.1730  -15.1020   11.3810 N.am  157  GLU157     -0.1979
     29  CA       -13.0540  -16.2630   11.5110 C.3   157  GLU157      0.1602
     30  C        -12.3130  -17.5180   11.8130 C.2   157  GLU157      0.2287
     31  O        -11.1520  -17.7270   11.3630 O.2   157  GLU157     -0.2864
     32  CB       -13.8220  -16.4760   10.2310 C.3   157  GLU157      0.0415
     33  CG       -14.7540  -15.3060    9.8340 C.3   157  GLU157      0.1163
     34  CD       -16.0590  -15.2210   10.5480 C.2   157  GLU157      0.3649
     35  OE1      -16.2870  -15.8720   11.5840 O.co2 157  GLU157     -0.2457
     36  OE2      -16.9460  -14.4540   10.0470 O.co2 157  GLU157     -0.2457
     37  N        -18.4290   -4.4510   12.7680 N.3   200  ASP200     -0.1225
     38  CA       -18.6330   -5.8560   12.4520 C.3   200  ASP200      0.1805
     39  C        -20.0840   -6.1210   12.3190 C.2   200  ASP200      0.2597
     40  O        -20.8970   -5.5300   13.0680 O.2   200  ASP200     -0.2718
     41  CB       -17.9860   -6.7390   13.5620 C.3   200  ASP200      0.1424
     42  CG       -17.7810   -8.1860   13.1710 C.2   200  ASP200      0.3668
     43  OD1      -18.0780   -8.6140   12.0870 O.co2 200  ASP200     -0.2456
     44  OD2      -17.2360   -8.9480   14.0500 O.co2 200  ASP200     -0.2456
     45  N        -20.4790   -6.9950   11.3950 N.am  201  LEU201     -0.1979
     46  CA       -21.8790   -7.4290   11.2740 C.3   201  LEU201      0.1596
     47  C        -22.7990   -6.2550   11.0120 C.2   201  LEU201      0.2287
     48  O        -23.7640   -6.0220   11.7270 O.2   201  LEU201     -0.2864
     49  CB       -22.3730   -8.2610   12.4740 C.3   201  LEU201      0.0297
     50  CG       -21.4500   -9.4210   12.8870 C.3   201  LEU201      0.0022
     51  CD1      -22.1200  -10.2130   13.9860 C.3   201  LEU201      0.0001
     52  CD2      -21.0920  -10.3140   11.7150 C.3   201  LEU201      0.0001
     53  N        -19.4650  -10.1020   22.7320 N.3   255  VAL255     -0.1231
     54  CA       -18.8280  -11.2180   22.0970 C.3   255  VAL255      0.1692
     55  C        -17.3920  -10.9680   21.8180 C.2   255  VAL255      0.2592
     56  O        -16.9620   -9.8570   21.5100 O.2   255  VAL255     -0.2718
     57  CB       -19.5260  -11.6560   20.7620 C.3   255  VAL255      0.0266
     58  CG1      -20.9910  -12.0890   21.0520 C.3   255  VAL255      0.0020
     59  CG2      -19.4830  -10.5680   19.7350 C.3   255  VAL255      0.0020
     60  N        -16.6130  -12.0220   21.8260 N.am  256  GLU256     -0.1966
     61  CA       -15.2370  -11.9870   21.4270 C.3   256  GLU256      0.1733
     62  C        -15.1280  -11.5540   19.9460 C.2   256  GLU256      0.2616
     63  O        -15.9810  -11.9590   19.1130 O.2   256  GLU256     -0.2715
     64  CB       -14.5550  -13.3840   21.5360 C.3   256  GLU256      0.0429
     65  CG       -14.6390  -14.0090   22.8190 C.3   256  GLU256      0.1163
     66  CD       -13.8290  -13.2390   23.7830 C.2   256  GLU256      0.3649
     67  OE1      -12.5610  -13.2650   23.6330 O.co2 256  GLU256     -0.2457
     68  OE2      -14.4620  -12.6660   24.7210 O.co2 256  GLU256     -0.2457
     69  N        -14.1140  -10.7740   19.6200 N.am  257  ASP257     -0.1971
     70  CA       -13.9480  -10.2860   18.2550 C.3   257  ASP257      0.1709
     71  C        -12.5320   -9.7050   18.1990 C.2   257  ASP257      0.2293
     72  O        -11.7780   -9.7960   19.1780 O.2   257  ASP257     -0.2864
     73  CB       -15.0540   -9.2530   17.9450 C.3   257  ASP257      0.1436
     74  CG       -15.3350   -9.0000   16.5350 C.2   257  ASP257      0.3671
     75  OD1      -14.5850   -9.4240   15.6260 O.co2 257  ASP257     -0.2456
     76  OD2      -16.4010   -8.3110   16.2630 O.co2 257  ASP257     -0.2456
     77  N        -21.0240   -3.4780   16.6210 N.3   273  ILE273     -0.1245
     78  CA       -21.4510   -4.7630   16.1560 C.3   273  ILE273      0.1561
     79  C        -22.9420   -4.8790   16.4710 C.2   273  ILE273      0.2260
     80  O        -23.3860   -4.5240   17.5590 O.2   273  ILE273     -0.2867
     81  CB       -20.6810   -5.9270   16.8310 C.3   273  ILE273      0.0252
     82  CG1      -21.0780   -7.2730   16.2450 C.3   273  ILE273      0.0019
     83  CG2      -20.7710   -5.9190   18.3520 C.3   273  ILE273      0.0019
     84  CD1      -20.1420   -8.4150   16.6600 C.3   273  ILE273      0.0001
     85  N        -27.2760  -10.4890   16.3180 N.3   277  PHE277     -0.1241
     86  CA       -26.6210  -10.5940   15.0060 C.3   277  PHE277      0.1605
     87  C        -27.6330  -10.5550   13.8940 C.2   277  PHE277      0.2264
     88  O        -28.8300  -10.8100   14.0980 O.2   277  PHE277     -0.2867
     89  CB       -25.8650  -11.9100   14.9540 C.3   277  PHE277      0.0534
     90  CG       -24.6270  -12.0370   15.8570 C.ar  277  PHE277     -0.0203
     91  CD1      -24.1460  -10.9790   16.6400 C.ar  277  PHE277     -0.0042
     92  CD2      -23.9790  -13.2290   15.8830 C.ar  277  PHE277     -0.0042
     93  CE1      -23.0030  -11.1320   17.4250 C.ar  277  PHE277     -0.0003
     94  CE2      -22.7850  -13.3750   16.6110 C.ar  277  PHE277     -0.0003
     95  CZ       -22.3420  -12.2920   17.3590 C.ar  277  PHE277     -0.0000
     96  N        -26.7590  -14.5230    9.8040 N.3   281  TRP281     -0.1227
     97  CA       -25.4060  -14.7560   10.3660 C.3   281  TRP281      0.1737
     98  C        -24.9170  -16.1760   10.1490 C.2   281  TRP281      0.2595
     99  O        -25.5460  -17.1690   10.5530 O.2   281  TRP281     -0.2718
    100  CB       -25.4280  -14.3940   11.8410 C.3   281  TRP281      0.0564
    101  CG       -24.0730  -14.5550   12.4920 C.ar  281  TRP281      0.0003
    102  CD1      -23.0560  -13.6410   12.4730 C.ar  281  TRP281      0.0946
    103  CD2      -23.6260  -15.6400   13.2780 C.ar  281  TRP281      0.0152
    104  NE1      -22.0020  -14.0920   13.2310 N.ar  281  TRP281     -0.2442
    105  CE2      -22.3530  -15.3100   13.7530 C.ar  281  TRP281      0.0810
    106  CE3      -24.2370  -16.8390   13.7060 C.ar  281  TRP281      0.0012
    107  CZ2      -21.6120  -16.1660   14.6310 C.ar  281  TRP281      0.0191
    108  CZ3      -23.5140  -17.6980   14.5420 C.ar  281  TRP281      0.0001
    109  CH2      -22.2520  -17.3400   14.9950 C.ar  281  TRP281      0.0015
    110  N        -23.7210  -16.3080    9.5610 N.am  282  HIS282     -0.1975
    111  CA       -23.0420  -17.5850    9.3930 C.3   282  HIS282      0.1656
    112  C        -23.8820  -18.5960    8.6380 C.2   282  HIS282      0.2291
    113  O        -23.7260  -19.7870    8.8120 O.2   282  HIS282     -0.2864
    114  CB       -22.4330  -18.1570   10.6980 C.3   282  HIS282      0.0771
    115  CG       -21.2390  -17.3710   11.1420 C.ar  282  HIS282      0.0820
    116  ND1      -20.3730  -17.8010   12.1130 N.ar  282  HIS282     -0.2267
    117  CD2      -20.7280  -16.2120   10.6970 C.ar  282  HIS282      0.1154
    118  CE1      -19.4010  -16.8830   12.2340 C.ar  282  HIS282      0.1986
    119  NE2      -19.5900  -15.9070   11.3940 N.ar  282  HIS282     -0.2212
@<TRIPOS>BOND
     1    14    13    2
     2    11    12    1
     3    13    12    1
     4     4     3    2
     5     3     2    1
     6    12    15    1
     7    15    16    1
     8   112   113    2
     9   112   111    1
    10     9     7   ar
    11     9    10   ar
    12     7     6   ar
    13     2     1    1
    14     2     5    1
    15   111   110    1
    16   111   114    1
    17    16    18   ar
    18    16    17   ar
    19   110    98   am
    20    10     8   ar
    21     6     5    1
    22     6     8   ar
    23    96    97    1
    24    33    32    1
    25    33    34    1
    26    36    34   ar
    27    98    97    1
    28    98    99    2
    29    32    29    1
    30    97   100    1
    31    34    35   ar
    32   117   115   ar
    33   117   119   ar
    34   114   115    1
    35    47    46    1
    36    47    48    2
    37    19    20    1
    38   115   116   ar
    39    46    45    1
    40    46    49    1
    41    31    30    2
    42    28    29    1
    43    28    21   am
    44   119   118   ar
    45    45    39   am
    46    29    30    1
    47    52    50    1
    48   100   101    1
    49    23    20    1
    50    23    24    1
    51    43    42   ar
    52   116   118   ar
    53    20    21    1
    54    26    25   ar
    55    39    38    1
    56    39    40    2
    57    21    22    2
    58    38    37    1
    59    38    41    1
    60   102   101   ar
    61   102   104   ar
    62    49    50    1
    63   101   103   ar
    64    50    51    1
    65    42    41    1
    66    42    44   ar
    67    24    25    1
    68   104   105   ar
    69    25    27   ar
    70   103   106   ar
    71   103   105   ar
    72   106   108   ar
    73   105   107   ar
    74    87    88    2
    75    87    86    1
    76   108   109   ar
    77   107   109   ar
    78    89    86    1
    79    89    90    1
    80    86    85    1
    81    75    74   ar
    82    90    92   ar
    83    90    91   ar
    84    92    94   ar
    85    78    79    1
    86    78    77    1
    87    78    81    1
    88    82    84    1
    89    82    81    1
    90    76    74   ar
    91    79    80    2
    92    74    73    1
    93    94    95   ar
    94    91    93   ar
    95    81    83    1
    96    95    93   ar
    97    73    70    1
    98    71    70    1
    99    71    72    2
   100    70    69    1
   101    63    62    2
   102    69    62   am
   103    59    57    1
   104    62    61    1
   105    57    58    1
   106    57    54    1
   107    61    64    1
   108    61    60    1
   109    56    55    2
   110    64    65    1
   111    55    60   am
   112    55    54    1
   113    54    53    1
   114    65    66    1
   115    67    66   ar
   116    66    68   ar
