@<TRIPOS>MOLECULE
tmp/3pb9A00.pdb
 123 121 0 0 0
SMALL
GASTEIGER

@<TRIPOS>ATOM
      1  N          6.1550    9.5520   -7.1870 N.3   113  ASP113     -0.1239
      2  CA         7.1190   10.1900   -8.0770 C.3   113  ASP113      0.1674
      3  C          8.3600   10.5310   -7.2850 C.2   113  ASP113      0.2266
      4  O          8.6480   11.6890   -7.0220 O.2   113  ASP113     -0.2867
      5  CB         6.4860   11.4830   -8.6270 C.3   113  ASP113      0.1410
      6  CG         7.3090   12.1900   -9.6730 C.2   113  ASP113      0.3668
      7  OD1        8.3330   11.6770  -10.1430 O.co2 113  ASP113     -0.2456
      8  OD2        6.8460   13.3210  -10.0600 O.co2 113  ASP113     -0.2456
      9  N         16.6360   13.2910  -11.0920 N.3   152  GLU152     -0.1231
     10  CA        15.8080   13.1620  -12.3030 C.3   152  GLU152      0.1699
     11  C         15.0890   14.4610  -12.5900 C.2   152  GLU152      0.2592
     12  O         14.9650   14.8420  -13.7630 O.2   152  GLU152     -0.2718
     13  CB        14.8070   12.0180  -12.0970 C.3   152  GLU152      0.0402
     14  CG        13.9430   11.6390  -13.2730 C.3   152  GLU152      0.1161
     15  CD        12.6690   12.4220  -13.4440 C.2   152  GLU152      0.3649
     16  OE1       12.3260   13.2910  -12.6620 O.co2 152  GLU152     -0.2457
     17  OE2       11.8890   12.0460  -14.4320 O.co2 152  GLU152     -0.2457
     18  N         14.5850   15.1180  -11.5470 N.am  153  GLU153     -0.1979
     19  CA        13.6620   16.2460  -11.7420 C.3   153  GLU153      0.1602
     20  C         14.4610   17.5010  -12.0780 C.2   153  GLU153      0.2287
     21  O         15.5930   17.7380  -11.5990 O.2   153  GLU153     -0.2864
     22  CB        12.8930   16.4930  -10.4610 C.3   153  GLU153      0.0415
     23  CG        11.9790   15.3090  -10.1180 C.3   153  GLU153      0.1163
     24  CD        10.6630   15.2650  -10.7760 C.2   153  GLU153      0.3649
     25  OE1       10.3750   15.9230  -11.7910 O.co2 153  GLU153     -0.2457
     26  OE2        9.8030   14.4420  -10.2730 O.co2 153  GLU153     -0.2457
     27  N         12.0770   22.1970  -16.9980 N.3   158  TRP158     -0.1241
     28  CA        12.4950   20.9460  -17.7360 C.3   158  TRP158      0.1605
     29  C         13.0850   21.2140  -19.1840 C.2   158  TRP158      0.2264
     30  O         12.5270   21.9470  -20.0450 O.2   158  TRP158     -0.2867
     31  CB        11.3460   19.9550  -17.7770 C.3   158  TRP158      0.0550
     32  CG        11.7290   18.6200  -18.3240 C.ar  158  TRP158      0.0003
     33  CD1       11.8830   18.2900  -19.6590 C.ar  158  TRP158      0.0946
     34  CD2       12.0690   17.4310  -17.5630 C.ar  158  TRP158      0.0152
     35  NE1       12.2960   16.9670  -19.7860 N.ar  158  TRP158     -0.2442
     36  CE2       12.4030   16.3970  -18.5200 C.ar  158  TRP158      0.0810
     37  CE3       12.0390   17.1080  -16.1530 C.ar  158  TRP158      0.0012
     38  CZ2       12.7630   15.0020  -18.0790 C.ar  158  TRP158      0.0191
     39  CZ3       12.5100   15.6960  -15.6580 C.ar  158  TRP158      0.0001
     40  CH2       12.7580   14.7170  -16.6920 C.ar  158  TRP158      0.0015
     41  N          8.2130    4.4910  -12.8320 N.3   196  ASP196     -0.1225
     42  CA         7.9870    5.8890  -12.4690 C.3   196  ASP196      0.1805
     43  C          6.5090    6.1360  -12.3420 C.2   196  ASP196      0.2597
     44  O          5.7220    5.5010  -13.0970 O.2   196  ASP196     -0.2718
     45  CB         8.6740    6.8140  -13.5160 C.3   196  ASP196      0.1424
     46  CG         8.8740    8.2410  -13.0690 C.2   196  ASP196      0.3668
     47  OD1        8.4060    8.6540  -12.0100 O.co2 196  ASP196     -0.2456
     48  OD2        9.6040    9.0210  -13.8080 O.co2 196  ASP196     -0.2456
     49  N          6.0880    7.0120  -11.4560 N.am  197  LEU197     -0.1979
     50  CA         4.7020    7.4380  -11.3820 C.3   197  LEU197      0.1596
     51  C          3.7750    6.2610  -11.0810 C.2   197  LEU197      0.2287
     52  O          2.8150    6.0000  -11.8460 O.2   197  LEU197     -0.2864
     53  CB         4.2270    8.2380  -12.5990 C.3   197  LEU197      0.0297
     54  CG         5.0940    9.4270  -12.9780 C.3   197  LEU197      0.0022
     55  CD1        4.4690   10.2090  -14.0720 C.3   197  LEU197      0.0001
     56  CD2        5.3580   10.3240  -11.7630 C.3   197  LEU197      0.0001
     57  N          7.3780    9.9700  -22.5670 N.3   251  VAL251     -0.1231
     58  CA         7.7490   10.7970  -21.4380 C.3   251  VAL251      0.1692
     59  C          9.2710   10.7930  -21.3400 C.2   251  VAL251      0.2592
     60  O          9.8790    9.7170  -21.1320 O.2   251  VAL251     -0.2718
     61  CB         7.1510   10.2490  -20.1010 C.3   251  VAL251      0.0266
     62  CG1        7.4760   11.1810  -19.0490 C.3   251  VAL251      0.0020
     63  CG2        5.6080   10.1060  -20.2550 C.3   251  VAL251      0.0020
     64  N          9.9030   11.9440  -21.4140 N.am  252  GLU252     -0.1966
     65  CA        11.3020   12.0520  -21.1710 C.3   252  GLU252      0.1733
     66  C         11.6110   11.6270  -19.7590 C.2   252  GLU252      0.2616
     67  O         10.8820   12.0460  -18.8430 O.2   252  GLU252     -0.2715
     68  CB        11.7970   13.4560  -21.4510 C.3   252  GLU252      0.0429
     69  CG        11.4320   13.8320  -22.8870 C.3   252  GLU252      0.1163
     70  CD        11.7320   15.2390  -23.3020 C.2   252  GLU252      0.3649
     71  OE1       12.3900   15.9420  -22.4600 O.co2 252  GLU252     -0.2457
     72  OE2       11.3980   15.6030  -24.5160 O.co2 252  GLU252     -0.2457
     73  N         12.6410   10.8030  -19.5110 N.am  253  ASP253     -0.1971
     74  CA        12.8400   10.2630  -18.1840 C.3   253  ASP253      0.1709
     75  C         14.2530    9.6480  -18.1730 C.2   253  ASP253      0.2293
     76  O         14.9950    9.7230  -19.1720 O.2   253  ASP253     -0.2864
     77  CB        11.7200    9.2410  -17.8640 C.3   253  ASP253      0.1436
     78  CG        11.4820    9.0080  -16.3990 C.2   253  ASP253      0.3671
     79  OD1       12.2230    9.5010  -15.5220 O.co2 253  ASP253     -0.2456
     80  OD2       10.4410    8.3230  -16.1060 O.co2 253  ASP253     -0.2456
     81  N          5.6360    3.4710  -16.6720 N.3   269  ILE269     -0.1245
     82  CA         5.2140    4.8050  -16.1900 C.3   269  ILE269      0.1561
     83  C          3.7220    4.9380  -16.4910 C.2   269  ILE269      0.2260
     84  O          3.3140    4.6050  -17.6200 O.2   269  ILE269     -0.2867
     85  CB         6.0470    5.9220  -16.8370 C.3   269  ILE269      0.0252
     86  CG1        5.6860    7.2770  -16.2290 C.3   269  ILE269      0.0019
     87  CG2        5.9830    5.9180  -18.3630 C.3   269  ILE269      0.0019
     88  CD1        6.6470    8.4190  -16.5990 C.3   269  ILE269      0.0001
     89  N         -0.6480   10.6700  -16.3780 N.3   273  PHE273     -0.1241
     90  CA        -0.0360   10.7550  -15.0620 C.3   273  PHE273      0.1605
     91  C         -1.0680   10.6790  -13.9510 C.2   273  PHE273      0.2264
     92  O         -2.2560   10.9260  -14.1560 O.2   273  PHE273     -0.2867
     93  CB         0.7250   12.0690  -14.9490 C.3   273  PHE273      0.0534
     94  CG         1.8290   12.2700  -15.9450 C.ar  273  PHE273     -0.0203
     95  CD1        2.4240   11.2110  -16.6180 C.ar  273  PHE273     -0.0042
     96  CD2        2.3250   13.5520  -16.1470 C.ar  273  PHE273     -0.0042
     97  CE1        3.5090   11.4270  -17.4790 C.ar  273  PHE273     -0.0003
     98  CE2        3.3590   13.8000  -17.0280 C.ar  273  PHE273     -0.0003
     99  CZ         3.9650   12.6730  -17.7280 C.ar  273  PHE273     -0.0000
    100  N         -0.0760   14.5630   -9.8770 N.3   277  TRP277     -0.1227
    101  CA         1.2920   14.7710  -10.3800 C.3   277  TRP277      0.1737
    102  C          1.7700   16.1800  -10.2300 C.2   277  TRP277      0.2595
    103  O          1.1000   17.1340  -10.6800 O.2   277  TRP277     -0.2718
    104  CB         1.3020   14.3460  -11.8420 C.3   277  TRP277      0.0564
    105  CG         2.6560   14.4870  -12.4900 C.ar  277  TRP277      0.0003
    106  CD1        3.7060   13.5990  -12.3940 C.ar  277  TRP277      0.0946
    107  CD2        3.0670   15.5060  -13.4010 C.ar  277  TRP277      0.0152
    108  NE1        4.7660   14.0230  -13.1630 N.ar  277  TRP277     -0.2442
    109  CE2        4.4070   15.1770  -13.7900 C.ar  277  TRP277      0.0810
    110  CE3        2.4580   16.6710  -13.8940 C.ar  277  TRP277      0.0012
    111  CZ2        5.1470   15.9630  -14.6840 C.ar  277  TRP277      0.0191
    112  CZ3        3.2140   17.4530  -14.7840 C.ar  277  TRP277      0.0001
    113  CH2        4.5620   17.0640  -15.1820 C.ar  277  TRP277      0.0015
    114  N          2.9470   16.3280   -9.6300 N.am  278  HIS278     -0.1975
    115  CA         3.6170   17.6170   -9.4730 C.3   278  HIS278      0.1656
    116  C          2.7260   18.6270   -8.7670 C.2   278  HIS278      0.2291
    117  O          2.8860   19.8320   -8.9680 O.2   278  HIS278     -0.2864
    118  CB         4.1960   18.1640  -10.8240 C.3   278  HIS278      0.0771
    119  CG         5.4000   17.3940  -11.2490 C.ar  278  HIS278      0.0820
    120  ND1        6.2480   17.8130  -12.2250 N.ar  278  HIS278     -0.2267
    121  CD2        5.9570   16.2510  -10.7680 C.ar  278  HIS278      0.1154
    122  CE1        7.2470   16.9400  -12.3790 C.ar  278  HIS278      0.1986
    123  NE2        7.1160   15.9600  -11.5090 N.ar  278  HIS278     -0.2212
@<TRIPOS>BOND
     1    72    70   ar
     2    70    69    1
     3    70    71   ar
     4    69    68    1
     5    57    58    1
     6    68    65    1
     7    58    59    1
     8    58    61    1
     9    64    59   am
    10    64    65    1
    11    59    60    2
    12    65    66    1
    13    63    61    1
    14    61    62    1
    15    30    29    2
    16    35    33   ar
    17    35    36   ar
    18    66    73   am
    19    66    67    2
    20    33    32   ar
    21    73    74    1
    22    29    28    1
    23    76    75    2
    24    36    38   ar
    25    36    34   ar
    26    87    85    1
    27    32    31    1
    28    32    34   ar
    29    74    75    1
    30    74    77    1
    31    38    40   ar
    32    77    78    1
    33    31    28    1
    34    28    27    1
    35    99    97   ar
    36    99    98   ar
    37    84    83    2
    38    34    37   ar
    39    97    95   ar
    40    98    96   ar
    41    85    86    1
    42    85    82    1
    43    40    39   ar
    44    81    82    1
    45    95    94   ar
    46    88    86    1
    47    83    82    1
    48    78    80   ar
    49    78    79   ar
    50    89    90    1
    51    37    39   ar
    52    96    94   ar
    53    94    93    1
    54   113   112   ar
    55   113   111   ar
    56    90    93    1
    57    90    91    1
    58   112   110   ar
    59   111   109   ar
    60    17    15   ar
    61    92    91    2
    62    55    54    1
    63   110   107   ar
    64    48    46   ar
    65   109   107   ar
    66   109   108   ar
    67    12    11    2
    68    45    46    1
    69    45    42    1
    70    15    14    1
    71    15    16   ar
    72   107   105   ar
    73    14    13    1
    74   108   106   ar
    75    44    43    2
    76    46    47   ar
    77    54    53    1
    78    54    56    1
    79    41    42    1
    80    53    50    1
    81    11    10    1
    82    11    18   am
    83   105   106   ar
    84   105   104    1
    85    42    43    1
    86   122   120   ar
    87   122   123   ar
    88    43    49   am
    89    10    13    1
    90    10     9    1
    91   120   119   ar
    92    20    19    1
    93    20    21    2
    94    52    51    2
    95   104   101    1
    96    25    24   ar
    97    19    18    1
    98    19    22    1
    99   123   121   ar
   100    49    50    1
   101    50    51    1
   102   119   118    1
   103   119   121   ar
   104   118   115    1
   105    24    26   ar
   106    24    23    1
   107   103   102    2
   108    22    23    1
   109   101   102    1
   110   101   100    1
   111   102   114   am
   112     7     6   ar
   113     8     6   ar
   114     6     5    1
   115   114   115    1
   116   115   116    1
   117   117   116    2
   118     5     2    1
   119     2     3    1
   120     2     1    1
   121     3     4    2
