@<TRIPOS>MOLECULE
tmp/3pbaA00.pdb
 194 185 0 0 0
SMALL
GASTEIGER

@<TRIPOS>ATOM
      1  N         22.3590   25.9690    9.8260 N.3    67  ILE67      -0.1245
      2  CA        21.8110   24.6330    9.6350 C.3    67  ILE67       0.1561
      3  C         21.6330   23.9800   10.9990 C.2    67  ILE67       0.2260
      4  O         20.6370   23.3050   11.2540 O.2    67  ILE67      -0.2867
      5  CB        22.7220   23.7490    8.7610 C.3    67  ILE67       0.0252
      6  CG1       22.7150   24.2360    7.3140 C.3    67  ILE67       0.0019
      7  CG2       22.2720   22.2990    8.8140 C.3    67  ILE67       0.0019
      8  CD1       23.4770   23.3330    6.3790 C.3    67  ILE67       0.0001
      9  N         18.8230   25.4050   12.8490 N.3    70  GLY70      -0.1210
     10  CA        17.6240   24.8840   12.2240 C.3    70  GLY70       0.1956
     11  C         17.1740   23.5870   12.8670 C.2    70  GLY70       0.2612
     12  O         15.9920   23.3990   13.1430 O.2    70  GLY70      -0.2717
     13  N         18.1230   22.6890   13.1060 N.am   71  CYS71      -0.1956
     14  CA        17.8220   21.4080   13.7280 C.3    71  CYS71       0.1843
     15  C         17.4070   21.5620   15.1840 C.2    71  CYS71       0.2625
     16  O         16.5190   20.8570   15.6550 O.2    71  CYS71      -0.2714
     17  CB        19.0220   20.4750   13.6280 C.3    71  CYS71       0.0997
     18  SG        19.4540   20.0830   11.9390 S.3    71  CYS71      -0.0797
     19  N         18.0540   22.4810   15.8950 N.am   72  GLN72      -0.1977
     20  CA        17.7340   22.7180   17.2980 C.3    72  GLN72       0.1601
     21  C         16.3080   23.2430   17.4580 C.2    72  GLN72       0.2287
     22  O         15.5860   22.8150   18.3570 O.2    72  GLN72      -0.2864
     23  CB        18.7420   23.6750   17.9460 C.3    72  GLN72       0.0394
     24  CG        20.1890   23.1760   17.9310 C.3    72  GLN72       0.0908
     25  CD        20.3870   21.8720   18.6950 C.2    72  GLN72       0.2608
     26  OE1       20.5860   21.8730   19.9100 O.2    72  GLN72      -0.2717
     27  NE2       20.3450   20.7530   17.9780 N.am   72  GLN72      -0.0878
     28  N         13.8840   22.7200   15.3120 N.3    74  ARG74      -0.1231
     29  CA        13.0270   21.6020   14.9390 C.3    74  ARG74       0.1694
     30  C         12.9280   20.5840   16.0770 C.2    74  ARG74       0.2592
     31  O         11.9280   19.8760   16.2070 O.2    74  ARG74      -0.2718
     32  CB        13.5360   20.9290   13.6640 C.3    74  ARG74       0.0321
     33  CG        12.6710   19.7730   13.1950 C.3    74  ARG74       0.0489
     34  CD        11.2330   20.2220   12.9710 C.3    74  ARG74       0.2205
     35  NE        10.3740   19.1290   12.5200 N.pl3  74  ARG74      -0.0865
     36  CZ         9.4060   18.5810   13.2490 C.cat  74  ARG74       0.5346
     37  NH1        9.1590   19.0230   14.4750 N.pl3  74  ARG74       0.1354
     38  NH2        8.6800   17.5900   12.7480 N.pl3  74  ARG74       0.1354
     39  N         13.9680   20.5150   16.8990 N.am   75  SER75      -0.1952
     40  CA        13.9660   19.6300   18.0570 C.3    75  SER75       0.1924
     41  C         13.0160   20.1430   19.1210 C.2    75  SER75       0.2314
     42  O         12.2480   19.3790   19.6980 O.2    75  SER75      -0.2863
     43  CB        15.3670   19.5010   18.6450 C.3    75  SER75       0.2116
     44  OG        16.0760   18.4550   18.0210 O.3    75  SER75      -0.2180
     45  N         14.9740   12.6400   23.3920 N.3   109  HIS109     -0.1241
     46  CA        16.0390   12.4680   22.4170 C.3   109  HIS109      0.1621
     47  C         16.0390   11.0830   21.7900 C.2   109  HIS109      0.2264
     48  O         16.1690   10.9520   20.5740 O.2   109  HIS109     -0.2867
     49  CB        17.4000   12.8080   23.0220 C.3   109  HIS109      0.0745
     50  CG        17.7260   14.2670   22.9700 C.ar  109  HIS109      0.0817
     51  ND1       17.5210   15.1160   24.0360 N.ar  109  HIS109     -0.2268
     52  CD2       18.2220   15.0320   21.9690 C.ar  109  HIS109      0.1154
     53  CE1       17.8860   16.3400   23.6970 C.ar  109  HIS109      0.1986
     54  NE2       18.3160   16.3160   22.4480 N.ar  109  HIS109     -0.2212
     55  N         13.1570   11.2920   19.3410 N.3   112  ILE112     -0.1231
     56  CA        13.4830   12.1180   18.1910 C.3   112  ILE112      0.1692
     57  C         14.2960   11.3520   17.1390 C.2   112  ILE112      0.2592
     58  O         13.9900   11.4150   15.9520 O.2   112  ILE112     -0.2718
     59  CB        14.2520   13.3780   18.6130 C.3   112  ILE112      0.0266
     60  CG1       13.3150   14.3410   19.3370 C.3   112  ILE112      0.0019
     61  CG2       14.8610   14.0560   17.4050 C.3   112  ILE112      0.0020
     62  CD1       13.9720   15.6340   19.7530 C.3   112  ILE112      0.0001
     63  N         15.3190   10.6200   17.5760 N.am  113  TYR113     -0.1976
     64  CA        16.1740    9.8840   16.6430 C.3   113  TYR113      0.1639
     65  C         15.5000    8.6260   16.0910 C.2   113  TYR113      0.2290
     66  O         15.7990    8.1900   14.9800 O.2   113  TYR113     -0.2864
     67  CB        17.5210    9.5480   17.2940 C.3   113  TYR113      0.0560
     68  CG        18.2340   10.7690   17.8210 C.ar  113  TYR113     -0.0198
     69  CD1       18.1840   11.9730   17.1240 C.ar  113  TYR113     -0.0009
     70  CD2       18.9490   10.7270   19.0160 C.ar  113  TYR113     -0.0009
     71  CE1       18.8200   13.1020   17.6000 C.ar  113  TYR113      0.0417
     72  CE2       19.5940   11.8560   19.5010 C.ar  113  TYR113      0.0417
     73  CZ        19.5270   13.0400   18.7850 C.ar  113  TYR113      0.1957
     74  OH        20.1680   14.1670   19.2550 O.3   113  TYR113     -0.2866
     75  N         13.3030   10.3050   13.5600 N.3   116  LEU116     -0.1245
     76  CA        14.1360   10.9020   12.5360 C.3   116  LEU116      0.1561
     77  C         14.4900    9.8690   11.4620 C.2   116  LEU116      0.2260
     78  O         14.5900   10.1980   10.2820 O.2   116  LEU116     -0.2867
     79  CB        15.4060   11.4610   13.1690 C.3   116  LEU116      0.0270
     80  CG        16.2800   12.2780   12.2280 C.3   116  LEU116      0.0019
     81  CD1       15.5030   13.4950   11.7730 C.3   116  LEU116      0.0001
     82  CD2       17.5750   12.6730   12.9130 C.3   116  LEU116      0.0001
     83  N         12.5120    9.7810    8.3360 N.3   119  LEU119     -0.1245
     84  CA        12.7310   10.8090    7.3290 C.3   119  LEU119      0.1561
     85  C         14.0560   10.6250    6.5920 C.2   119  LEU119      0.2260
     86  O         14.4800   11.5110    5.8490 O.2   119  LEU119     -0.2867
     87  CB        12.7240   12.1970    7.9690 C.3   119  LEU119      0.0270
     88  CG        11.7990   12.4860    9.1480 C.3   119  LEU119      0.0019
     89  CD1       11.8490   13.9680    9.4670 C.3   119  LEU119      0.0001
     90  CD2       10.3820   12.0520    8.8590 C.3   119  LEU119      0.0001
     91  N         18.1400   13.1920    4.2760 N.3   125  VAL125     -0.1231
     92  CA        17.0490   13.3840    5.2170 C.3   125  VAL125      0.1692
     93  C         16.0680   14.4550    4.7580 C.2   125  VAL125      0.2592
     94  O         16.4610   15.5170    4.2770 O.2   125  VAL125     -0.2718
     95  CB        17.5860   13.7450    6.6230 C.3   125  VAL125      0.0266
     96  CG1       18.2880   15.0990    6.6060 C.3   125  VAL125      0.0020
     97  CG2       16.4660   13.7450    7.6300 C.3   125  VAL125      0.0020
     98  N         14.7840   14.1640    4.9120 N.am  126  LEU126     -0.1966
     99  CA        13.7400   15.1360    4.6240 C.3   126  LEU126      0.1728
    100  C         13.7870   16.3080    5.5990 C.2   126  LEU126      0.2616
    101  O         14.1070   16.1360    6.7710 O.2   126  LEU126     -0.2715
    102  CB        12.3740   14.4600    4.6840 C.3   126  LEU126      0.0311
    103  CG        12.1160   13.4660    3.5560 C.3   126  LEU126      0.0022
    104  CD1       10.8560   12.6690    3.8310 C.3   126  LEU126      0.0001
    105  CD2       12.0190   14.2060    2.2330 C.3   126  LEU126      0.0001
    106  N         13.4720   17.5000    5.1040 N.am  127  ILE127     -0.1963
    107  CA        13.4570   18.7000    5.9310 C.3   127  ILE127      0.1727
    108  C         12.2670   19.5720    5.5680 C.2   127  ILE127      0.2617
    109  O         11.6110   19.3500    4.5500 O.2   127  ILE127     -0.2715
    110  CB        14.7210   19.5430    5.7330 C.3   127  ILE127      0.0290
    111  CG1       14.8240   19.9870    4.2690 C.3   127  ILE127      0.0022
    112  CG2       15.9570   18.7770    6.1970 C.3   127  ILE127      0.0023
    113  CD1       15.8360   21.0810    4.0210 C.3   127  ILE127      0.0001
    114  N         12.0040   20.5760    6.3970 N.am  128  SER128     -0.1936
    115  CA        10.8830   21.4770    6.1700 C.3   128  SER128      0.2055
    116  C          9.6070   20.6930    5.8850 C.2   128  SER128      0.2642
    117  O          8.9130   20.9450    4.8960 O.2   128  SER128     -0.2714
    118  CB        11.1890   22.4270    5.0120 C.3   128  SER128      0.2130
    119  OG        10.0660   23.2360    4.7080 O.3   128  SER128     -0.2179
    120  N          9.3150   19.7300    6.7520 N.am  129  GLU129     -0.1976
    121  CA         8.0980   18.9340    6.6440 C.3   129  GLU129      0.1602
    122  C          7.9750   18.1860    5.3120 C.2   129  GLU129      0.2287
    123  O          6.8850   18.0740    4.7580 O.2   129  GLU129     -0.2864
    124  CB         6.8700   19.8190    6.8700 C.3   129  GLU129      0.0415
    125  CG         6.7570   20.3790    8.2780 C.3   129  GLU129      0.1163
    126  CD         6.0600   19.4230    9.2340 C.2   129  GLU129      0.3649
    127  OE1        5.5600   18.3760    8.7690 O.co2 129  GLU129     -0.2457
    128  OE2        6.0050   19.7230   10.4480 O.co2 129  GLU129     -0.2457
    129  N         17.8380   17.1830    2.2860 N.3   134  MET134     -0.1245
    130  CA        19.2380   17.5290    2.4550 C.3   134  MET134      0.1570
    131  C         20.0680   16.2540    2.4270 C.2   134  MET134      0.2261
    132  O         19.8190   15.3180    3.1930 O.2   134  MET134     -0.2867
    133  CB        19.4330   18.2750    3.7730 C.3   134  MET134      0.0387
    134  CG        20.8070   18.8780    3.9570 C.3   134  MET134      0.0595
    135  SD        20.7950   20.1090    5.2680 S.3   134  MET134     -0.1393
    136  CE        19.6650   21.3120    4.5840 C.3   134  MET134      0.0692
    137  N         25.8900   17.4070    4.4020 N.3   139  LEU139     -0.1245
    138  CA        25.9830   17.5430    5.8490 C.3   139  LEU139      0.1561
    139  C         27.3880   17.1890    6.3210 C.2   139  LEU139      0.2260
    140  O         27.9640   17.8830    7.1570 O.2   139  LEU139     -0.2867
    141  CB        24.9510   16.6510    6.5430 C.3   139  LEU139      0.0270
    142  CG        23.4890   17.0830    6.4610 C.3   139  LEU139      0.0019
    143  CD1       22.5730   15.9900    6.9830 C.3   139  LEU139      0.0001
    144  CD2       23.2700   18.3770    7.2290 C.3   139  LEU139      0.0001
    145  N         27.8960   15.9770   13.2590 N.3   149  PHE149     -0.1227
    146  CA        26.7160   15.8140   14.1090 C.3   149  PHE149      0.1736
    147  C         25.6340   14.8980   13.5440 C.2   149  PHE149      0.2595
    148  O         24.8850   14.2910   14.3050 O.2   149  PHE149     -0.2718
    149  CB        26.1380   17.1680   14.5610 C.3   149  PHE149      0.0547
    150  CG        25.2760   17.8530   13.5350 C.ar  149  PHE149     -0.0202
    151  CD1       23.8950   17.8370   13.6480 C.ar  149  PHE149     -0.0042
    152  CD2       25.8450   18.5400   12.4760 C.ar  149  PHE149     -0.0042
    153  CE1       23.0990   18.4830   12.7120 C.ar  149  PHE149     -0.0003
    154  CE2       25.0570   19.1860   11.5350 C.ar  149  PHE149     -0.0003
    155  CZ        23.6830   19.1560   11.6520 C.ar  149  PHE149     -0.0000
    156  N         25.5680   14.7770   12.2210 N.am  150  MET150     -0.1979
    157  CA        24.4970   14.0080   11.5890 C.3   150  MET150      0.1605
    158  C         24.8650   12.5770   11.2020 C.2   150  MET150      0.2287
    159  O         23.9830   11.7400   11.0160 O.2   150  MET150     -0.2864
    160  CB        23.9340   14.7560   10.3810 C.3   150  MET150      0.0413
    161  CG        23.0500   15.9200   10.7640 C.3   150  MET150      0.0598
    162  SD        21.7290   15.3980   11.8750 S.3   150  MET150     -0.1393
    163  CE        20.8010   14.3250   10.7890 C.3   150  MET150      0.0692
    164  N         23.6010    9.5620   13.2930 N.3   153  LYS153     -0.1245
    165  CA        22.1620    9.3760   13.0890 C.3   153  LYS153      0.1561
    166  C         21.8610    8.6110   11.8010 C.2   153  LYS153      0.2260
    167  O         20.9420    7.7870   11.7510 O.2   153  LYS153     -0.2867
    168  CB        21.4310   10.7220   13.0770 C.3   153  LYS153      0.0271
    169  CG        21.2250   11.3380   14.4480 C.3   153  LYS153      0.0035
    170  CD        22.2440   12.4240   14.7260 C.3   153  LYS153      0.0206
    171  CE        21.9010   13.1760   15.9990 C.3   153  LYS153      0.1093
    172  NZ        22.7710   14.3670   16.1750 N.3   153  LYS153     -0.1314
    173  N         25.9560   12.9170   20.9880 N.3   235  HIS235     -0.1241
    174  CA        25.3750   14.2060   20.6480 C.3   235  HIS235      0.1621
    175  C         25.7120   15.2560   21.7020 C.2   235  HIS235      0.2264
    176  O         26.1650   16.3530   21.3710 O.2   235  HIS235     -0.2867
    177  CB        23.8610   14.0880   20.4550 C.3   235  HIS235      0.0745
    178  CG        23.2310   15.3100   19.8610 C.ar  235  HIS235      0.0817
    179  ND1       22.5710   16.2540   20.6190 N.ar  235  HIS235     -0.2268
    180  CD2       23.1640   15.7440   18.5800 C.ar  235  HIS235      0.1154
    181  CE1       22.1220   17.2140   19.8310 C.ar  235  HIS235      0.1986
    182  NE2       22.4680   16.9290   18.5880 N.ar  235  HIS235     -0.2212
    183  N         19.4410   18.8270   28.5790 N.3   259  TYR259     -0.1241
    184  CA        20.8080   18.3320   28.4200 C.3   259  TYR259      0.1605
    185  C         21.5900   18.1540   29.7260 C.2   259  TYR259      0.2264
    186  O         22.4720   17.3010   29.8040 O.2   259  TYR259     -0.2867
    187  CB        21.6020   19.2270   27.4620 C.3   259  TYR259      0.0534
    188  CG        21.1780   19.1340   26.0110 C.ar  259  TYR259     -0.0201
    189  CD1       20.9910   17.9010   25.3960 C.ar  259  TYR259     -0.0009
    190  CD2       20.9920   20.2800   25.2480 C.ar  259  TYR259     -0.0009
    191  CE1       20.6150   17.8150   24.0630 C.ar  259  TYR259      0.0417
    192  CE2       20.6150   20.2040   23.9180 C.ar  259  TYR259      0.0417
    193  CZ        20.4280   18.9720   23.3310 C.ar  259  TYR259      0.1957
    194  OH        20.0560   18.9020   22.0080 O.3   259  TYR259     -0.2866
@<TRIPOS>BOND
     1   105   103    1
     2   129   130    1
     3   131   130    1
     4   131   132    2
     5   130   133    1
     6   103   104    1
     7   103   102    1
     8   133   134    1
     9   134   135    1
    10   113   111    1
    11   111   110    1
    12    91    92    1
    13    94    93    2
    14   137   138    1
    15   109   108    2
    16   136   135    1
    17    99   102    1
    18    99    98    1
    19    99   100    1
    20   119   118    1
    21    93    98   am
    22    93    92    1
    23   123   122    2
    24   117   116    2
    25   118   115    1
    26   106   100   am
    27   106   107    1
    28    92    95    1
    29   122   121    1
    30   108   107    1
    31   108   114   am
    32   100   101    2
    33   110   107    1
    34   110   112    1
    35    86    85    2
    36   138   139    1
    37   138   141    1
    38   116   115    1
    39   116   120   am
    40   115   114    1
    41   139   140    2
    42     8     6    1
    43   142   141    1
    44   142   143    1
    45   142   144    1
    46    85    84    1
    47    96    95    1
    48    95    97    1
    49   121   120    1
    50   121   124    1
    51   124   125    1
    52     6     5    1
    53    84    87    1
    54    84    83    1
    55    87    88    1
    56   125   126    1
    57     5     7    1
    58     5     2    1
    59   127   126   ar
    60    90    88    1
    61    88    89    1
    62   126   128   ar
    63     2     1    1
    64     2     3    1
    65    78    77    2
    66   160   161    1
    67   160   157    1
    68   161   162    1
    69   163   162    1
    70     3     4    2
    71   159   158    2
    72   158   157    1
    73    77    76    1
    74   154   155   ar
    75   154   152   ar
    76   157   156    1
    77   155   153   ar
    78   167   166    2
    79    81    80    1
    80   166   165    1
    81    18    17    1
    82   156   147   am
    83    10     9    1
    84    10    11    1
    85    80    82    1
    86    80    79    1
    87   152   150   ar
    88    35    34    1
    89    35    36    2
    90    76    79    1
    91    76    75    1
    92   153   151   ar
    93    38    36    1
    94    11    13   am
    95    11    12    2
    96    34    33    1
    97   168   165    1
    98   168   169    1
    99   165   164    1
   100    13    14    1
   101    33    32    1
   102    36    37    1
   103   145   146    1
   104   150   151   ar
   105   150   149    1
   106   147   146    1
   107   147   148    2
   108    17    14    1
   109    32    29    1
   110    14    15    1
   111   146   149    1
   112   169   170    1
   113   170   171    1
   114    29    28    1
   115    29    30    1
   116    66    65    2
   117    15    16    2
   118    15    19   am
   119    19    20    1
   120    58    57    2
   121   171   172    1
   122    30    31    2
   123    30    39   am
   124    65    64    1
   125    64    67    1
   126    64    63    1
   127    39    40    1
   128    69    71   ar
   129    69    68   ar
   130    57    63   am
   131    57    56    1
   132    67    68    1
   133    20    21    1
   134    20    23    1
   135    61    59    1
   136    21    22    2
   137    71    73   ar
   138    68    70   ar
   139    24    23    1
   140    24    25    1
   141    27    25   am
   142    44    43    1
   143    40    43    1
   144    40    41    1
   145    56    59    1
   146    56    55    1
   147   180   182   ar
   148   180   178   ar
   149   182   181   ar
   150    59    60    1
   151    25    26    2
   152    73    74    1
   153    73    72   ar
   154    70    72   ar
   155    41    42    2
   156    60    62    1
   157   181   179   ar
   158   178   177    1
   159   178   179   ar
   160   177   174    1
   161    48    47    2
   162   174   173    1
   163   174   175    1
   164   176   175    2
   165    47    46    1
   166    52    54   ar
   167    52    50   ar
   168   194   193    1
   169    46    49    1
   170    46    45    1
   171    54    53   ar
   172    50    49    1
   173    50    51   ar
   174   193   192   ar
   175   193   191   ar
   176    53    51   ar
   177   192   190   ar
   178   191   189   ar
   179   190   188   ar
   180   189   188   ar
   181   188   187    1
   182   187   184    1
   183   184   183    1
   184   184   185    1
   185   185   186    2
