@<TRIPOS>MOLECULE
tmp/3pbbA00.pdb
 156 155 0 0 0
SMALL
GASTEIGER

@<TRIPOS>ATOM
      1  N         -9.0090   74.3540   -2.8870 N.3   127  ASP127     -0.1239
      2  CA        -8.9700   74.8660   -1.4940 C.3   127  ASP127      0.1674
      3  C        -10.2740   75.6000   -1.0640 C.2   127  ASP127      0.2266
      4  O        -10.2720   76.8460   -1.0500 O.2   127  ASP127     -0.2867
      5  CB        -7.8030   75.8920   -1.4890 C.3   127  ASP127      0.1410
      6  CG        -7.3800   76.3420   -0.0730 C.2   127  ASP127      0.3668
      7  OD1       -8.0030   75.8090    0.8880 O.co2 127  ASP127     -0.2456
      8  OD2       -6.4420   77.2380    0.0210 O.co2 127  ASP127     -0.2456
      9  N        -12.2880   78.4360    7.9000 N.3   163  GLU163     -0.1231
     10  CA       -11.0630   77.7350    8.0670 C.3   163  GLU163      0.1699
     11  C         -9.9590   78.7660    7.9020 C.2   163  GLU163      0.2592
     12  O         -9.0220   78.8370    8.7500 O.2   163  GLU163     -0.2718
     13  CB       -10.9350   76.5410    7.0970 C.3   163  GLU163      0.0402
     14  CG        -9.6570   75.6790    7.2960 C.3   163  GLU163      0.1161
     15  CD        -8.4430   76.0950    6.4660 C.2   163  GLU163      0.3649
     16  OE1       -8.5210   76.9990    5.5770 O.co2 163  GLU163     -0.2457
     17  OE2       -7.3690   75.4510    6.6940 O.co2 163  GLU163     -0.2457
     18  N        -10.0920   79.5860    6.8630 N.am  164  GLU164     -0.1979
     19  CA        -9.0790   80.5780    6.5470 C.3   164  GLU164      0.1602
     20  C         -8.9640   81.8180    7.4550 C.2   164  GLU164      0.2287
     21  O         -9.9630   82.3370    8.0030 O.2   164  GLU164     -0.2864
     22  CB        -9.2740   81.0240    5.0950 C.3   164  GLU164      0.0415
     23  CG        -9.3230   79.7910    4.2280 C.3   164  GLU164      0.1163
     24  CD        -7.9480   79.3270    3.5860 C.2   164  GLU164      0.3649
     25  OE1       -6.8730   79.4530    4.1600 O.co2 164  GLU164     -0.2457
     26  OE2       -7.9620   78.7630    2.4670 O.co2 164  GLU164     -0.2457
     27  N         -2.5830   84.0750    9.0860 N.3   169  TRP169     -0.1241
     28  CA        -2.7460   82.8170    9.7720 C.3   169  TRP169      0.1605
     29  C         -2.1840   82.9130   11.1900 C.2   169  TRP169      0.2264
     30  O         -0.9610   83.1290   11.3990 O.2   169  TRP169     -0.2867
     31  CB        -2.0360   81.7520    8.9990 C.3   169  TRP169      0.0550
     32  CG        -2.3360   80.3890    9.4800 C.ar  169  TRP169      0.0003
     33  CD1       -1.5650   79.6280   10.2840 C.ar  169  TRP169      0.0946
     34  CD2       -3.4940   79.6250    9.1690 C.ar  169  TRP169      0.0152
     35  NE1       -2.1680   78.4240   10.5210 N.ar  169  TRP169     -0.2442
     36  CE2       -3.3660   78.3880    9.8550 C.ar  169  TRP169      0.0810
     37  CE3       -4.6400   79.8680    8.3940 C.ar  169  TRP169      0.0012
     38  CZ2       -4.3490   77.3770    9.7960 C.ar  169  TRP169      0.0191
     39  CZ3       -5.6560   78.8570    8.3460 C.ar  169  TRP169      0.0001
     40  CH2       -5.4760   77.6160    8.9880 C.ar  169  TRP169      0.0015
     41  N         -8.4330   68.2570    2.1910 N.3   210  ASP210     -0.1225
     42  CA        -8.0530   69.6560    1.9420 C.3   210  ASP210      0.1805
     43  C         -7.0460   69.6580    0.8130 C.2   210  ASP210      0.2597
     44  O         -6.2270   68.7460    0.7080 O.2   210  ASP210     -0.2718
     45  CB        -7.4310   70.2550    3.2150 C.3   210  ASP210      0.1424
     46  CG        -7.5200   71.8000    3.2520 C.2   210  ASP210      0.3668
     47  OD1       -7.8530   72.4460    2.2090 O.co2 210  ASP210     -0.2456
     48  OD2       -7.2750   72.3580    4.3400 O.co2 210  ASP210     -0.2456
     49  N         -7.1550   70.6660   -0.0610 N.am  211  LEU211     -0.1979
     50  CA        -6.1780   70.9320   -1.0960 C.3   211  LEU211      0.1596
     51  C         -6.1060   69.7860   -2.1180 C.2   211  LEU211      0.2287
     52  O         -4.9970   69.3560   -2.5260 O.2   211  LEU211     -0.2864
     53  CB        -4.7870   71.2520   -0.4940 C.3   211  LEU211      0.0297
     54  CG        -4.7420   72.3920    0.5440 C.3   211  LEU211      0.0022
     55  CD1       -3.2920   72.7590    0.8590 C.3   211  LEU211      0.0001
     56  CD2       -5.5410   73.6330    0.0840 C.3   211  LEU211      0.0001
     57  N          6.2710   62.0110    8.2920 N.3   261  TYR261     -0.1241
     58  CA         6.3850   63.4550    8.1520 C.3   261  TYR261      0.1605
     59  C          6.9910   64.1260    9.3970 C.2   261  TYR261      0.2264
     60  O          6.9330   63.5620   10.5010 O.2   261  TYR261     -0.2867
     61  CB         4.9950   63.9990    7.8310 C.3   261  TYR261      0.0534
     62  CG         4.9840   65.3280    7.1160 C.ar  261  TYR261     -0.0201
     63  CD1        4.4490   66.4530    7.7450 C.ar  261  TYR261     -0.0009
     64  CD2        5.4980   65.4670    5.8160 C.ar  261  TYR261     -0.0009
     65  CE1        4.4220   67.6890    7.1170 C.ar  261  TYR261      0.0417
     66  CE2        5.4710   66.7070    5.1760 C.ar  261  TYR261      0.0417
     67  CZ         4.9260   67.8110    5.8370 C.ar  261  TYR261      0.1957
     68  OH         4.8630   69.0580    5.2610 O.3   261  TYR261     -0.2866
     69  N          3.2000   68.7600   11.8380 N.3   264  VAL264     -0.1231
     70  CA         1.8280   68.5940   11.3840 C.3   264  VAL264      0.1692
     71  C          1.4950   69.9030   10.6770 C.2   264  VAL264      0.2592
     72  O          2.1560   70.9520   10.8450 O.2   264  VAL264     -0.2718
     73  CB         0.8570   68.2030   12.5480 C.3   264  VAL264      0.0266
     74  CG1       -0.6840   68.2470   12.1040 C.3   264  VAL264      0.0020
     75  CG2        1.2550   66.8100   13.1120 C.3   264  VAL264      0.0020
     76  N          0.5090   69.8300    9.8350 N.am  265  ILE265     -0.1966
     77  CA         0.0930   70.9670    9.1490 C.3   265  ILE265      0.1727
     78  C         -1.1840   71.4000    9.8470 C.2   265  ILE265      0.2616
     79  O         -2.0810   70.5690   10.0630 O.2   265  ILE265     -0.2715
     80  CB        -0.1600   70.5700    7.7040 C.3   265  ILE265      0.0290
     81  CG1        1.2010   70.2430    7.0790 C.3   265  ILE265      0.0022
     82  CG2       -0.9570   71.6820    6.9910 C.3   265  ILE265      0.0023
     83  CD1        1.1650   69.7430    5.6910 C.3   265  ILE265      0.0001
     84  N         -1.2650   72.6720   10.2040 N.am  266  GLN266     -0.1963
     85  CA        -2.4370   73.2150   10.9030 C.3   266  GLN266      0.1733
     86  C         -3.6770   73.2330    9.9830 C.2   266  GLN266      0.2616
     87  O         -3.5650   73.6450    8.8630 O.2   266  GLN266     -0.2715
     88  CB        -2.1190   74.6170   11.4260 C.3   266  GLN266      0.0408
     89  CG        -1.0550   74.5660   12.5920 C.3   266  GLN266      0.0908
     90  CD        -0.3260   75.8790   12.7820 C.2   266  GLN266      0.2608
     91  OE1       -0.9340   76.9450   12.6400 O.2   266  GLN266     -0.2717
     92  NE2        0.9830   75.8200   13.1250 N.am  266  GLN266     -0.0878
     93  N         -4.8340   72.7770   10.4780 N.am  267  ASP267     -0.1971
     94  CA        -6.0440   72.6960    9.6440 C.3   267  ASP267      0.1709
     95  C         -7.2040   72.3960   10.5640 C.2   267  ASP267      0.2293
     96  O         -7.0470   72.3480   11.7840 O.2   267  ASP267     -0.2864
     97  CB        -5.8980   71.6150    8.5550 C.3   267  ASP267      0.1436
     98  CG        -6.7630   71.8830    7.3130 C.2   267  ASP267      0.3671
     99  OD1       -7.7340   72.6670    7.3490 O.co2 267  ASP267     -0.2456
    100  OD2       -6.4880   71.2960    6.2710 O.co2 267  ASP267     -0.2456
    101  N         -4.4170   65.7900    3.2460 N.3   283  ILE283     -0.1245
    102  CA        -3.9150   66.9880    2.5960 C.3   283  ILE283      0.1561
    103  C         -2.5510   66.6370    1.9170 C.2   283  ILE283      0.2260
    104  O         -1.7030   65.9960    2.5550 O.2   283  ILE283     -0.2867
    105  CB        -3.7740   68.1450    3.6790 C.3   283  ILE283      0.0252
    106  CG1       -3.5170   69.5060    3.0110 C.3   283  ILE283      0.0019
    107  CG2       -2.7040   67.7970    4.6890 C.3   283  ILE283      0.0019
    108  CD1       -3.5920   70.7090    3.9970 C.3   283  ILE283      0.0001
    109  N          1.3250   67.1100    0.5320 N.3   285  SER285     -0.1203
    110  CA         2.5080   67.8600    0.9050 C.3   285  SER285      0.2005
    111  C          3.6320   67.4220   -0.0430 C.2   285  SER285      0.2461
    112  O          4.0250   66.2710    0.0070 O.2   285  SER285     -0.2732
    113  CB         2.8660   67.5290    2.3610 C.3   285  SER285      0.2103
    114  OG         3.9900   68.3010    2.7830 O.3   285  SER285     -0.2182
    115  N          4.1360   68.3010   -0.9270 N.am  286  PRO286     -0.2717
    116  CA         3.9170   69.7150   -1.2690 C.3   286  PRO286      0.1535
    117  C          2.4470   70.0240   -1.4960 C.2   286  PRO286      0.2598
    118  O          1.6690   69.1510   -1.9150 O.2   286  PRO286     -0.2715
    119  CB         4.6690   69.9020   -2.6200 C.3   286  PRO286      0.0310
    120  CG         5.1680   68.4540   -3.0290 C.3   286  PRO286      0.0237
    121  CD         5.2840   67.7440   -1.6740 C.3   286  PRO286      0.0939
    122  N          2.1000   71.2770   -1.2350 N.am  287  PHE287     -0.1974
    123  CA         0.7560   71.7820   -1.4320 C.3   287  PHE287      0.1639
    124  C          0.7130   71.9780   -2.9290 C.2   287  PHE287      0.2290
    125  O          1.7830   72.0680   -3.5440 O.2   287  PHE287     -0.2864
    126  CB         0.6130   73.1480   -0.7690 C.3   287  PHE287      0.0560
    127  CG         0.2980   73.0990    0.6860 C.ar  287  PHE287     -0.0200
    128  CD1        0.2380   71.9010    1.3780 C.ar  287  PHE287     -0.0042
    129  CD2        0.0420   74.2830    1.3670 C.ar  287  PHE287     -0.0042
    130  CE1       -0.0790   71.8940    2.7980 C.ar  287  PHE287     -0.0003
    131  CE2       -0.2690   74.2880    2.7120 C.ar  287  PHE287     -0.0003
    132  CZ        -0.3330   73.0820    3.4330 C.ar  287  PHE287     -0.0000
    133  N         -1.4350   76.8530   -4.8920 N.3   291  TRP291     -0.1227
    134  CA        -1.8870   77.2530   -3.5430 C.3   291  TRP291      0.1737
    135  C         -1.8850   78.7700   -3.2260 C.2   291  TRP291      0.2595
    136  O         -0.8450   79.4530   -3.3330 O.2   291  TRP291     -0.2718
    137  CB        -1.0820   76.5040   -2.5160 C.3   291  TRP291      0.0564
    138  CG        -1.6330   76.6600   -1.0280 C.ar  291  TRP291      0.0003
    139  CD1       -2.7060   76.0350   -0.5070 C.ar  291  TRP291      0.0946
    140  CD2       -1.0590   77.4470    0.0350 C.ar  291  TRP291      0.0152
    141  NE1       -2.9000   76.4300    0.8040 N.ar  291  TRP291     -0.2442
    142  CE2       -1.8910   77.2860    1.1690 C.ar  291  TRP291      0.0810
    143  CE3        0.0450   78.3310    0.1170 C.ar  291  TRP291      0.0012
    144  CZ2       -1.6120   77.8920    2.4170 C.ar  291  TRP291      0.0191
    145  CZ3        0.3020   78.9770    1.3310 C.ar  291  TRP291      0.0001
    146  CH2       -0.5140   78.7250    2.4860 C.ar  291  TRP291      0.0015
    147  N         -3.0510   79.2980   -2.8250 N.am  292  HIS292     -0.1975
    148  CA        -3.2360   80.6920   -2.3700 C.3   292  HIS292      0.1656
    149  C         -2.8350   81.7010   -3.4440 C.2   292  HIS292      0.2291
    150  O         -2.1770   82.6930   -3.1830 O.2   292  HIS292     -0.2864
    151  CB        -2.5540   80.9120   -0.9830 C.3   292  HIS292      0.0771
    152  CG        -3.3430   80.3370    0.1700 C.ar  292  HIS292      0.0820
    153  ND1       -3.1140   80.6910    1.4760 N.ar  292  HIS292     -0.2267
    154  CD2       -4.3790   79.4580    0.2040 C.ar  292  HIS292      0.1154
    155  CE1       -3.9710   80.0690    2.2740 C.ar  292  HIS292      0.1986
    156  NE2       -4.7570   79.3200    1.5320 N.ar  292  HIS292     -0.2212
@<TRIPOS>BOND
     1   133   134    1
     2   125   124    2
     3   134   135    1
     4   134   137    1
     5   149   150    2
     6   149   148    1
     7   136   135    2
     8   135   147   am
     9   120   119    1
    10   120   121    1
    11   124   123    1
    12     1     2    1
    13   147   148    1
    14   119   116    1
    15    52    51    2
    16   137   138    1
    17   148   151    1
    18    51    50    1
    19   118   117    2
    20   121   115    1
    21   117   116    1
    22   117   122   am
    23     2     5    1
    24     2     3    1
    25     5     6    1
    26   123   122    1
    27   123   126    1
    28   116   115    1
    29    50    53    1
    30    50    49    1
    31     3     4    2
    32   138   139   ar
    33   138   140   ar
    34   151   152    1
    35   115   111   am
    36   126   127    1
    37   139   141   ar
    38    53    54    1
    39     6     8   ar
    40     6     7   ar
    41    49    43   am
    42   111   112    2
    43   111   110    1
    44   140   143   ar
    45   140   142   ar
    46    56    54    1
    47   143   145   ar
    48   152   154   ar
    49   152   153   ar
    50   154   156   ar
    51   109   110    1
    52    54    55    1
    53   127   129   ar
    54   127   128   ar
    55    44    43    2
    56   141   142   ar
    57    43    42    1
    58   110   113    1
    59   142   144   ar
    60   145   146   ar
    61   129   131   ar
    62   128   130   ar
    63   153   155   ar
    64   156   155   ar
    65   103   104    2
    66   103   102    1
    67    42    41    1
    68    42    45    1
    69    47    46   ar
    70   113   114    1
    71   144   146   ar
    72    26    24   ar
    73   102   101    1
    74   102   105    1
    75   131   132   ar
    76   130   132   ar
    77   106   105    1
    78   106   108    1
    79    45    46    1
    80    46    48   ar
    81    24    25   ar
    82    24    23    1
    83   105   107    1
    84    23    22    1
    85    22    19    1
    86    66    64   ar
    87    66    67   ar
    88    68    67    1
    89    16    15   ar
    90    83    81    1
    91    64    62   ar
    92    67    65   ar
    93   100    98   ar
    94    15    17   ar
    95    15    14    1
    96    19    18    1
    97    19    20    1
    98    18    11   am
    99    82    80    1
   100    81    80    1
   101    13    14    1
   102    13    10    1
   103    62    63   ar
   104    62    61    1
   105    65    63   ar
   106    98    99   ar
   107    98    97    1
   108    20    21    2
   109    80    77    1
   110    61    58    1
   111     9    10    1
   112    11    10    1
   113    11    12    2
   114    58    57    1
   115    58    59    1
   116    39    37   ar
   117    39    40   ar
   118    37    34   ar
   119    97    94    1
   120    87    86    2
   121    40    38   ar
   122    31    32    1
   123    31    28    1
   124    27    28    1
   125    77    76    1
   126    77    78    1
   127    34    32   ar
   128    34    36   ar
   129    59    60    2
   130    32    33   ar
   131    94    93    1
   132    94    95    1
   133    28    29    1
   134    38    36   ar
   135    76    71   am
   136    78    79    2
   137    78    84   am
   138    36    35   ar
   139    86    93   am
   140    86    85    1
   141    84    85    1
   142    33    35   ar
   143    95    96    2
   144    71    72    2
   145    71    70    1
   146    85    88    1
   147    29    30    2
   148    70    69    1
   149    70    73    1
   150    88    89    1
   151    74    73    1
   152    73    75    1
   153    89    90    1
   154    91    90    2
   155    90    92   am
