@<TRIPOS>MOLECULE
tmp/3pblA01.pdb
 134 128 0 0 0
SMALL
GASTEIGER

@<TRIPOS>ATOM
      1  N          6.0360    3.5260  -35.9790 N.3   200  GLU200     -0.1245
      2  CA         6.7690    4.7950  -36.0000 C.3   200  GLU200      0.1567
      3  C          6.9160    5.3890  -34.6050 C.2   200  GLU200      0.2260
      4  O          8.0080    5.7960  -34.2040 O.2   200  GLU200     -0.2867
      5  CB         6.0460    5.8170  -36.8820 C.3   200  GLU200      0.0388
      6  CG         5.8810    5.4030  -38.3400 C.3   200  GLU200      0.1160
      7  CD         7.0500    5.8300  -39.2190 C.2   200  GLU200      0.3649
      8  OE1        7.1160    7.0320  -39.5970 O.co2 200  GLU200     -0.2457
      9  OE2        7.8890    4.9540  -39.5400 O.co2 200  GLU200     -0.2457
     10  N         16.1620   11.5480  -36.4020 N.3   209  ASP209     -0.1225
     11  CA        15.7310   10.1740  -36.6580 C.3   209  ASP209      0.1805
     12  C         16.9190    9.1990  -36.8240 C.2   209  ASP209      0.2598
     13  O         18.0560    9.5360  -36.4890 O.2   209  ASP209     -0.2718
     14  CB        14.7700   10.1340  -37.8600 C.3   209  ASP209      0.1424
     15  CG        15.4630   10.3370  -39.2000 C.2   209  ASP209      0.3668
     16  OD1       16.6530   10.7380  -39.2470 O.co2 209  ASP209     -0.2456
     17  OD2       14.7910   10.0950  -40.2210 O.co2 209  ASP209     -0.2456
     18  N         16.6510    7.9920  -37.3290 N.am  210  THR210     -0.1939
     19  CA        17.6870    6.9610  -37.4730 C.3   210  THR210      0.2028
     20  C         18.7800    7.3650  -38.4620 C.2   210  THR210      0.2642
     21  O         19.9200    6.9450  -38.3080 O.2   210  THR210     -0.2714
     22  CB        17.0950    5.5870  -37.9140 C.3   210  THR210      0.1808
     23  OG1       16.6730    5.6470  -39.2850 O.3   210  THR210     -0.2208
     24  CG2       15.9160    5.1700  -37.0170 C.3   210  THR210      0.0379
     25  N         18.4210    8.1640  -39.4720 N.am  211  GLU211     -0.1976
     26  CA        19.3760    8.6710  -40.4660 C.3   211  GLU211      0.1602
     27  C         20.1020    9.9120  -39.9790 C.2   211  GLU211      0.2287
     28  O         21.1530   10.2730  -40.5130 O.2   211  GLU211     -0.2864
     29  CB        18.6840    9.0060  -41.7870 C.3   211  GLU211      0.0415
     30  CG        17.9220    7.8420  -42.4170 C.3   211  GLU211      0.1163
     31  CD        16.4030    7.9270  -42.1940 C.2   211  GLU211      0.3649
     32  OE1       15.8440    7.0220  -41.5190 O.co2 211  GLU211     -0.2457
     33  OE2       15.7760    8.9010  -42.6970 O.co2 211  GLU211     -0.2457
     34  N         13.0020   15.4020  -37.1620 N.3   215  THR215     -0.1218
     35  CA        11.7020   14.7910  -37.2930 C.3   215  THR215      0.1862
     36  C         10.8370   15.1540  -36.0900 C.2   215  THR215      0.2287
     37  O         11.3490   15.5640  -35.0590 O.2   215  THR215     -0.2866
     38  CB        11.8860   13.2780  -37.4050 C.3   215  THR215      0.1770
     39  OG1       12.6290   12.9860  -38.5970 O.3   215  THR215     -0.2211
     40  CG2       10.5480   12.5480  -37.4500 C.3   215  THR215      0.0375
     41  N          6.7920    9.9140  -37.1320 N.3   219  GLY219     -0.1210
     42  CA         7.7510    9.8030  -38.2160 C.3   219  GLY219      0.1956
     43  C          7.7600   10.8870  -39.2790 C.2   219  GLY219      0.2612
     44  O          8.2190   10.6230  -40.3800 O.2   219  GLY219     -0.2717
     45  N          7.2840   12.0950  -38.9750 N.am  220  HIS220     -0.1961
     46  CA         7.2830   13.1780  -39.9770 C.3   220  HIS220      0.1787
     47  C          8.6530   13.8390  -40.1160 C.2   220  HIS220      0.2620
     48  O          9.0560   14.5900  -39.2430 O.2   220  HIS220     -0.2715
     49  CB         6.2360   14.2610  -39.6610 C.3   220  HIS220      0.0785
     50  CG         6.2380   15.4020  -40.6380 C.ar  220  HIS220      0.0821
     51  ND1        5.5950   15.3440  -41.8590 N.ar  220  HIS220     -0.2267
     52  CD2        6.8240   16.6240  -40.5820 C.ar  220  HIS220      0.1154
     53  CE1        5.7750   16.4830  -42.5070 C.ar  220  HIS220      0.1986
     54  NE2        6.5190   17.2760  -41.7560 N.ar  220  HIS220     -0.2212
     55  N          9.3460   13.5840  -41.2220 N.am  221  LEU221     -0.1977
     56  CA        10.6170   14.2480  -41.4830 C.3   221  LEU221      0.1596
     57  C         10.3600   15.6990  -41.8130 C.2   221  LEU221      0.2287
     58  O          9.6170   16.0030  -42.7510 O.2   221  LEU221     -0.2864
     59  CB        11.3820   13.6000  -42.6410 C.3   221  LEU221      0.0297
     60  CG        12.7820   14.1790  -42.8950 C.3   221  LEU221      0.0022
     61  CD1       13.7540   13.1080  -43.3750 C.3   221  LEU221      0.0001
     62  CD2       12.7150   15.3150  -43.8810 C.3   221  LEU221      0.0001
     63  N          0.3130   12.9680  -44.1080 N.3   259  ASP259     -0.1239
     64  CA         1.4180   12.1650  -44.6230 C.3   259  ASP259      0.1674
     65  C          0.9240   10.8430  -45.1720 C.2   259  ASP259      0.2266
     66  O          1.4800   10.3300  -46.1450 O.2   259  ASP259     -0.2867
     67  CB         2.4760   11.9150  -43.5400 C.3   259  ASP259      0.1410
     68  CG         3.2320   13.1820  -43.1490 C.2   259  ASP259      0.3668
     69  OD1        3.1570   14.1790  -43.9060 O.co2 259  ASP259     -0.2456
     70  OD2        3.8980   13.1770  -42.0850 O.co2 259  ASP259     -0.2456
     71  N          1.1390    9.6560  -48.9330 N.3   263  ALA263     -0.1245
     72  CA         1.6180    8.3030  -49.1940 C.3   263  ALA263      0.1562
     73  C          0.6910    7.5840  -50.1640 C.2   263  ALA263      0.2260
     74  O          1.1750    6.9780  -51.1150 O.2   263  ALA263     -0.2867
     75  CB         1.7690    7.5140  -47.9020 C.3   263  ALA263      0.0290
     76  N          6.1400    2.3720  -47.7780 N.3   292  VAL292     -0.1231
     77  CA         6.3940    3.6520  -48.4490 C.3   292  VAL292      0.1692
     78  C          6.5550    4.7540  -47.4160 C.2   292  VAL292      0.2592
     79  O          7.2950    5.7170  -47.6240 O.2   292  VAL292     -0.2718
     80  CB         5.2800    4.0200  -49.4520 C.3   292  VAL292      0.0266
     81  CG1        5.3740    5.4810  -49.8480 C.3   292  VAL292      0.0020
     82  CG2        5.3600    3.1340  -50.6830 C.3   292  VAL292      0.0020
     83  N          5.8800    4.6040  -46.2880 N.am  293  PHE293     -0.1962
     84  CA         6.0730    5.5360  -45.2010 C.3   293  PHE293      0.1771
     85  C          7.5060    5.4030  -44.7370 C.2   293  PHE293      0.2619
     86  O          8.2340    6.3810  -44.6690 O.2   293  PHE293     -0.2715
     87  CB         5.1220    5.2400  -44.0580 C.3   293  PHE293      0.0574
     88  CG         4.6050    6.4630  -43.3630 C.ar  293  PHE293     -0.0200
     89  CD1        3.4650    7.1070  -43.8290 C.ar  293  PHE293     -0.0042
     90  CD2        5.2320    6.9440  -42.2200 C.ar  293  PHE293     -0.0042
     91  CE1        2.9670    8.2090  -43.1720 C.ar  293  PHE293     -0.0003
     92  CE2        4.7450    8.0470  -41.5550 C.ar  293  PHE293     -0.0003
     93  CZ         3.6110    8.6840  -42.0300 C.ar  293  PHE293     -0.0000
     94  N          7.9180    4.1780  -44.4520 N.am  294  GLN294     -0.1963
     95  CA         9.2830    3.9280  -44.0080 C.3   294  GLN294      0.1733
     96  C         10.3320    4.3400  -45.0400 C.2   294  GLN294      0.2616
     97  O         11.3560    4.9150  -44.6680 O.2   294  GLN294     -0.2715
     98  CB         9.4770    2.4490  -43.6520 C.3   294  GLN294      0.0408
     99  CG        10.8540    2.1040  -43.0290 C.3   294  GLN294      0.0908
    100  CD        10.9330    0.6730  -42.4930 C.2   294  GLN294      0.2608
    101  OE1       10.0120   -0.1290  -42.6730 O.2   294  GLN294     -0.2717
    102  NE2       12.0380    0.3520  -41.8340 N.am  294  GLN294     -0.0878
    103  N         10.0730    4.0610  -46.3190 N.am  295  MET295     -0.1963
    104  CA        11.1240    4.0790  -47.3440 C.3   295  MET295      0.1736
    105  C         10.9000    4.9940  -48.5580 C.2   295  MET295      0.2617
    106  O         11.7830    5.0940  -49.4110 O.2   295  MET295     -0.2715
    107  CB        11.3540    2.6500  -47.8380 C.3   295  MET295      0.0427
    108  CG        11.8620    1.7070  -46.7600 C.3   295  MET295      0.0599
    109  SD        12.0920    0.0160  -47.3590 S.3   295  MET295     -0.1393
    110  CE        10.3690   -0.5150  -47.4870 C.3   295  MET295      0.0692
    111  N          9.7470    5.6510  -48.6490 N.am  296  GLY296     -0.1940
    112  CA         9.4440    6.5190  -49.7960 C.3   296  GLY296      0.2014
    113  C          9.0410    5.7750  -51.0650 C.2   296  GLY296      0.2638
    114  O          9.5000    4.6530  -51.3050 O.2   296  GLY296     -0.2714
    115  N          8.2080    6.4150  -51.8940 N.am  297  GLU297     -0.1977
    116  CA         7.5770    5.7540  -53.0550 C.3   297  GLU297      0.1602
    117  C          8.5550    5.0430  -54.0030 C.2   297  GLU297      0.2287
    118  O          8.2040    4.0220  -54.5940 O.2   297  GLU297     -0.2864
    119  CB         6.7090    6.7440  -53.8470 C.3   297  GLU297      0.0415
    120  CG         5.6690    7.5230  -53.0340 C.3   297  GLU297      0.1163
    121  CD         6.1700    8.8830  -52.5590 C.2   297  GLU297      0.3649
    122  OE1        7.0560    9.4730  -53.2220 O.co2 297  GLU297     -0.2457
    123  OE2        5.6680    9.3630  -51.5190 O.co2 297  GLU297     -0.2457
    124  N         10.2500   -4.4870  -37.4130 N.3   334  ARG334     -0.1245
    125  CA         9.2640   -3.8100  -38.2410 C.3   334  ARG334      0.1563
    126  C          9.0390   -4.5530  -39.5460 C.2   334  ARG334      0.2260
    127  O          7.9280   -4.5740  -40.0670 O.2   334  ARG334     -0.2867
    128  CB         9.6880   -2.3790  -38.5530 C.3   334  ARG334      0.0307
    129  CG         8.5470   -1.5710  -39.1530 C.3   334  ARG334      0.0489
    130  CD         8.9130   -0.1220  -39.4340 C.3   334  ARG334      0.2205
    131  NE         7.8130    0.5800  -40.0950 N.pl3 334  ARG334     -0.0865
    132  CZ         7.8040    1.8820  -40.3660 C.cat 334  ARG334      0.5346
    133  NH1        8.8420    2.6490  -40.0480 N.pl3 334  ARG334      0.1354
    134  NH2        6.7440    2.4300  -40.9540 N.pl3 334  ARG334      0.1354
@<TRIPOS>BOND
     1   118   117    2
     2   117   116    1
     3   119   116    1
     4   119   120    1
     5   122   121   ar
     6   116   115    1
     7   120   121    1
     8   121   123   ar
     9   115   113   am
    10   114   113    2
    11    74    73    2
    12   113   112    1
    13    82    80    1
    14    73    72    1
    15    81    80    1
    16   112   111    1
    17    80    77    1
    18   106   105    2
    19    72    71    1
    20    72    75    1
    21   111   105   am
    22   105   104    1
    23    77    76    1
    24    77    78    1
    25   107   104    1
    26   107   108    1
    27    79    78    2
    28   110   109    1
    29    78    83   am
    30   109   108    1
    31   104   103    1
    32   103    96   am
    33    83    84    1
    34    66    65    2
    35    84    85    1
    36    84    87    1
    37    65    64    1
    38    96    97    2
    39    96    95    1
    40    85    86    2
    41    85    94   am
    42    64    63    1
    43    64    67    1
    44    94    95    1
    45    87    88    1
    46    95    98    1
    47    69    68   ar
    48    62    60    1
    49    89    88   ar
    50    89    91   ar
    51    98    99    1
    52    67    68    1
    53    61    60    1
    54    88    90   ar
    55    91    93   ar
    56    68    70   ar
    57    99   100    1
    58    60    59    1
    59    58    57    2
    60    33    31   ar
    61   101   100    2
    62    59    56    1
    63    53    51   ar
    64    53    54   ar
    65   100   102   am
    66    30    31    1
    67    30    29    1
    68    90    92   ar
    69    31    32   ar
    70    93    92   ar
    71    51    50   ar
    72    57    56    1
    73    29    26    1
    74    54    52   ar
    75    56    55    1
    76    55    47   am
    77   134   132    1
    78    50    52   ar
    79    50    49    1
    80    28    27    2
    81    26    27    1
    82    26    25    1
    83    44    43    2
    84   132   131    2
    85   132   133    1
    86    17    15   ar
    87    47    46    1
    88    47    48    2
    89   131   130    1
    90   127   126    2
    91    46    49    1
    92    46    45    1
    93     8     7   ar
    94   126   125    1
    95     9     7   ar
    96    25    20   am
    97   130   129    1
    98    23    22    1
    99    43    45   am
   100    43    42    1
   101    16    15   ar
   102     7     6    1
   103    15    14    1
   104   129   128    1
   105    39    38    1
   106   128   125    1
   107    20    21    2
   108    20    19    1
   109     6     5    1
   110   125   124    1
   111    42    41    1
   112    22    19    1
   113    22    24    1
   114    14    11    1
   115    19    18    1
   116    40    38    1
   117    38    35    1
   118    18    12   am
   119    35    34    1
   120    35    36    1
   121     5     2    1
   122    12    11    1
   123    12    13    2
   124    11    10    1
   125    36    37    2
   126     2     1    1
   127     2     3    1
   128     3     4    2
