@<TRIPOS>MOLECULE
tmp/3pblA00.pdb
 183 176 0 0 0
SMALL
GASTEIGER

@<TRIPOS>ATOM
      1  N          5.1660  -25.0480   12.5010 N.3    55  VAL55      -0.1245
      2  CA         3.7060  -25.1970   12.4920 C.3    55  VAL55       0.1561
      3  C          3.3000  -26.6330   12.8260 C.2    55  VAL55       0.2260
      4  O          2.2690  -26.8590   13.4530 O.2    55  VAL55      -0.2867
      5  CB         3.0900  -24.7990   11.1240 C.3    55  VAL55       0.0252
      6  CG1        1.5880  -25.0870   11.0920 C.3    55  VAL55       0.0019
      7  CG2        3.3560  -23.3360   10.8270 C.3    55  VAL55       0.0019
      8  N          3.9380  -26.9990   16.8170 N.3    58  LEU58      -0.1245
      9  CA         2.8480  -26.3920   17.5970 C.3    58  LEU58       0.1561
     10  C          1.5260  -27.1370   17.4360 C.2    58  LEU58       0.2260
     11  O          0.6160  -26.9610   18.2390 O.2    58  LEU58      -0.2867
     12  CB         2.6360  -24.9160   17.2200 C.3    58  LEU58       0.0270
     13  CG         3.5630  -23.8580   17.8310 C.3    58  LEU58       0.0019
     14  CD1        3.0990  -22.4590   17.4480 C.3    58  LEU58       0.0001
     15  CD2        3.6330  -23.9830   19.3420 C.3    58  LEU58       0.0001
     16  N         10.6450  -17.5520   13.6150 N.3    75  PHE75      -0.1227
     17  CA         9.5430  -18.3480   13.0670 C.3    75  PHE75       0.1736
     18  C          8.3660  -17.4960   12.6070 C.2    75  PHE75       0.2595
     19  O          7.8680  -17.6840   11.5050 O.2    75  PHE75      -0.2718
     20  CB         9.0590  -19.3840   14.0830 C.3    75  PHE75       0.0547
     21  CG         7.6190  -19.7810   13.9050 C.ar   75  PHE75      -0.0202
     22  CD1        7.2570  -20.7010   12.9430 C.ar   75  PHE75      -0.0042
     23  CD2        6.6230  -19.2270   14.7030 C.ar   75  PHE75      -0.0042
     24  CE1        5.9230  -21.0740   12.7750 C.ar   75  PHE75      -0.0003
     25  CE2        5.2860  -19.5940   14.5420 C.ar   75  PHE75      -0.0003
     26  CZ         4.9380  -20.5180   13.5750 C.ar   75  PHE75      -0.0000
     27  N          7.9160  -16.5670   13.4410 N.am   76  VAL76      -0.1980
     28  CA         6.7740  -15.7410   13.0570 C.3    76  VAL76       0.1595
     29  C          7.1410  -14.7340   11.9560 C.2    76  VAL76       0.2287
     30  O          6.3450  -14.5400   11.0430 O.2    76  VAL76      -0.2864
     31  CB         6.0950  -15.0270   14.2610 C.3    76  VAL76       0.0276
     32  CG1        4.8910  -14.2470   13.8030 C.3    76  VAL76       0.0022
     33  CG2        5.6500  -16.0280   15.2870 C.3    76  VAL76       0.0022
     34  N          7.2490  -16.4850    8.5480 N.3    79  ASP79      -0.1225
     35  CA         5.8640  -16.7180    8.1350 C.3    79  ASP79       0.1805
     36  C          5.2020  -15.4600    7.5300 C.2    79  ASP79       0.2597
     37  O          4.5000  -15.5450    6.5160 O.2    79  ASP79      -0.2718
     38  CB         5.0360  -17.2410    9.3090 C.3    79  ASP79       0.1424
     39  CG         3.7010  -17.8200    8.8700 C.2    79  ASP79       0.3668
     40  OD1        3.6410  -18.5420    7.8460 O.co2  79  ASP79      -0.2456
     41  OD2        2.7000  -17.5560    9.5620 O.co2  79  ASP79      -0.2456
     42  N          5.4370  -14.2980    8.1320 N.am   80  VAL80      -0.1980
     43  CA         4.9340  -13.0410    7.5710 C.3    80  VAL80       0.1595
     44  C          5.6610  -12.6760    6.2620 C.2    80  VAL80       0.2287
     45  O          5.0450  -12.2290    5.2870 O.2    80  VAL80      -0.2864
     46  CB         5.0850  -11.8700    8.5670 C.3    80  VAL80       0.0276
     47  CG1        4.5390  -10.5810    7.9690 C.3    80  VAL80       0.0022
     48  CG2        4.3820  -12.1790    9.8640 C.3    80  VAL80       0.0022
     49  N          4.6680  -14.8730    3.1540 N.3    83  CYS83      -0.1235
     50  CA         3.3290  -14.5030    2.7090 C.3    83  CYS83       0.1677
     51  C          3.2910  -13.1020    2.1090 C.2    83  CYS83       0.2270
     52  O          2.5710  -12.8670    1.1430 O.2    83  CYS83      -0.2867
     53  CB         2.3210  -14.6040    3.8400 C.3    83  CYS83       0.0956
     54  SG         0.6360  -14.4790    3.2360 S.3    83  CYS83      -0.0801
     55  N          3.1980  -18.7860   21.2770 N.3   150  CYS150     -0.1221
     56  CA         3.9640  -18.1450   20.1990 C.3   150  CYS150      0.1808
     57  C          3.0290  -17.8130   19.0320 C.2   150  CYS150      0.2602
     58  O          2.6790  -18.6810   18.2330 O.2   150  CYS150     -0.2717
     59  CB         5.1020  -19.0770   19.7370 C.3   150  CYS150      0.0970
     60  SG         6.0870  -18.5400   18.2730 S.3   150  CYS150     -0.0800
     61  N          2.6220  -16.5510   18.9470 N.am  151  SER151     -0.1938
     62  CA         1.6860  -16.1100   17.9120 C.3   151  SER151      0.2055
     63  C          1.6790  -14.5860   17.7960 C.2   151  SER151      0.2642
     64  O          2.0950  -13.8840   18.7310 O.2   151  SER151     -0.2714
     65  CB         0.2730  -16.5830   18.2450 C.3   151  SER151      0.2130
     66  OG        -0.1750  -15.9870   19.4540 O.3   151  SER151     -0.2179
     67  N          1.2000  -14.0850   16.6550 N.am  152  ILE152     -0.1977
     68  CA         1.0490  -12.6460   16.4570 C.3   152  ILE152      0.1596
     69  C         -0.1980  -12.2160   17.1890 C.2   152  ILE152      0.2287
     70  O         -1.3110  -12.4700   16.7240 O.2   152  ILE152     -0.2864
     71  CB         0.9310  -12.2460   14.9720 C.3   152  ILE152      0.0276
     72  CG1        2.2570  -12.4690   14.2570 C.3   152  ILE152      0.0022
     73  CG2        0.5730  -10.7820   14.8430 C.3   152  ILE152      0.0022
     74  CD1        2.2010  -12.1930   12.7850 C.3   152  ILE152      0.0001
     75  N         -0.9020   -6.2140   13.6920 N.3   158  VAL158     -0.1245
     76  CA        -1.8850   -7.0120   12.9420 C.3   158  VAL158      0.1561
     77  C         -2.6570   -6.1650   11.9250 C.2   158  VAL158      0.2260
     78  O         -2.8600   -6.5830   10.7790 O.2   158  VAL158     -0.2867
     79  CB        -2.8820   -7.7390   13.8960 C.3   158  VAL158      0.0252
     80  CG1       -4.2000   -8.0510   13.1920 C.3   158  VAL158      0.0019
     81  CG2       -2.2670   -9.0170   14.4390 C.3   158  VAL158      0.0019
     82  N          0.0460   -5.0620    9.1530 N.3   161  SER161     -0.1202
     83  CA         0.3940   -6.1220    8.2160 C.3   161  SER161      0.2020
     84  C         -0.7670   -6.4170    7.2930 C.2   161  SER161      0.2619
     85  O         -0.5750   -6.4780    6.0830 O.2   161  SER161     -0.2717
     86  CB         0.8260   -7.4010    8.9190 C.3   161  SER161      0.2103
     87  OG         1.1660   -8.3740    7.9450 O.3   161  SER161     -0.2182
     88  N         -1.9640   -6.5770    7.8590 N.am  162  SER162     -0.1951
     89  CA        -3.1690   -6.8530    7.0710 C.3   162  SER162      0.1924
     90  C         -3.3390   -5.8940    5.8840 C.2   162  SER162      0.2314
     91  O         -3.6290   -6.3270    4.7630 O.2   162  SER162     -0.2863
     92  CB        -4.3930   -6.7610    7.9590 C.3   162  SER162      0.2116
     93  OG        -4.5380   -5.4430    8.4340 O.3   162  SER162     -0.2180
     94  N          0.3060   -6.3360    3.8820 N.3   165  SER165     -0.1217
     95  CA         0.5080   -7.7150    3.4070 C.3   165  SER165      0.1889
     96  C         -0.5940   -7.9310    2.3760 C.2   165  SER165      0.2288
     97  O         -0.3060   -8.2340    1.2150 O.2   165  SER165     -0.2866
     98  CB         0.8510   -8.6740    4.5580 C.3   165  SER165      0.2089
     99  OG         2.1310   -8.3980    5.0980 O.3   165  SER165     -0.2183
    100  N         -6.2450  -17.2090    1.2600 N.3   374  TRP374     -0.1241
    101  CA        -5.7770  -16.3070    2.3140 C.3   374  TRP374      0.1605
    102  C         -6.8250  -15.3200    2.8510 C.2   374  TRP374      0.2264
    103  O         -6.6740  -14.8340    3.9660 O.2   374  TRP374     -0.2867
    104  CB        -4.5150  -15.5580    1.8560 C.3   374  TRP374      0.0550
    105  CG        -3.2500  -16.4010    1.9110 C.ar  374  TRP374      0.0003
    106  CD1       -2.5680  -16.9340    0.8500 C.ar  374  TRP374      0.0946
    107  CD2       -2.5300  -16.8000    3.0860 C.ar  374  TRP374      0.0152
    108  NE1       -1.4710  -17.6400    1.2930 N.ar  374  TRP374     -0.2442
    109  CE2       -1.4260  -17.5750    2.6610 C.ar  374  TRP374      0.0810
    110  CE3       -2.7130  -16.5830    4.4560 C.ar  374  TRP374      0.0012
    111  CZ2       -0.5080  -18.1260    3.5570 C.ar  374  TRP374      0.0191
    112  CZ3       -1.7990  -17.1380    5.3490 C.ar  374  TRP374      0.0001
    113  CH2       -0.7120  -17.9000    4.8930 C.ar  374  TRP374      0.0015
    114  N         -8.3650  -16.3870    6.3230 N.3   377  PHE377     -0.1227
    115  CA        -7.4680  -16.1140    7.4450 C.3   377  PHE377      0.1736
    116  C         -7.4740  -14.6440    7.8570 C.2   377  PHE377      0.2595
    117  O         -7.7100  -14.3170    9.0170 O.2   377  PHE377     -0.2718
    118  CB        -6.0390  -16.5440    7.1020 C.3   377  PHE377      0.0547
    119  CG        -5.0390  -16.2310    8.1780 C.ar  377  PHE377     -0.0202
    120  CD1       -4.8710  -17.0860    9.2580 C.ar  377  PHE377     -0.0042
    121  CD2       -4.2670  -15.0760    8.1150 C.ar  377  PHE377     -0.0042
    122  CE1       -3.9500  -16.7930   10.2620 C.ar  377  PHE377     -0.0003
    123  CE2       -3.3420  -14.7770    9.1080 C.ar  377  PHE377     -0.0003
    124  CZ        -3.1840  -15.6350   10.1820 C.ar  377  PHE377     -0.0000
    125  N         -7.2150  -13.7580    6.9050 N.am  378  PHE378     -0.1976
    126  CA        -7.0740  -12.3390    7.2210 C.3   378  PHE378      0.1639
    127  C         -8.3470  -11.7310    7.8180 C.2   378  PHE378      0.2290
    128  O         -8.2850  -10.7310    8.5310 O.2   378  PHE378     -0.2864
    129  CB        -6.5880  -11.5550    5.9950 C.3   378  PHE378      0.0560
    130  CG        -5.0920  -11.6160    5.7990 C.ar  378  PHE378     -0.0200
    131  CD1       -4.2740  -10.5980    6.2690 C.ar  378  PHE378     -0.0042
    132  CD2       -4.5010  -12.7020    5.1690 C.ar  378  PHE378     -0.0042
    133  CE1       -2.8950  -10.6580    6.0990 C.ar  378  PHE378     -0.0003
    134  CE2       -3.1240  -12.7680    4.9950 C.ar  378  PHE378     -0.0003
    135  CZ        -2.3230  -11.7480    5.4630 C.ar  378  PHE378     -0.0000
    136  N         -8.2730  -13.7910   11.6530 N.3   381  HIS381     -0.1226
    137  CA        -7.2080  -13.3370   12.5580 C.3   381  HIS381      0.1752
    138  C         -7.3980  -11.8830   13.0070 C.2   381  HIS381      0.2595
    139  O         -7.0600  -11.5350   14.1370 O.2   381  HIS381     -0.2718
    140  CB        -5.8190  -13.5200   11.9270 C.3   381  HIS381      0.0759
    141  CG        -4.6970  -13.4850   12.9220 C.ar  381  HIS381      0.0818
    142  ND1       -4.0970  -14.6270   13.4090 N.ar  381  HIS381     -0.2268
    143  CD2       -4.0780  -12.4470   13.5350 C.ar  381  HIS381      0.1154
    144  CE1       -3.1530  -14.2950   14.2740 C.ar  381  HIS381      0.1986
    145  NE2       -3.1210  -12.9770   14.3680 N.ar  381  HIS381     -0.2212
    146  N         -7.9340  -11.0420   12.1280 N.am  382  VAL382     -0.1980
    147  CA        -8.2750   -9.6660   12.4910 C.3   382  VAL382      0.1595
    148  C         -9.4040   -9.6450   13.5170 C.2   382  VAL382      0.2287
    149  O         -9.3340   -8.9350   14.5180 O.2   382  VAL382     -0.2864
    150  CB        -8.6990   -8.8420   11.2570 C.3   382  VAL382      0.0276
    151  CG1       -9.4990   -7.6170   11.6780 C.3   382  VAL382      0.0022
    152  CG2       -7.4710   -8.4390   10.4370 C.3   382  VAL382      0.0022
    153  N        -10.0900  -21.5840   13.2700 N.3   397  TYR397     -0.1241
    154  CA        -8.7910  -20.9340   13.0670 C.3   397  TYR397      0.1605
    155  C         -7.7530  -21.8670   12.4370 C.2   397  TYR397      0.2264
    156  O         -7.0270  -21.4610   11.5280 O.2   397  TYR397     -0.2867
    157  CB        -8.2600  -20.3720   14.3910 C.3   397  TYR397      0.0534
    158  CG        -6.9500  -19.6140   14.2660 C.ar  397  TYR397     -0.0201
    159  CD1       -6.9130  -18.3260   13.7300 C.ar  397  TYR397     -0.0009
    160  CD2       -5.7470  -20.1840   14.6880 C.ar  397  TYR397     -0.0009
    161  CE1       -5.7110  -17.6250   13.6130 C.ar  397  TYR397      0.0417
    162  CE2       -4.5410  -19.4920   14.5760 C.ar  397  TYR397      0.0417
    163  CZ        -4.5290  -18.2130   14.0390 C.ar  397  TYR397      0.1957
    164  OH        -3.3370  -17.5300   13.9330 O.3   397  TYR397     -0.2866
    165  N         -5.9200  -21.1970    8.6690 N.3   401  THR401     -0.1218
    166  CA        -4.4680  -21.2800    8.5400 C.3   401  THR401      0.1862
    167  C         -4.0880  -22.4430    7.6270 C.2   401  THR401      0.2287
    168  O         -3.2560  -22.2800    6.7360 O.2   401  THR401     -0.2866
    169  CB        -3.7840  -21.4680    9.9060 C.3   401  THR401      0.1770
    170  OG1       -4.5340  -22.4060   10.6770 O.3   401  THR401     -0.2211
    171  CG2       -3.7090  -20.1540   10.6710 C.3   401  THR401      0.0375
    172  N         -1.8830  -22.4340    3.8750 N.3   405  TYR405     -0.1241
    173  CA        -0.6720  -23.1730    3.5110 C.3   405  TYR405      0.1605
    174  C         -0.8880  -24.0960    2.3040 C.2   405  TYR405      0.2264
    175  O          0.0530  -24.3500    1.5400 O.2   405  TYR405     -0.2867
    176  CB        -0.1350  -23.9580    4.7140 C.3   405  TYR405      0.0534
    177  CG         0.4570  -23.0650    5.7830 C.ar  405  TYR405     -0.0201
    178  CD1        1.5940  -22.3110    5.5200 C.ar  405  TYR405     -0.0009
    179  CD2       -0.1190  -22.9640    7.0500 C.ar  405  TYR405     -0.0009
    180  CE1        2.1450  -21.4870    6.4780 C.ar  405  TYR405      0.0417
    181  CE2        0.4280  -22.1350    8.0180 C.ar  405  TYR405      0.0417
    182  CZ         1.5640  -21.4010    7.7200 C.ar  405  TYR405      0.1957
    183  OH         2.1380  -20.5710    8.6470 O.3   405  TYR405     -0.2866
@<TRIPOS>BOND
     1   106   108   ar
     2   106   105   ar
     3    52    51    2
     4    97    96    2
     5   100   101    1
     6   108   109   ar
     7   175   174    2
     8   104   105    1
     9   104   101    1
    10   105   107   ar
    11    51    50    1
    12   174   173    1
    13   101   102    1
    14    96    95    1
    15   109   107   ar
    16   109   111   ar
    17    50    49    1
    18    50    53    1
    19   102   103    2
    20   107   110   ar
    21    54    53    1
    22    95    94    1
    23    95    98    1
    24   173   172    1
    25   173   176    1
    26   111   113   ar
    27   110   112   ar
    28    98    99    1
    29   176   177    1
    30    91    90    2
    31   113   112   ar
    32   134   132   ar
    33   134   135   ar
    34   132   130   ar
    35    45    44    2
    36   135   133   ar
    37   178   177   ar
    38   178   180   ar
    39   177   179   ar
    40   130   129    1
    41   130   131   ar
    42    90    89    1
    43   129   126    1
    44    85    84    2
    45   133   131   ar
    46    44    43    1
    47   114   115    1
    48   180   182   ar
    49    37    36    2
    50   168   167    2
    51   125   126    1
    52   125   116   am
    53   179   181   ar
    54    89    88    1
    55    89    92    1
    56   118   115    1
    57   118   119    1
    58   126   127    1
    59    84    88   am
    60    84    83    1
    61   115   116    1
    62    36    42   am
    63    36    35    1
    64    43    42    1
    65    43    46    1
    66   167   166    1
    67   182   181   ar
    68   182   183    1
    69   127   128    2
    70    40    39   ar
    71   116   117    2
    72    87    86    1
    73    92    93    1
    74    47    46    1
    75   121   119   ar
    76   121   123   ar
    77    35    34    1
    78    35    38    1
    79   119   120   ar
    80    83    86    1
    81    83    82    1
    82   166   165    1
    83   166   169    1
    84    46    48    1
    85    39    38    1
    86    39    41   ar
    87   123   124   ar
    88   120   122   ar
    89   169   171    1
    90   169   170    1
    91   124   122   ar
    92   152   150    1
    93    78    77    2
    94     7     5    1
    95    30    29    2
    96     6     5    1
    97     5     2    1
    98   150   151    1
    99   150   147    1
   100    19    18    2
   101   156   155    2
   102   136   137    1
   103    77    76    1
   104   140   137    1
   105   140   141    1
   106    29    28    1
   107   146   147    1
   108   146   138   am
   109   155   154    1
   110   147   148    1
   111     2     1    1
   112     2     3    1
   113   137   138    1
   114    18    17    1
   115    18    27   am
   116    24    22   ar
   117    24    26   ar
   118    74    72    1
   119     3     4    2
   120   141   142   ar
   121   141   143   ar
   122    76    75    1
   123    76    79    1
   124    22    21   ar
   125   138   139    2
   126    28    27    1
   127    28    31    1
   128    17    16    1
   129    17    20    1
   130   154   153    1
   131   154   157    1
   132    80    79    1
   133   142   144   ar
   134   148   149    2
   135   143   145   ar
   136    26    25   ar
   137   161   159   ar
   138   161   163   ar
   139   159   158   ar
   140    32    31    1
   141    79    81    1
   142    21    20    1
   143    21    23   ar
   144   164   163    1
   145   163   162   ar
   146    72    71    1
   147    31    33    1
   148   158   157    1
   149   158   160   ar
   150   144   145   ar
   151    25    23   ar
   152   162   160   ar
   153    73    71    1
   154    71    68    1
   155    68    67    1
   156    68    69    1
   157    67    63   am
   158    70    69    2
   159     8     9    1
   160    12     9    1
   161    12    13    1
   162    10     9    1
   163    10    11    2
   164    14    13    1
   165    63    62    1
   166    63    64    2
   167    13    15    1
   168    62    65    1
   169    62    61    1
   170    58    57    2
   171    65    66    1
   172    60    59    1
   173    61    57   am
   174    57    56    1
   175    59    56    1
   176    56    55    1
