@<TRIPOS>MOLECULE
tmp/3pbmB00.pdb
 162 155 0 0 0
SMALL
GASTEIGER

@<TRIPOS>ATOM
      1  N         41.7960   30.8720   75.7860 N.3    15  HIS15      -0.1241
      2  CA        41.3990   31.8050   76.8140 C.3    15  HIS15       0.1621
      3  C         42.5130   32.8140   76.9530 C.2    15  HIS15       0.2264
      4  O         43.6760   32.4400   77.1120 O.2    15  HIS15      -0.2867
      5  CB        41.1720   31.0630   78.1150 C.3    15  HIS15       0.0745
      6  CG        40.1540   29.9760   77.9960 C.ar   15  HIS15       0.0817
      7  ND1       38.8190   30.1750   78.2850 N.ar   15  HIS15      -0.2268
      8  CD2       40.2660   28.6920   77.5780 C.ar   15  HIS15       0.1154
      9  CE1       38.1560   29.0550   78.0590 C.ar   15  HIS15       0.1986
     10  NE2       39.0110   28.1390   77.6380 N.ar   15  HIS15      -0.2212
     11  N         40.9480   19.5170   86.0410 N.3    53  LEU53      -0.1245
     12  CA        40.5040   20.8690   85.7160 C.3    53  LEU53       0.1561
     13  C         40.4810   21.7610   86.9440 C.2    53  LEU53       0.2260
     14  O         41.0520   22.8570   86.9410 O.2    53  LEU53      -0.2867
     15  CB        39.1020   20.8520   85.0770 C.3    53  LEU53       0.0270
     16  CG        38.5200   22.2160   84.6680 C.3    53  LEU53       0.0019
     17  CD1       39.4000   22.8990   83.6230 C.3    53  LEU53       0.0001
     18  CD2       37.0810   22.1020   84.1610 C.3    53  LEU53       0.0001
     19  N         43.7640   23.1940   88.1330 N.3    56  PHE56      -0.1227
     20  CA        44.1810   24.2440   87.2160 C.3    56  PHE56       0.1736
     21  C         43.3600   25.5260   87.4210 C.2    56  PHE56       0.2595
     22  O         43.9260   26.6250   87.5640 O.2    56  PHE56      -0.2718
     23  CB        44.0660   23.7630   85.7680 C.3    56  PHE56       0.0547
     24  CG        43.8120   24.8680   84.7710 C.ar   56  PHE56      -0.0202
     25  CD1       44.8250   25.7500   84.4080 C.ar   56  PHE56      -0.0042
     26  CD2       42.5570   25.0250   84.1840 C.ar   56  PHE56      -0.0042
     27  CE1       44.5980   26.7780   83.4650 C.ar   56  PHE56      -0.0003
     28  CE2       42.3130   26.0630   83.2510 C.ar   56  PHE56      -0.0003
     29  CZ        43.3440   26.9320   82.8880 C.ar   56  PHE56      -0.0000
     30  N         42.0290   25.3890   87.4430 N.am   57  LEU57      -0.1980
     31  CA        41.1530   26.5530   87.6030 C.3    57  LEU57       0.1596
     32  C         41.5160   27.3410   88.8670 C.2    57  LEU57       0.2287
     33  O         41.4930   28.5700   88.8770 O.2    57  LEU57      -0.2864
     34  CB        39.6840   26.1430   87.6430 C.3    57  LEU57       0.0297
     35  CG        39.0300   25.6940   86.3350 C.3    57  LEU57       0.0022
     36  CD1       37.5510   25.4590   86.5550 C.3    57  LEU57       0.0001
     37  CD2       39.2200   26.7330   85.2580 C.3    57  LEU57       0.0001
     38  N         44.4950   29.3320   88.0450 N.3    60  TYR60      -0.1227
     39  CA        44.1870   30.1510   86.8890 C.3    60  TYR60       0.1736
     40  C         43.4740   31.4300   87.3110 C.2    60  TYR60       0.2595
     41  O         43.7560   32.4880   86.7640 O.2    60  TYR60      -0.2718
     42  CB        43.3360   29.2870   85.9470 C.3    60  TYR60       0.0548
     43  CG        42.5930   29.9430   84.7920 C.ar   60  TYR60      -0.0200
     44  CD1       41.2020   30.0810   84.8420 C.ar   60  TYR60      -0.0009
     45  CD2       43.2510   30.3400   83.6300 C.ar   60  TYR60      -0.0009
     46  CE1       40.4870   30.6200   83.7980 C.ar   60  TYR60       0.0417
     47  CE2       42.5330   30.9030   82.5610 C.ar   60  TYR60       0.0417
     48  CZ        41.1420   31.0350   82.6590 C.ar   60  TYR60       0.1957
     49  OH        40.3790   31.5680   81.6310 O.3    60  TYR60      -0.2866
     50  N         42.5760   31.3250   88.2960 N.am   61  TYR61      -0.1976
     51  CA        41.7710   32.4600   88.7650 C.3    61  TYR61       0.1639
     52  C         42.5760   33.3770   89.6980 C.2    61  TYR61       0.2290
     53  O         42.4770   34.6200   89.6230 O.2    61  TYR61      -0.2864
     54  CB        40.4940   31.9640   89.4810 C.3    61  TYR61       0.0560
     55  CG        39.4540   31.3270   88.5750 C.ar   61  TYR61      -0.0198
     56  CD1       38.9980   31.9820   87.4320 C.ar   61  TYR61      -0.0009
     57  CD2       38.8940   30.0780   88.8780 C.ar   61  TYR61      -0.0009
     58  CE1       38.0290   31.4080   86.6090 C.ar   61  TYR61       0.0417
     59  CE2       37.9230   29.4950   88.0550 C.ar   61  TYR61       0.0417
     60  CZ        37.4980   30.1660   86.9240 C.ar   61  TYR61       0.1957
     61  OH        36.5510   29.6000   86.1020 O.3    61  TYR61      -0.2866
     62  N         36.7530   35.9790   80.2460 N.3    97  ASP97      -0.1239
     63  CA        35.8230   35.6500   81.3250 C.3    97  ASP97       0.1674
     64  C         35.5340   36.9370   82.0730 C.2    97  ASP97       0.2266
     65  O         36.1560   37.2080   83.1020 O.2    97  ASP97      -0.2867
     66  CB        36.4650   34.6610   82.3270 C.3    97  ASP97       0.1410
     67  CG        36.8370   33.3130   81.7060 C.2    97  ASP97       0.3668
     68  OD1       36.2560   32.9210   80.6740 O.co2  97  ASP97      -0.2456
     69  OD2       37.7210   32.6320   82.2770 O.co2  97  ASP97      -0.2456
     70  N         32.3620   28.2150   80.2220 N.3   165  ASP165     -0.1225
     71  CA        33.5820   27.5640   80.6750 C.3   165  ASP165      0.1805
     72  C         33.5920   27.4880   82.1850 C.2   165  ASP165      0.2598
     73  O         32.5540   27.7400   82.8130 O.2   165  ASP165     -0.2718
     74  CB        34.8630   28.2140   80.0940 C.3   165  ASP165      0.1424
     75  CG        35.0350   29.7100   80.4760 C.2   165  ASP165      0.3668
     76  OD1       34.1530   30.3170   81.1580 O.co2 165  ASP165     -0.2456
     77  OD2       36.0920   30.2690   80.0860 O.co2 165  ASP165     -0.2456
     78  N         34.7460   27.1160   82.7460 N.am  166  SER166     -0.1952
     79  CA        34.8750   26.8070   84.1700 C.3   166  SER166      0.1924
     80  C         34.4430   25.3570   84.5030 C.2   166  SER166      0.2314
     81  O         34.3310   24.5130   83.6140 O.2   166  SER166     -0.2863
     82  CB        34.0980   27.8070   85.0020 C.3   166  SER166      0.2116
     83  OG        34.5130   27.7460   86.3390 O.3   166  SER166     -0.2180
     84  N         33.0160   21.9650   84.7700 N.3   168  GLU168     -0.1245
     85  CA        31.9880   21.3820   83.9140 C.3   168  GLU168      0.1567
     86  C         31.0250   20.3980   84.6180 C.2   168  GLU168      0.2260
     87  O         29.7940   20.5660   84.5750 O.2   168  GLU168     -0.2867
     88  CB        32.5920   20.7670   82.6360 C.3   168  GLU168      0.0388
     89  CG        31.5230   20.5040   81.5780 C.3   168  GLU168      0.1160
     90  CD        32.0040   19.6480   80.4410 C.2   168  GLU168      0.3649
     91  OE1       33.2030   19.3230   80.4290 O.co2 168  GLU168     -0.2457
     92  OE2       31.1880   19.3040   79.5520 O.co2 168  GLU168     -0.2457
     93  N         31.9230   24.8400   75.9790 N.3   193  HIS193     -0.1241
     94  CA        32.7490   23.7480   76.4410 C.3   193  HIS193      0.1621
     95  C         31.7810   22.6380   76.8110 C.2   193  HIS193      0.2264
     96  O         30.9060   22.8160   77.6760 O.2   193  HIS193     -0.2867
     97  CB        33.5140   24.1570   77.7070 C.3   193  HIS193      0.0745
     98  CG        34.7070   25.0260   77.4620 C.ar  193  HIS193      0.0817
     99  ND1       34.6340   26.2520   76.8270 N.ar  193  HIS193     -0.2268
    100  CD2       36.0100   24.8730   77.8120 C.ar  193  HIS193      0.1154
    101  CE1       35.8330   26.7980   76.7780 C.ar  193  HIS193      0.1986
    102  NE2       36.6830   25.9850   77.3770 N.ar  193  HIS193     -0.2212
    103  N         34.5950   17.7960   77.9820 N.3   196  GLU196     -0.1245
    104  CA        35.9380   17.8200   78.5380 C.3   196  GLU196      0.1567
    105  C         36.0030   16.8370   79.7020 C.2   196  GLU196      0.2260
    106  O         36.5690   15.7530   79.5760 O.2   196  GLU196     -0.2867
    107  CB        36.2990   19.2260   79.0010 C.3   196  GLU196      0.0388
    108  CG        37.7910   19.4270   79.2060 C.3   196  GLU196      0.1160
    109  CD        38.1310   20.7890   79.7810 C.2   196  GLU196      0.3649
    110  OE1       37.2100   21.6240   79.9980 O.co2 196  GLU196     -0.2457
    111  OE2       39.3370   21.0190   80.0140 O.co2 196  GLU196     -0.2457
    112  N         36.3020   21.4810   73.1510 N.3   217  HIS217     -0.1241
    113  CA        36.7890   20.1670   73.5970 C.3   217  HIS217      0.1621
    114  C         35.9820   19.0750   72.8940 C.2   217  HIS217      0.2264
    115  O         36.2250   18.7770   71.7210 O.2   217  HIS217     -0.2867
    116  CB        36.7610   19.9960   75.1130 C.3   217  HIS217      0.0745
    117  CG        37.8120   20.7870   75.8300 C.ar  217  HIS217      0.0817
    118  ND1       39.1550   20.4580   75.7930 N.ar  217  HIS217     -0.2268
    119  CD2       37.7210   21.9020   76.5970 C.ar  217  HIS217      0.1154
    120  CE1       39.8410   21.3370   76.5070 C.ar  217  HIS217      0.1986
    121  NE2       38.9930   22.2210   77.0070 N.ar  217  HIS217     -0.2212
    122  N         46.2010   20.6340   76.7670 N.3   243  SER243     -0.1217
    123  CA        45.2100   20.7540   77.8320 C.3   243  SER243      0.1889
    124  C         44.6670   19.3880   78.2530 C.2   243  SER243      0.2288
    125  O         44.7900   19.0130   79.4030 O.2   243  SER243     -0.2866
    126  CB        44.0490   21.6510   77.3980 C.3   243  SER243      0.2089
    127  OG        42.9990   21.6260   78.3490 O.3   243  SER243     -0.2183
    128  N         45.4990   18.0720   81.9560 N.3   247  LEU247     -0.1245
    129  CA        44.3760   18.0420   82.8940 C.3   247  LEU247      0.1561
    130  C         43.9240   16.6210   83.1630 C.2   247  LEU247      0.2260
    131  O         43.0580   16.3850   84.0010 O.2   247  LEU247     -0.2867
    132  CB        43.2170   18.8890   82.4060 C.3   247  LEU247      0.0270
    133  CG        43.5190   20.3810   82.2640 C.3   247  LEU247      0.0019
    134  CD1       42.2180   21.1060   81.9090 C.3   247  LEU247      0.0001
    135  CD2       44.1740   20.9840   83.5180 C.3   247  LEU247      0.0001
    136  N         44.2720   26.3790   73.9850 N.3   271  ASP271     -0.1225
    137  CA        43.3950   26.4510   75.1660 C.3   271  ASP271      0.1805
    138  C         43.7920   27.4440   76.2790 C.2   271  ASP271      0.2597
    139  O         43.1180   28.4390   76.5000 O.2   271  ASP271     -0.2718
    140  CB        43.2260   25.0550   75.7680 C.3   271  ASP271      0.1424
    141  CG        42.0020   24.9470   76.6470 C.2   271  ASP271      0.3668
    142  OD1       41.2840   25.9470   76.8070 O.co2 271  ASP271     -0.2456
    143  OD2       41.7590   23.8520   77.1770 O.co2 271  ASP271     -0.2456
    144  N         44.8540   27.1310   77.0080 N.am  272  ASP272     -0.1974
    145  CA        45.3860   27.9740   78.0850 C.3   272  ASP272      0.1709
    146  C         46.8940   27.7700   78.1050 C.2   272  ASP272      0.2293
    147  O         47.4230   27.1370   79.0200 O.2   272  ASP272     -0.2864
    148  CB        44.8090   27.5700   79.4460 C.3   272  ASP272      0.1436
    149  CG        43.3450   27.9780   79.6180 C.2   272  ASP272      0.3671
    150  OD1       43.0620   29.1800   79.8720 O.co2 272  ASP272     -0.2456
    151  OD2       42.4770   27.0820   79.5150 O.co2 272  ASP272     -0.2456
    152  N         49.7360   25.2680   80.0880 N.3   276  PHE276     -0.1241
    153  CA        49.9230   23.9030   79.6560 C.3   276  PHE276      0.1605
    154  C         51.2120   23.7270   78.8510 C.2   276  PHE276      0.2264
    155  O         51.4040   22.6960   78.2400 O.2   276  PHE276     -0.2867
    156  CB        48.7450   23.4820   78.7830 C.3   276  PHE276      0.0534
    157  CG        47.3870   23.6930   79.4280 C.ar  276  PHE276     -0.0203
    158  CD1       47.2180   23.5590   80.8000 C.ar  276  PHE276     -0.0042
    159  CD2       46.2820   23.9900   78.6570 C.ar  276  PHE276     -0.0042
    160  CE1       45.9750   23.7300   81.3880 C.ar  276  PHE276     -0.0003
    161  CE2       45.0420   24.1500   79.2390 C.ar  276  PHE276     -0.0003
    162  CZ        44.8880   24.0130   80.6100 C.ar  276  PHE276     -0.0000
@<TRIPOS>BOND
     1   115   114    2
     2   114   113    1
     3   112   113    1
     4   113   116    1
     5   136   137    1
     6   116   117    1
     7   137   140    1
     8   137   138    1
     9   140   141    1
    10     1     2    1
    11   118   117   ar
    12   118   120   ar
    13   117   119   ar
    14    93    94    1
    15   138   139    2
    16   138   144   am
    17    94    95    1
    18    94    97    1
    19   120   121   ar
    20   119   121   ar
    21   141   142   ar
    22   141   143   ar
    23   122   123    1
    24   101    99   ar
    25   101   102   ar
    26    95    96    2
    27     2     3    1
    28     2     5    1
    29    99    98   ar
    30     3     4    2
    31   144   145    1
    32   102   100   ar
    33   126   123    1
    34   126   127    1
    35    98    97    1
    36    98   100   ar
    37     8    10   ar
    38     8     6   ar
    39    10     9   ar
    40   123   124    1
    41   103   104    1
    42     6     5    1
    43     6     7   ar
    44     9     7   ar
    45   145   146    1
    46   145   148    1
    47   146   147    2
    48   155   154    2
    49   124   125    2
    50   104   107    1
    51   104   105    1
    52   159   161   ar
    53   159   157   ar
    54   156   157    1
    55   156   153    1
    56   154   153    1
    57   107   108    1
    58   108   109    1
    59   161   162   ar
    60   157   158   ar
    61   148   149    1
    62   151   149   ar
    63    92    90   ar
    64   106   105    2
    65   149   150   ar
    66   153   152    1
    67   109   110   ar
    68   109   111   ar
    69    77    75   ar
    70    74    75    1
    71    74    71    1
    72    70    71    1
    73    62    63    1
    74    91    90   ar
    75    90    89    1
    76    75    76   ar
    77   162   160   ar
    78    68    67   ar
    79    71    72    1
    80   158   160   ar
    81    63    64    1
    82    63    66    1
    83    89    88    1
    84    49    48    1
    85    67    69   ar
    86    67    66    1
    87   134   133    1
    88   128   129    1
    89    64    65    2
    90    72    78   am
    91    72    73    2
    92   133   132    1
    93   133   135    1
    94   132   129    1
    95    47    48   ar
    96    47    45   ar
    97    88    85    1
    98    48    46   ar
    99    78    79    1
   100    29    28   ar
   101    29    27   ar
   102   129   130    1
   103   130   131    2
   104    28    26   ar
   105    27    25   ar
   106    81    80    2
   107    17    16    1
   108    45    43   ar
   109    46    44   ar
   110    85    86    1
   111    85    84    1
   112    18    16    1
   113    79    80    1
   114    79    82    1
   115    26    24   ar
   116    25    24   ar
   117    87    86    2
   118    16    15    1
   119    24    23    1
   120    43    44   ar
   121    43    42    1
   122    82    83    1
   123    15    12    1
   124    37    35    1
   125    12    11    1
   126    12    13    1
   127    23    20    1
   128    42    39    1
   129    61    60    1
   130    35    36    1
   131    35    34    1
   132    58    60   ar
   133    58    56   ar
   134    41    40    2
   135    39    40    1
   136    39    38    1
   137    60    59   ar
   138    14    13    2
   139    20    21    1
   140    20    19    1
   141    40    50   am
   142    21    30   am
   143    21    22    2
   144    56    55   ar
   145    30    31    1
   146    31    34    1
   147    31    32    1
   148    59    57   ar
   149    50    51    1
   150    55    57   ar
   151    55    54    1
   152    51    54    1
   153    51    52    1
   154    32    33    2
   155    53    52    2
