@<TRIPOS>MOLECULE
tmp/3pboA00.pdb
 161 157 0 0 0
SMALL
GASTEIGER

@<TRIPOS>ATOM
      1  N         11.7290   -8.2930    8.7380 N.3   213  GLU213     -0.1245
      2  CA        11.8760   -8.2080   10.1960 C.3   213  GLU213      0.1567
      3  C         10.5140   -8.5460   10.7930 C.2   213  GLU213      0.2260
      4  O          9.5160   -7.9260   10.4360 O.2   213  GLU213     -0.2867
      5  CB        12.3050   -6.8070   10.6300 C.3   213  GLU213      0.0388
      6  CG        13.7190   -6.4860   10.1750 C.3   213  GLU213      0.1160
      7  CD        14.4350   -5.4230   10.9860 C.2   213  GLU213      0.3649
      8  OE1       13.7520   -4.5860   11.6170 O.co2 213  GLU213     -0.2457
      9  OE2       15.6880   -5.4210   10.9780 O.co2 213  GLU213     -0.2457
     10  N          9.4660   -8.3280   13.8960 N.3   215  GLY215     -0.1210
     11  CA         9.0440   -7.4210   14.9500 C.3   215  GLY215      0.1956
     12  C          8.2690   -8.0860   16.0570 C.2   215  GLY215      0.2612
     13  O          8.6590   -9.1550   16.5320 O.2   215  GLY215     -0.2717
     14  N          7.1330   -7.4640   16.4470 N.am  216  SER216     -0.1952
     15  CA         6.3360   -7.8620   17.6030 C.3   216  SER216      0.1924
     16  C          5.8020   -9.2820   17.5440 C.2   216  SER216      0.2314
     17  O          5.4270   -9.8100   18.5840 O.2   216  SER216     -0.2863
     18  CB         5.2190   -6.8610   17.8750 C.3   216  SER216      0.2116
     19  OG         5.7680   -5.5620   18.1140 O.3   216  SER216     -0.2180
     20  N          7.7940    2.6470   23.1770 N.3   254  ASP254     -0.1225
     21  CA         6.4730    2.0630   22.9830 C.3   254  ASP254      0.1805
     22  C          5.6350    3.0400   22.1770 C.2   254  ASP254      0.2597
     23  O          5.8700    4.2450   22.2650 O.2   254  ASP254     -0.2718
     24  CB         5.7850    1.8180   24.3320 C.3   254  ASP254      0.1424
     25  CG         6.3580    0.6320   25.0960 C.2   254  ASP254      0.3668
     26  OD1        7.2470   -0.0660   24.5350 O.co2 254  ASP254     -0.2456
     27  OD2        5.9020    0.3890   26.2360 O.co2 254  ASP254     -0.2456
     28  N          4.6470    2.5400   21.4260 N.am  255  VAL255     -0.1980
     29  CA         3.7550    3.4230   20.6600 C.3   255  VAL255      0.1595
     30  C          2.7770    4.1000   21.6180 C.2   255  VAL255      0.2287
     31  O          2.5960    5.3140   21.5440 O.2   255  VAL255     -0.2864
     32  CB         3.0410    2.6980   19.4900 C.3   255  VAL255      0.0276
     33  CG1        1.8850    3.5470   18.9400 C.3   255  VAL255      0.0022
     34  CG2        4.0370    2.4140   18.3880 C.3   255  VAL255      0.0022
     35  N         -0.7440   -4.5700   24.5350 N.3   270  LYS270     -0.1231
     36  CA        -0.2860   -3.2230   24.2400 C.3   270  LYS270      0.1693
     37  C          0.9420   -3.2280   23.3180 C.2   270  LYS270      0.2592
     38  O          1.3130   -2.1840   22.8010 O.2   270  LYS270     -0.2718
     39  CB         0.0430   -2.4970   25.5570 C.3   270  LYS270      0.0285
     40  CG        -1.1570   -2.2830   26.4740 C.3   270  LYS270      0.0035
     41  CD        -1.5100   -0.8270   26.6040 C.3   270  LYS270      0.0206
     42  CE        -2.3050   -0.5680   27.8690 C.3   270  LYS270      0.1093
     43  NZ        -3.6640   -1.1760   27.8230 N.3   270  LYS270     -0.1314
     44  N          1.4930   -4.4160   23.0440 N.am  271  SER271     -0.1952
     45  CA         2.7180   -4.6550   22.2760 C.3   271  SER271      0.1924
     46  C          3.8070   -3.7030   22.7660 C.2   271  SER271      0.2314
     47  O          4.3470   -2.8890   22.0090 O.2   271  SER271     -0.2863
     48  CB         2.4850   -4.5980   20.7670 C.3   271  SER271      0.2116
     49  OG         3.4650   -5.4110   20.1420 O.3   271  SER271     -0.2180
     50  N          7.3200   -2.7400   23.7110 N.3   273  ASN273     -0.1240
     51  CA         8.7280   -3.0530   23.4950 C.3   273  ASN273      0.1653
     52  C          9.4840   -2.8690   24.7840 C.2   273  ASN273      0.2266
     53  O         10.3920   -3.6360   25.0880 O.2   273  ASN273     -0.2867
     54  CB         9.3070   -2.1210   22.4230 C.3   273  ASN273      0.1155
     55  CG         8.7500   -2.3600   21.0390 C.2   273  ASN273      0.2627
     56  OD1        8.2570   -3.4490   20.7130 O.2   273  ASN273     -0.2716
     57  ND2        8.7980   -1.3360   20.2070 N.am  273  ASN273     -0.0877
     58  N         12.1540   -8.0960   20.8860 N.3   329  TYR329     -0.1227
     59  CA        11.0680   -7.4840   20.1520 C.3   329  TYR329      0.1736
     60  C         11.1560   -7.6150   18.6010 C.2   329  TYR329      0.2596
     61  O         10.3910   -6.9820   17.8830 O.2   329  TYR329     -0.2718
     62  CB        10.6440   -6.0960   20.6810 C.3   329  TYR329      0.0548
     63  CG        11.6740   -4.9930   20.6100 C.ar  329  TYR329     -0.0200
     64  CD1       12.3180   -4.5440   21.7580 C.ar  329  TYR329     -0.0009
     65  CD2       11.8910   -4.2950   19.4230 C.ar  329  TYR329     -0.0009
     66  CE1       13.2000   -3.4600   21.7180 C.ar  329  TYR329      0.0417
     67  CE2       12.7540   -3.1980   19.3750 C.ar  329  TYR329      0.0417
     68  CZ        13.3880   -2.7750   20.5310 C.ar  329  TYR329      0.1957
     69  OH        14.2060   -1.6770   20.4770 O.3   329  TYR329     -0.2866
     70  N         12.0610   -8.4760   18.1210 N.am  330  GLY330     -0.1942
     71  CA        12.1140   -8.8480   16.7020 C.3   330  GLY330      0.2014
     72  C         12.6540   -7.8330   15.7290 C.2   330  GLY330      0.2638
     73  O         12.3900   -7.9150   14.5270 O.2   330  GLY330     -0.2714
     74  N         13.4940   -6.9280   16.2380 N.am  331  TYR331     -0.1973
     75  CA        14.1470   -5.9250   15.4060 C.3   331  TYR331      0.1639
     76  C         15.5430   -6.4700   15.0560 C.2   331  TYR331      0.2290
     77  O         16.2310   -7.0010   15.9200 O.2   331  TYR331     -0.2864
     78  CB        14.2530   -4.6020   16.1810 C.3   331  TYR331      0.0560
     79  CG        15.0120   -3.5180   15.4400 C.ar  331  TYR331     -0.0198
     80  CD1       14.3430   -2.5800   14.6600 C.ar  331  TYR331     -0.0009
     81  CD2       16.3990   -3.4230   15.5310 C.ar  331  TYR331     -0.0009
     82  CE1       15.0320   -1.5560   14.0030 C.ar  331  TYR331      0.0417
     83  CE2       17.1030   -2.4180   14.8610 C.ar  331  TYR331      0.0417
     84  CZ        16.4120   -1.4800   14.1080 C.ar  331  TYR331      0.1957
     85  OH        17.0940   -0.4890   13.4410 O.3   331  TYR331     -0.2866
     86  N         -0.1080   -9.3230   16.6030 N.3   407  SER407     -0.1202
     87  CA         0.1000   -8.4020   15.5000 C.3   407  SER407      0.2020
     88  C          1.5620   -7.9390   15.4930 C.2   407  SER407      0.2619
     89  O          2.2570   -8.0170   16.5130 O.2   407  SER407     -0.2717
     90  CB        -0.8410   -7.2080   15.6340 C.3   407  SER407      0.2103
     91  OG        -0.6840   -6.6560   16.9280 O.3   407  SER407     -0.2182
     92  N          1.9960   -7.4030   14.3670 N.am  408  GLY408     -0.1942
     93  CA         3.3320   -6.8220   14.2560 C.3   408  GLY408      0.2014
     94  C          3.2740   -5.6750   13.2690 C.2   408  GLY408      0.2640
     95  O          2.4550   -5.6980   12.3480 O.2   408  GLY408     -0.2714
     96  N          4.0890   -4.6360   13.4870 N.am  409  THR409     -0.1936
     97  CA         4.2260   -3.4950   12.5600 C.3   409  THR409      0.2028
     98  C          5.7100   -3.1920   12.5130 C.2   409  THR409      0.2642
     99  O          6.2980   -2.9160   13.5400 O.2   409  THR409     -0.2714
    100  CB         3.3990   -2.2760   12.9510 C.3   409  THR409      0.1808
    101  OG1        2.0730   -2.7110   13.2690 O.3   409  THR409     -0.2208
    102  CG2        3.3550   -1.2190   11.7940 C.3   409  THR409      0.0379
    103  N          6.3170   -3.2930   11.3430 N.am  410  ALA410     -0.1963
    104  CA         7.7480   -3.0440   11.1870 C.3   410  ALA410      0.1728
    105  C          7.9760   -1.8130   10.3100 C.2   410  ALA410      0.2616
    106  O          7.3600   -1.6840    9.2460 O.2   410  ALA410     -0.2715
    107  CB         8.4240   -4.2650   10.5660 C.3   410  ALA410      0.0334
    108  N          8.8070   -0.8810   10.7870 N.am  411  ARG411     -0.1977
    109  CA         9.1750    0.3110   10.0100 C.3   411  ARG411      0.1597
    110  C         10.3930   -0.1320    9.2120 C.2   411  ARG411      0.2287
    111  O         11.3810   -0.5780    9.7930 O.2   411  ARG411     -0.2864
    112  CB         9.5370    1.4860   10.9530 C.3   411  ARG411      0.0334
    113  CG         9.7440    2.7940   10.1780 C.3   411  ARG411      0.0492
    114  CD        10.6520    3.7560   10.9120 C.3   411  ARG411      0.2205
    115  NE         9.9700    4.4240   12.0200 N.pl3 411  ARG411     -0.0865
    116  CZ        10.5930    5.0110   13.0380 C.cat 411  ARG411      0.5346
    117  NH1       11.9200    5.0130   13.1030 N.pl3 411  ARG411      0.1354
    118  NH2        9.8940    5.5930   14.0030 N.pl3 411  ARG411      0.1354
    119  N          6.1560    0.7310    5.7580 N.3   415  TYR415     -0.1241
    120  CA         5.8750   -0.2840    6.7750 C.3   415  TYR415      0.1605
    121  C          5.5530   -1.6350    6.2270 C.2   415  TYR415      0.2264
    122  O          5.0990   -1.7560    5.0950 O.2   415  TYR415     -0.2867
    123  CB         4.6720    0.1420    7.6340 C.3   415  TYR415      0.0534
    124  CG         4.8430    1.4840    8.3030 C.ar  415  TYR415     -0.0201
    125  CD1        5.5480    1.6050    9.4990 C.ar  415  TYR415     -0.0009
    126  CD2        4.3110    2.6410    7.7350 C.ar  415  TYR415     -0.0009
    127  CE1        5.7440    2.8460   10.0980 C.ar  415  TYR415      0.0417
    128  CE2        4.4870    3.8850    8.3350 C.ar  415  TYR415      0.0417
    129  CZ         5.2040    3.9820    9.5140 C.ar  415  TYR415      0.1957
    130  OH         5.3480    5.2030   10.1240 O.3   415  TYR415     -0.2866
    131  N         -1.7110    1.4380    9.0210 N.3   444  TYR444     -0.1227
    132  CA        -0.5750    0.5970    8.6350 C.3   444  TYR444      0.1736
    133  C         -0.2520   -0.4350    9.7190 C.2   444  TYR444      0.2595
    134  O          0.5590   -1.3300    9.4630 O.2   444  TYR444     -0.2718
    135  CB         0.6810    1.4120    8.2730 C.3   444  TYR444      0.0548
    136  CG         1.0830    2.4060    9.3380 C.ar  444  TYR444     -0.0200
    137  CD1        1.9840    2.0580   10.3400 C.ar  444  TYR444     -0.0009
    138  CD2        0.5820    3.7060    9.3320 C.ar  444  TYR444     -0.0009
    139  CE1        2.3400    2.9590   11.3370 C.ar  444  TYR444      0.0417
    140  CE2        0.9490    4.6250   10.3170 C.ar  444  TYR444      0.0417
    141  CZ         1.8400    4.2490   11.3080 C.ar  444  TYR444      0.1957
    142  OH         2.2040    5.1410   12.2860 O.3   444  TYR444     -0.2866
    143  N         -0.8340   -0.2910   10.9260 N.am  445  PHE445     -0.1962
    144  CA        -0.5440   -1.2610   12.0030 C.3   445  PHE445      0.1771
    145  C         -1.0330   -2.6510   11.5980 C.2   445  PHE445      0.2620
    146  O         -2.1040   -2.7770   11.0010 O.2   445  PHE445     -0.2715
    147  CB        -1.2030   -0.8680   13.3420 C.3   445  PHE445      0.0574
    148  CG        -0.6580    0.3520   14.0550 C.ar  445  PHE445     -0.0200
    149  CD1        0.6350    0.8050   13.8130 C.ar  445  PHE445     -0.0042
    150  CD2       -1.4360    1.0410   14.9840 C.ar  445  PHE445     -0.0042
    151  CE1        1.1400    1.9330   14.4870 C.ar  445  PHE445     -0.0003
    152  CE2       -0.9280    2.1670   15.6500 C.ar  445  PHE445     -0.0003
    153  CZ         0.3490    2.6120   15.3810 C.ar  445  PHE445     -0.0000
    154  N         -0.2970   -3.6800   12.0080 N.am  446  GLY446     -0.1940
    155  CA        -0.6920   -5.0650   11.7510 C.3   446  GLY446      0.2014
    156  C         -2.1050   -5.4280   12.1880 C.2   446  GLY446      0.2639
    157  O         -2.8220   -6.1600   11.4900 O.2   446  GLY446     -0.2714
    158  N         -2.5270   -4.8970   13.3250 N.am  447  GLY447     -0.1954
    159  CA        -3.8680   -5.1790   13.8250 C.3   447  GLY447      0.1869
    160  C         -4.9920   -4.5370   13.0430 C.2   447  GLY447      0.2309
    161  O         -6.1470   -4.8950   13.2330 O.2   447  GLY447     -0.2863
@<TRIPOS>BOND
     1   122   121    2
     2   119   120    1
     3   121   120    1
     4   120   123    1
     5   123   124    1
     6   126   124   ar
     7   126   128   ar
     8   135   132    1
     9   135   136    1
    10   124   125   ar
    11   128   129   ar
    12   132   131    1
    13   132   133    1
    14     1     2    1
    15   110   111    2
    16   110   109    1
    17   106   105    2
    18   138   136   ar
    19   138   140   ar
    20   136   137   ar
    21   134   133    2
    22   125   127   ar
    23   129   127   ar
    24   129   130    1
    25   133   143   am
    26   109   108    1
    27   109   112    1
    28     6     5    1
    29     6     7    1
    30   113   114    1
    31   113   112    1
    32     2     5    1
    33     2     3    1
    34   105   108   am
    35   105   104    1
    36   140   141   ar
    37   137   139   ar
    38     4     3    2
    39   107   104    1
    40   114   115    1
    41   143   144    1
    42     9     7   ar
    43     7     8   ar
    44   146   145    2
    45   104   103    1
    46   141   139   ar
    47   141   142    1
    48   103    98   am
    49   157   156    2
    50   145   144    1
    51   145   154   am
    52   155   154    1
    53   155   156    1
    54   102   100    1
    55   144   147    1
    56   115   116    2
    57   156   158   am
    58    95    94    2
    59    98    97    1
    60    98    99    2
    61    97   100    1
    62    97    96    1
    63   100   101    1
    64   116   117    1
    65   116   118    1
    66   160   161    2
    67   160   159    1
    68    94    96   am
    69    94    93    1
    70   158   159    1
    71   147   148    1
    72    85    84    1
    73   149   148   ar
    74   149   151   ar
    75    10    11    1
    76    82    84   ar
    77    82    80   ar
    78   148   150   ar
    79    84    83   ar
    80    93    92    1
    81    92    88   am
    82   151   153   ar
    83    73    72    2
    84    80    79   ar
    85    83    81   ar
    86    11    12    1
    87   150   152   ar
    88    76    75    1
    89    76    77    2
    90   153   152   ar
    91    75    78    1
    92    75    74    1
    93    79    81   ar
    94    79    78    1
    95    88    87    1
    96    88    89    2
    97    87    90    1
    98    87    86    1
    99    90    91    1
   100    72    74   am
   101    72    71    1
   102    12    14   am
   103    12    13    2
   104    14    15    1
   105    71    70    1
   106    16    15    1
   107    16    17    2
   108    15    18    1
   109    18    19    1
   110    61    60    2
   111    70    60   am
   112    34    32    1
   113    60    59    1
   114    33    32    1
   115    67    65   ar
   116    67    68   ar
   117    65    63   ar
   118    32    29    1
   119    49    48    1
   120    59    62    1
   121    59    58    1
   122    57    55   am
   123    69    68    1
   124    68    66   ar
   125    63    62    1
   126    63    64   ar
   127    29    28    1
   128    29    30    1
   129    56    55    2
   130    48    45    1
   131    55    54    1
   132    28    22   am
   133    31    30    2
   134    66    64   ar
   135    47    46    2
   136    22    23    2
   137    22    21    1
   138    45    46    1
   139    45    44    1
   140    54    51    1
   141    38    37    2
   142    21    20    1
   143    21    24    1
   144    44    37   am
   145    37    36    1
   146    51    50    1
   147    51    52    1
   148    36    35    1
   149    36    39    1
   150    24    25    1
   151    26    25   ar
   152    52    53    2
   153    25    27   ar
   154    39    40    1
   155    40    41    1
   156    41    42    1
   157    43    42    1
