@<TRIPOS>MOLECULE
tmp/3pbqA00.pdb
 144 136 0 0 0
SMALL
GASTEIGER

@<TRIPOS>ATOM
      1  N         -8.0820   -7.2110  -16.0880 N.3   235  SER235     -0.1217
      2  CA        -7.2250   -7.6070  -17.1910 C.3   235  SER235      0.1889
      3  C         -6.6290   -8.9840  -17.0800 C.2   235  SER235      0.2288
      4  O         -6.2640   -9.5530  -18.1100 O.2   235  SER235     -0.2866
      5  CB        -6.1230   -6.5840  -17.4370 C.3   235  SER235      0.2089
      6  OG        -6.6720   -5.2860  -17.6790 O.3   235  SER235     -0.2183
      7  N         -8.1460  -11.5310  -19.4330 N.3   238  LYS238     -0.1245
      8  CA        -8.0380  -11.3970  -20.8990 C.3   238  LYS238      0.1561
      9  C         -7.4170  -12.6390  -21.5600 C.2   238  LYS238      0.2260
     10  O         -7.8090  -12.8980  -22.6920 O.2   238  LYS238     -0.2867
     11  CB        -7.2690  -10.1320  -21.2950 C.3   238  LYS238      0.0271
     12  CG        -8.0720   -8.8760  -21.0250 C.3   238  LYS238      0.0035
     13  CD        -7.2340   -7.6450  -21.4110 C.3   238  LYS238      0.0206
     14  CE        -7.9980   -6.4220  -20.9930 C.3   238  LYS238      0.1093
     15  NZ        -7.2680   -5.1990  -21.3530 N.3   238  LYS238     -0.1314
     16  N         -6.7570    2.3080  -21.1230 N.3   274  VAL274     -0.1231
     17  CA        -5.9920    3.1320  -20.1960 C.3   274  VAL274      0.1692
     18  C         -4.8410    3.7540  -20.9610 C.2   274  VAL274      0.2592
     19  O         -4.6400    4.9620  -20.8470 O.2   274  VAL274     -0.2718
     20  CB        -5.5280    2.3400  -18.9540 C.3   274  VAL274      0.0266
     21  CG1       -4.5690    3.1740  -18.0860 C.3   274  VAL274      0.0020
     22  CG2       -6.7430    1.9110  -18.1380 C.3   274  VAL274      0.0020
     23  N         -4.1190    2.9350  -21.7550 N.am  275  SER275     -0.1952
     24  CA        -2.9980    3.3030  -22.6260 C.3   275  SER275      0.1924
     25  C         -3.6010    3.5280  -24.0350 C.2   275  SER275      0.2314
     26  O         -4.1140    2.5820  -24.6250 O.2   275  SER275     -0.2863
     27  CB        -1.9740    2.1640  -22.6480 C.3   275  SER275      0.2116
     28  OG        -1.1160    2.2030  -23.7790 O.3   275  SER275     -0.2180
     29  N         -0.2700   -7.0680  -24.5520 N.3   288  ILE288     -0.1231
     30  CA         0.8580   -6.2460  -24.0820 C.3   288  ILE288      0.1692
     31  C          0.3640   -4.8530  -23.7140 C.2   288  ILE288      0.2592
     32  O          0.6760   -4.3440  -22.6330 O.2   288  ILE288     -0.2718
     33  CB         2.0010   -6.1870  -25.1340 C.3   288  ILE288      0.0266
     34  CG1        2.6420   -7.5810  -25.3820 C.3   288  ILE288      0.0019
     35  CG2        3.0780   -5.1310  -24.7190 C.3   288  ILE288      0.0020
     36  CD1        3.5380   -7.6740  -26.7280 C.3   288  ILE288      0.0001
     37  N         -0.4580   -4.2670  -24.5900 N.am  289  LYS289     -0.1966
     38  CA        -1.0280   -2.9310  -24.3830 C.3   289  LYS289      0.1728
     39  C         -2.2680   -2.9230  -23.4880 C.2   289  LYS289      0.2616
     40  O         -2.7760   -1.8480  -23.1430 O.2   289  LYS289     -0.2715
     41  CB        -1.3360   -2.2880  -25.7460 C.3   289  LYS289      0.0311
     42  CG        -0.1180   -2.1520  -26.6540 C.3   289  LYS289      0.0038
     43  CD         0.9200   -1.2130  -26.1240 C.3   289  LYS289      0.0206
     44  CE         2.0270   -1.0020  -27.1390 C.3   289  LYS289      0.1093
     45  NZ         3.2350   -0.4120  -26.5050 N.3   289  LYS289     -0.1314
     46  N         -2.7360   -4.1250  -23.0760 N.am  290  SER290     -0.1950
     47  CA        -3.9660   -4.3510  -22.3180 C.3   290  SER290      0.1924
     48  C         -5.1090   -3.4770  -22.8530 C.2   290  SER290      0.2314
     49  O         -5.6760   -2.6420  -22.1530 O.2   290  SER290     -0.2863
     50  CB        -3.7620   -4.2300  -20.8110 C.3   290  SER290      0.2116
     51  OG        -4.6410   -5.1330  -20.1410 O.3   290  SER290     -0.2180
     52  N         -8.6460   -2.7510  -23.8440 N.3   292  ASN292     -0.1240
     53  CA       -10.0460   -3.1120  -23.6300 C.3   292  ASN292      0.1653
     54  C        -10.7900   -3.0520  -24.9590 C.2   292  ASN292      0.2266
     55  O        -11.6700   -3.8690  -25.2340 O.2   292  ASN292     -0.2867
     56  CB       -10.6990   -2.1600  -22.6310 C.3   292  ASN292      0.1155
     57  CG       -10.0740   -2.2460  -21.2620 C.2   292  ASN292      0.2627
     58  OD1       -9.4920   -3.2730  -20.8810 O.2   292  ASN292     -0.2716
     59  ND2      -10.1880   -1.1730  -20.5000 N.am  292  ASN292     -0.0877
     60  N        -13.0550   -8.1670  -20.6270 N.3   348  TYR348     -0.1241
     61  CA       -11.9500   -7.5060  -19.9420 C.3   348  TYR348      0.1605
     62  C        -12.0250   -7.6300  -18.4260 C.2   348  TYR348      0.2264
     63  O        -11.3040   -6.9480  -17.7110 O.2   348  TYR348     -0.2867
     64  CB       -11.6290   -6.0920  -20.4450 C.3   348  TYR348      0.0534
     65  CG       -12.7510   -5.0770  -20.3990 C.ar  348  TYR348     -0.0201
     66  CD1      -13.3810   -4.6590  -21.5670 C.ar  348  TYR348     -0.0009
     67  CD2      -13.0930   -4.4440  -19.2120 C.ar  348  TYR348     -0.0009
     68  CE1      -14.3730   -3.6760  -21.5450 C.ar  348  TYR348      0.0417
     69  CE2      -14.0510   -3.4310  -19.1820 C.ar  348  TYR348      0.0417
     70  CZ       -14.6750   -3.0370  -20.3560 C.ar  348  TYR348      0.1957
     71  OH       -15.6280   -2.0390  -20.3260 O.3   348  TYR348     -0.2866
     72  N        -14.5390   -7.3290  -15.8910 N.3   350  TYR350     -0.1241
     73  CA       -15.3820   -6.6720  -14.8890 C.3   350  TYR350      0.1605
     74  C        -16.8060   -7.2470  -14.8160 C.2   350  TYR350      0.2264
     75  O        -17.6290   -6.7680  -14.0390 O.2   350  TYR350     -0.2867
     76  CB       -15.3170   -5.1210  -14.9260 C.3   350  TYR350      0.0534
     77  CG       -13.9380   -4.5710  -14.6250 C.ar  350  TYR350     -0.0201
     78  CD1      -13.4380   -3.4740  -15.3160 C.ar  350  TYR350     -0.0009
     79  CD2      -13.1580   -5.1030  -13.5970 C.ar  350  TYR350     -0.0009
     80  CE1      -12.1740   -2.9480  -15.0250 C.ar  350  TYR350      0.0417
     81  CE2      -11.8970   -4.5830  -13.2980 C.ar  350  TYR350      0.0417
     82  CZ       -11.3930   -3.5290  -14.0420 C.ar  350  TYR350      0.1957
     83  OH       -10.1350   -3.0290  -13.7680 O.3   350  TYR350     -0.2866
     84  N          7.7760   -2.8180  -24.1020 N.3   410  GLY410     -0.1210
     85  CA         6.5310   -2.2300  -23.6230 C.3   410  GLY410      0.1956
     86  C          5.7480   -3.1540  -22.7080 C.2   410  GLY410      0.2612
     87  O          4.6850   -2.7730  -22.2090 O.2   410  GLY410     -0.2717
     88  N          6.3070   -4.3470  -22.4590 N.am  411  GLY411     -0.1942
     89  CA         5.7000   -5.3490  -21.5830 C.3   411  GLY411      0.2014
     90  C          5.9050   -5.1120  -20.0900 C.2   411  GLY411      0.2638
     91  O          6.4360   -4.0800  -19.6670 O.2   411  GLY411     -0.2714
     92  N          5.4730   -6.0840  -19.2660 N.am  412  VAL412     -0.1977
     93  CA         5.5700   -6.0200  -17.8070 C.3   412  VAL412      0.1596
     94  C          6.9830   -6.4790  -17.4490 C.2   412  VAL412      0.2287
     95  O          7.1650   -7.5900  -16.9450 O.2   412  VAL412     -0.2864
     96  CB         4.4910   -6.9090  -17.1180 C.3   412  VAL412      0.0276
     97  CG1        4.3750   -6.5640  -15.6470 C.3   412  VAL412      0.0022
     98  CG2        3.1300   -6.7670  -17.7940 C.3   412  VAL412      0.0022
     99  N          0.2550  -11.8060  -16.6920 N.3   425  LYS425     -0.1231
    100  CA        -0.5370  -10.6270  -17.0210 C.3   425  LYS425      0.1693
    101  C         -0.8220   -9.8340  -15.7670 C.2   425  LYS425      0.2593
    102  O         -1.2200  -10.4010  -14.7460 O.2   425  LYS425     -0.2718
    103  CB        -1.8680  -11.1120  -17.6440 C.3   425  LYS425      0.0285
    104  CG        -2.7950   -9.9880  -18.0850 C.3   425  LYS425      0.0035
    105  CD        -2.3160   -9.3360  -19.4150 C.3   425  LYS425      0.0206
    106  CE        -3.1160   -8.0990  -19.7860 C.3   425  LYS425      0.1093
    107  NZ        -2.8960   -6.9400  -18.8590 N.3   425  LYS425     -0.1314
    108  N         -0.6580   -8.5120  -15.8450 N.am  426  SER426     -0.1938
    109  CA        -1.0100   -7.6490  -14.7300 C.3   426  SER426      0.2055
    110  C         -2.4790   -7.1740  -14.9150 C.2   426  SER426      0.2644
    111  O         -3.0760   -7.3150  -15.9900 O.2   426  SER426     -0.2714
    112  CB        -0.0550   -6.4610  -14.6480 C.3   426  SER426      0.2130
    113  OG        -0.1310   -5.7420  -15.8660 O.3   426  SER426     -0.2179
    114  N         -3.0260   -6.6210  -13.8620 N.am  427  GLY427     -0.1939
    115  CA        -4.3760   -6.0680  -13.8790 C.3   427  GLY427      0.2014
    116  C         -4.7180   -5.3730  -12.5900 C.2   427  GLY427      0.2639
    117  O         -3.9900   -5.5030  -11.5890 O.2   427  GLY427     -0.2714
    118  N         -5.8240   -4.5970  -12.6240 N.am  428  THR428     -0.1950
    119  CA        -6.3780   -3.9400  -11.4580 C.3   428  THR428      0.1897
    120  C         -7.7260   -4.5780  -11.2250 C.2   428  THR428      0.2313
    121  O         -8.5920   -4.5700  -12.1160 O.2   428  THR428     -0.2863
    122  CB        -6.4910   -2.4240  -11.6770 C.3   428  THR428      0.1794
    123  OG1       -5.1620   -1.9370  -11.8930 O.3   428  THR428     -0.2208
    124  CG2       -7.1440   -1.6980  -10.4720 C.3   428  THR428      0.0378
    125  N         -3.5800    2.3610  -12.1830 N.3   463  TYR463     -0.1241
    126  CA        -3.4250    0.9380  -12.5220 C.3   463  TYR463      0.1605
    127  C         -1.9760    0.5670  -12.2270 C.2   463  TYR463      0.2264
    128  O         -1.0620    0.9360  -12.9670 O.2   463  TYR463     -0.2867
    129  CB        -3.8110    0.7070  -14.0040 C.3   463  TYR463      0.0534
    130  CG        -5.2700    1.0020  -14.2890 C.ar  463  TYR463     -0.0201
    131  CD1       -5.7130    2.3060  -14.5030 C.ar  463  TYR463     -0.0009
    132  CD2       -6.2150   -0.0170  -14.3120 C.ar  463  TYR463     -0.0009
    133  CE1       -7.0660    2.5900  -14.6890 C.ar  463  TYR463      0.0417
    134  CE2       -7.5650    0.2500  -14.5410 C.ar  463  TYR463      0.0417
    135  CZ        -7.9850    1.5550  -14.7370 C.ar  463  TYR463      0.1957
    136  OH        -9.3150    1.8130  -14.9730 O.3   463  TYR463     -0.2866
    137  N         -0.8240   -2.7560  -11.1230 N.3   465  GLY465     -0.1210
    138  CA        -0.4770   -4.1860  -11.1640 C.3   465  GLY465      0.1956
    139  C          0.9520   -4.4470  -11.6350 C.2   465  GLY465      0.2612
    140  O          1.6870   -5.2270  -11.0090 O.2   465  GLY465     -0.2717
    141  N          1.3730   -3.7570  -12.7050 N.am  466  GLY466     -0.1956
    142  CA         2.7170   -3.9260  -13.2680 C.3   466  GLY466      0.1869
    143  C          3.8460   -3.2710  -12.4940 C.2   466  GLY466      0.2309
    144  O          5.0250   -3.5760  -12.7220 O.2   466  GLY466     -0.2863
@<TRIPOS>BOND
     1    44    45    1
     2    44    43    1
     3    36    34    1
     4    42    43    1
     5    42    41    1
     6    41    38    1
     7    34    33    1
     8    55    54    2
     9    33    35    1
    10    33    30    1
    11    54    53    1
    12    26    25    2
    13    37    38    1
    14    37    31   am
    15    29    30    1
    16    38    39    1
    17    84    85    1
    18    30    31    1
    19    25    24    1
    20    52    53    1
    21    28    27    1
    22    31    32    2
    23    53    56    1
    24    85    86    1
    25    39    40    2
    26    39    46   am
    27    46    47    1
    28    48    47    1
    29    48    49    2
    30    86    88   am
    31    86    87    2
    32    10     9    2
    33    27    24    1
    34    56    57    1
    35    24    23    1
    36    88    89    1
    37    47    50    1
    38    23    18   am
    39    89    90    1
    40    66    68   ar
    41    66    65   ar
    42     9     8    1
    43    68    70   ar
    44    13    12    1
    45    13    14    1
    46    15    14    1
    47    11    12    1
    48    11     8    1
    49    57    58    2
    50    57    59   am
    51    16    17    1
    52    18    19    2
    53    18    17    1
    54     8     7    1
    55    50    51    1
    56    60    61    1
    57    64    65    1
    58    64    61    1
    59    65    67   ar
    60    70    71    1
    61    70    69   ar
    62    17    20    1
    63    90    91    2
    64    90    92   am
    65    61    62    1
    66   106   105    1
    67   106   107    1
    68   105   104    1
    69    92    93    1
    70    67    69   ar
    71    20    22    1
    72    20    21    1
    73    62    63    2
    74     4     3    2
    75   104   103    1
    76    93    94    1
    77    93    96    1
    78    98    96    1
    79     6     5    1
    80   103   100    1
    81    94    95    2
    82     5     2    1
    83     2     3    1
    84     2     1    1
    85    96    97    1
    86   100    99    1
    87   100   101    1
    88   111   110    2
    89    72    73    1
    90   113   112    1
    91   108   101   am
    92   108   109    1
    93   101   102    2
    94    78    80   ar
    95    78    77   ar
    96    80    82   ar
    97   136   135    1
    98    76    73    1
    99    76    77    1
   100   110   109    1
   101   110   114   am
   102    73    74    1
   103    74    75    2
   104   135   133   ar
   105   135   134   ar
   106   109   112    1
   107   133   131   ar
   108    77    79   ar
   109   134   132   ar
   110   131   130   ar
   111   132   130   ar
   112   130   129    1
   113    82    83    1
   114    82    81   ar
   115   129   126    1
   116   115   114    1
   117   115   116    1
   118    79    81   ar
   119   142   141    1
   120   142   143    1
   121   128   127    2
   122   144   143    2
   123   141   139   am
   124   118   116   am
   125   118   119    1
   126   116   117    2
   127   126   127    1
   128   126   125    1
   129   121   120    2
   130   123   122    1
   131   122   119    1
   132   122   124    1
   133   139   138    1
   134   139   140    2
   135   119   120    1
   136   138   137    1
