@<TRIPOS>MOLECULE
tmp/3pbrA00.pdb
 143 136 0 0 0
SMALL
GASTEIGER

@<TRIPOS>ATOM
      1  N          8.2480   -7.4720   16.2660 N.3   241  SER241     -0.1217
      2  CA         7.3520   -7.8560   17.3670 C.3   241  SER241      0.1889
      3  C          6.6750   -9.2100   17.2540 C.2   241  SER241      0.2288
      4  O          6.2410   -9.7440   18.2730 O.2   241  SER241     -0.2866
      5  CB         6.3250   -6.7710   17.6350 C.3   241  SER241      0.2089
      6  OG         6.9620   -5.5080   17.7020 O.3   241  SER241     -0.2183
      7  N          8.2550  -11.7240   19.5230 N.3   244  LYS244     -0.1245
      8  CA         8.1240  -11.5210   20.9860 C.3   244  LYS244      0.1561
      9  C          7.4380  -12.7270   21.6650 C.2   244  LYS244      0.2260
     10  O          7.8530  -13.0700   22.7550 O.2   244  LYS244     -0.2867
     11  CB         7.4120  -10.2280   21.3350 C.3   244  LYS244      0.0271
     12  CG         8.2170   -8.9970   20.9930 C.3   244  LYS244      0.0035
     13  CD         7.4310   -7.7660   21.4280 C.3   244  LYS244      0.0206
     14  CE         8.1440   -6.4950   20.9820 C.3   244  LYS244      0.1093
     15  NZ         7.2740   -5.3190   21.1850 N.3   244  LYS244     -0.1314
     16  N          6.9450    2.1730   20.9400 N.3   280  VAL280     -0.1231
     17  CA         6.1600    3.0340   20.0490 C.3   280  VAL280      0.1692
     18  C          4.9880    3.5860   20.8560 C.2   280  VAL280      0.2592
     19  O          4.7730    4.7890   20.8560 O.2   280  VAL280     -0.2718
     20  CB         5.7480    2.3160   18.7390 C.3   280  VAL280      0.0266
     21  CG1        4.6000    3.0550   18.0220 C.3   280  VAL280      0.0020
     22  CG2        6.9580    2.1670   17.8200 C.3   280  VAL280      0.0020
     23  N          4.2680    2.7160   21.5660 N.am  281  SER281     -0.1952
     24  CA         3.1490    3.1000   22.4560 C.3   281  SER281      0.1924
     25  C          3.7590    3.3890   23.8480 C.2   281  SER281      0.2314
     26  O          4.3610    2.5030   24.4220 O.2   281  SER281     -0.2863
     27  CB         2.1290    1.9650   22.5200 C.3   281  SER281      0.2116
     28  OG         1.3450    1.9980   23.7020 O.3   281  SER281     -0.2180
     29  N          0.3530   -7.0260   24.4580 N.3   294  ILE294     -0.1231
     30  CA        -0.7240   -6.1220   24.0310 C.3   294  ILE294      0.1692
     31  C         -0.1720   -4.7470   23.6650 C.2   294  ILE294      0.2592
     32  O         -0.4580   -4.2430   22.5810 O.2   294  ILE294     -0.2718
     33  CB        -1.8670   -6.0530   25.0840 C.3   294  ILE294      0.0266
     34  CG1       -2.6380   -7.4080   25.1490 C.3   294  ILE294      0.0019
     35  CG2       -2.8220   -4.8510   24.8180 C.3   294  ILE294      0.0020
     36  CD1       -3.6810   -7.5800   26.3140 C.3   294  ILE294      0.0001
     37  N          0.6480   -4.1550   24.5450 N.am  295  LYS295     -0.1966
     38  CA         1.2190   -2.8310   24.2860 C.3   295  LYS295      0.1728
     39  C          2.4690   -2.8850   23.4170 C.2   295  LYS295      0.2616
     40  O          3.0140   -1.8390   23.0730 O.2   295  LYS295     -0.2715
     41  CB         1.4830   -2.0770   25.6110 C.3   295  LYS295      0.0311
     42  CG         0.2590   -1.9930   26.5360 C.3   295  LYS295      0.0038
     43  CD        -0.7950   -1.0210   26.0370 C.3   295  LYS295      0.0206
     44  CE        -1.9960   -1.0060   26.9540 C.3   295  LYS295      0.1093
     45  NZ        -3.2050   -0.4350   26.2860 N.3   295  LYS295     -0.1314
     46  N          2.9130   -4.1070   23.0410 N.am  296  SER296     -0.1950
     47  CA         4.1410   -4.3750   22.2810 C.3   296  SER296      0.1924
     48  C          5.3170   -3.5390   22.8030 C.2   296  SER296      0.2314
     49  O          5.9610   -2.8020   22.0500 O.2   296  SER296     -0.2863
     50  CB         3.9240   -4.1770   20.7860 C.3   296  SER296      0.2116
     51  OG         4.7950   -5.0400   20.0870 O.3   296  SER296     -0.2180
     52  N          8.8990   -2.9100   23.7870 N.3   298  ASN298     -0.1240
     53  CA        10.2890   -3.2870   23.5520 C.3   298  ASN298      0.1653
     54  C         11.0360   -3.2160   24.8930 C.2   298  ASN298      0.2266
     55  O         11.8590   -4.0780   25.2060 O.2   298  ASN298     -0.2867
     56  CB        10.9110   -2.3080   22.5420 C.3   298  ASN298      0.1155
     57  CG        10.3320   -2.4360   21.1630 C.2   298  ASN298      0.2627
     58  OD1        9.8470   -3.4980   20.7650 O.2   298  ASN298     -0.2716
     59  ND2       10.3560   -1.3500   20.4110 N.am  298  ASN298     -0.0877
     60  N         13.1140   -8.2370   20.7260 N.3   354  TYR354     -0.1241
     61  CA        11.9990   -7.6240   19.9980 C.3   354  TYR354      0.1605
     62  C         12.0830   -7.8290   18.4650 C.2   354  TYR354      0.2264
     63  O         11.4250   -7.1020   17.7210 O.2   354  TYR354     -0.2867
     64  CB        11.7100   -6.1610   20.4110 C.3   354  TYR354      0.0534
     65  CG        12.8710   -5.1970   20.2810 C.ar  354  TYR354     -0.0201
     66  CD1       13.5690   -4.7610   21.4050 C.ar  354  TYR354     -0.0009
     67  CD2       13.2100   -4.6460   19.0500 C.ar  354  TYR354     -0.0009
     68  CE1       14.6210   -3.8510   21.2980 C.ar  354  TYR354      0.0417
     69  CE2       14.2660   -3.7500   18.9260 C.ar  354  TYR354      0.0417
     70  CZ        14.9540   -3.3330   20.0560 C.ar  354  TYR354      0.1957
     71  OH        15.9620   -2.4100   19.9470 O.3   354  TYR354     -0.2866
     72  N         14.5780   -7.6170   15.9370 N.3   356  TYR356     -0.1241
     73  CA        15.3650   -6.8800   14.9530 C.3   356  TYR356      0.1605
     74  C         16.8180   -7.4130   14.8940 C.2   356  TYR356      0.2264
     75  O         17.6810   -6.8420   14.2310 O.2   356  TYR356     -0.2867
     76  CB        15.2560   -5.3610   15.1710 C.3   356  TYR356      0.0534
     77  CG        13.9330   -4.7340   14.7540 C.ar  356  TYR356     -0.0201
     78  CD1       13.0890   -5.3700   13.8440 C.ar  356  TYR356     -0.0009
     79  CD2       13.5910   -3.4460   15.1640 C.ar  356  TYR356     -0.0009
     80  CE1       11.9000   -4.7750   13.4190 C.ar  356  TYR356      0.0417
     81  CE2       12.4060   -2.8410   14.7440 C.ar  356  TYR356      0.0417
     82  CZ        11.5610   -3.5110   13.8780 C.ar  356  TYR356      0.1957
     83  OH        10.3950   -2.9110   13.4630 O.3   356  TYR356     -0.2866
     84  N         -5.6990   -6.2390   19.6210 N.3   418  VAL418     -0.1245
     85  CA        -5.8220   -6.2130   18.1500 C.3   418  VAL418      0.1561
     86  C         -7.2110   -6.7660   17.7570 C.2   418  VAL418      0.2260
     87  O         -7.3330   -7.8650   17.2090 O.2   418  VAL418     -0.2867
     88  CB        -4.6590   -6.9740   17.4450 C.3   418  VAL418      0.0252
     89  CG1       -4.5570   -6.5710   15.9870 C.3   418  VAL418      0.0019
     90  CG2       -3.3280   -6.7350   18.1510 C.3   418  VAL418      0.0019
     91  N         -0.2490  -11.9060   16.9480 N.3   431  LYS431     -0.1231
     92  CA         0.5370  -10.7300   17.2770 C.3   431  LYS431      0.1693
     93  C          0.8270   -9.9540   15.9940 C.2   431  LYS431      0.2593
     94  O          1.2320  -10.5340   14.9840 O.2   431  LYS431     -0.2718
     95  CB         1.8540  -11.1550   17.9750 C.3   431  LYS431      0.0285
     96  CG         2.8200   -9.9970   18.3480 C.3   431  LYS431      0.0035
     97  CD         2.3380   -9.1800   19.5700 C.3   431  LYS431      0.0206
     98  CE         3.1590   -7.9330   19.8140 C.3   431  LYS431      0.1093
     99  NZ         2.8040   -6.8250   18.8810 N.3   431  LYS431     -0.1314
    100  N          0.5800   -8.6530   16.0220 N.am  432  SER432     -0.1938
    101  CA         0.9040   -7.7930   14.8870 C.3   432  SER432      0.2055
    102  C          2.3590   -7.3010   15.0530 C.2   432  SER432      0.2644
    103  O          2.9290   -7.3490   16.1430 O.2   432  SER432     -0.2714
    104  CB        -0.0360   -6.5970   14.8310 C.3   432  SER432      0.2130
    105  OG        -0.0640   -5.9370   16.0840 O.3   432  SER432     -0.2179
    106  N          2.9450   -6.8260   13.9760 N.am  433  GLY433     -0.1939
    107  CA         4.2930   -6.2870   14.0350 C.3   433  GLY433      0.2014
    108  C          4.6790   -5.5450   12.7800 C.2   433  GLY433      0.2639
    109  O          3.9680   -5.6330   11.7710 O.2   433  GLY433     -0.2714
    110  N          5.8010   -4.7820   12.8540 N.am  434  THR434     -0.1950
    111  CA         6.3580   -4.0490   11.7200 C.3   434  THR434      0.1897
    112  C          7.7010   -4.7080   11.3900 C.2   434  THR434      0.2313
    113  O          8.5970   -4.7450   12.2340 O.2   434  THR434     -0.2863
    114  CB         6.4860   -2.5230   12.0160 C.3   434  THR434      0.1794
    115  OG1        5.1970   -2.0080   12.3230 O.3   434  THR434     -0.2208
    116  CG2        7.0730   -1.7380   10.8180 C.3   434  THR434      0.0378
    117  N          0.5230    0.0840   10.3290 N.3   470  PHE470     -0.1227
    118  CA         0.5470   -0.5720   11.6260 C.3   470  PHE470      0.1736
    119  C         -0.0410   -1.9500   11.3480 C.2   470  PHE470      0.2596
    120  O         -1.0790   -2.0330   10.6990 O.2   470  PHE470     -0.2718
    121  CB        -0.2860    0.2040   12.6400 C.3   470  PHE470      0.0547
    122  CG         0.3970    1.4640   13.1120 C.ar  470  PHE470     -0.0202
    123  CD1        1.4410    1.4080   14.0270 C.ar  470  PHE470     -0.0042
    124  CD2       -0.0120    2.7110   12.6500 C.ar  470  PHE470     -0.0042
    125  CE1        2.0810    2.5750   14.4560 C.ar  470  PHE470     -0.0003
    126  CE2        0.6240    3.8760   13.0810 C.ar  470  PHE470     -0.0003
    127  CZ         1.6620    3.8010   13.9880 C.ar  470  PHE470     -0.0000
    128  N          0.6780   -3.0100   11.7280 N.am  471  GLY471     -0.1942
    129  CA         0.2400   -4.3920   11.5020 C.3   471  GLY471      0.2014
    130  C         -1.1760   -4.6550   11.9710 C.2   471  GLY471      0.2639
    131  O         -1.9390   -5.3490   11.2970 O.2   471  GLY471     -0.2714
    132  N         -1.5380   -4.0300   13.0950 N.am  472  GLY472     -0.1939
    133  CA        -2.8540   -4.1480   13.7090 C.3   472  GLY472      0.2014
    134  C         -3.9740   -3.5160   12.9140 C.2   472  GLY472      0.2638
    135  O         -5.1390   -3.8530   13.1150 O.2   472  GLY472     -0.2714
    136  N         -3.6370   -2.6110   12.0090 N.am  473  LEU473     -0.1977
    137  CA        -4.6200   -1.9050   11.1900 C.3   473  LEU473      0.1596
    138  C         -4.6570   -2.4870    9.7830 C.2   473  LEU473      0.2287
    139  O         -5.7070   -2.5060    9.1580 O.2   473  LEU473     -0.2864
    140  CB        -4.1640   -0.4280   11.0730 C.3   473  LEU473      0.0297
    141  CG        -4.8230    0.6680   11.9520 C.3   473  LEU473      0.0022
    142  CD1       -5.3490    0.1420   13.2890 C.3   473  LEU473      0.0001
    143  CD2       -3.8890    1.8670   12.1440 C.3   473  LEU473      0.0001
@<TRIPOS>BOND
     1   139   138    2
     2   138   137    1
     3   117   118    1
     4   120   119    2
     5   116   114    1
     6   140   137    1
     7   140   141    1
     8   137   136    1
     9   131   130    2
    10   119   118    1
    11   119   128   am
    12   112   111    1
    13   112   113    2
    14   129   128    1
    15   129   130    1
    16   118   121    1
    17   111   114    1
    18   111   110    1
    19   109   108    2
    20   141   143    1
    21   141   142    1
    22   130   132   am
    23   136   134   am
    24   114   115    1
    25   121   122    1
    26   124   126   ar
    27   124   122   ar
    28   108   110   am
    29   108   107    1
    30   134   135    2
    31   134   133    1
    32   126   127   ar
    33   132   133    1
    34   122   123   ar
    35    80    78   ar
    36    80    82   ar
    37    83    82    1
    38    78    77   ar
    39    82    81   ar
    40   106   107    1
    41   106   102   am
    42   127   125   ar
    43   123   125   ar
    44    75    74    2
    45    81    79   ar
    46    77    79   ar
    47    77    76    1
    48   104   101    1
    49   104   105    1
    50   101   102    1
    51   101   100    1
    52    74    73    1
    53    73    76    1
    54    73    72    1
    55    94    93    2
    56   102   103    2
    57    89    88    1
    58    93   100   am
    59    93    92    1
    60     1     2    1
    61    91    92    1
    62    87    86    2
    63     3     2    1
    64     3     4    2
    65    92    95    1
    66     2     5    1
    67    88    85    1
    68    88    90    1
    69     5     6    1
    70    63    62    2
    71    86    85    1
    72    22    20    1
    73    95    96    1
    74    21    20    1
    75    85    84    1
    76    96    97    1
    77    62    61    1
    78    20    17    1
    79    99    98    1
    80    69    67   ar
    81    69    70   ar
    82    67    65   ar
    83     7     8    1
    84    97    98    1
    85    71    70    1
    86    61    64    1
    87    61    60    1
    88    17    18    1
    89    17    16    1
    90    70    68   ar
    91    51    50    1
    92    65    64    1
    93    65    66   ar
    94    59    57   am
    95    58    57    2
    96    50    47    1
    97    19    18    2
    98    18    23   am
    99    14    15    1
   100    14    13    1
   101     8    11    1
   102     8     9    1
   103    12    11    1
   104    12    13    1
   105    57    56    1
   106    68    66   ar
   107    23    24    1
   108     9    10    2
   109    49    48    2
   110    47    48    1
   111    47    46    1
   112    24    27    1
   113    24    25    1
   114    27    28    1
   115    56    53    1
   116    32    31    2
   117    46    39   am
   118    40    39    2
   119    39    38    1
   120    53    52    1
   121    53    54    1
   122    31    30    1
   123    31    37   am
   124    25    26    2
   125    30    29    1
   126    30    33    1
   127    38    37    1
   128    38    41    1
   129    35    33    1
   130    54    55    2
   131    33    34    1
   132    34    36    1
   133    41    42    1
   134    43    42    1
   135    43    44    1
   136    45    44    1
