@<TRIPOS>MOLECULE
tmp/3pbsA00.pdb
 177 170 0 0 0
SMALL
GASTEIGER

@<TRIPOS>ATOM
      1  N         11.8560   10.6650   -9.3820 N.3   239  GLU239     -0.1245
      2  CA        11.9450   10.5920  -10.8280 C.3   239  GLU239      0.1567
      3  C         10.5700   10.9800  -11.3530 C.2   239  GLU239      0.2260
      4  O          9.5780   10.3990  -10.9300 O.2   239  GLU239     -0.2867
      5  CB        12.3630    9.2010  -11.3020 C.3   239  GLU239      0.0388
      6  CG        13.7320    8.8410  -10.7580 C.3   239  GLU239      0.1160
      7  CD        14.6070    7.9930  -11.6470 C.2   239  GLU239      0.3649
      8  OE1       14.0630    7.2060  -12.4540 O.co2 239  GLU239     -0.2457
      9  OE2       15.8470    8.1100  -11.5260 O.co2 239  GLU239     -0.2457
     10  N          9.3750   10.7100  -14.3580 N.3   241  GLY241     -0.1210
     11  CA         8.9460    9.7790  -15.3950 C.3   241  GLY241      0.1956
     12  C          8.2340   10.4100  -16.5700 C.2   241  GLY241      0.2612
     13  O          8.6740   11.4270  -17.1060 O.2   241  GLY241     -0.2717
     14  N          7.0960    9.8230  -16.9360 N.am  242  SER242     -0.1952
     15  CA         6.2390   10.2230  -18.0490 C.3   242  SER242      0.1924
     16  C          5.6900   11.6440  -17.9480 C.2   242  SER242      0.2314
     17  O          5.2320   12.1740  -18.9630 O.2   242  SER242     -0.2863
     18  CB         5.0960    9.2260  -18.2300 C.3   242  SER242      0.2116
     19  OG         5.5800    7.8920  -18.2220 O.3   242  SER242     -0.2180
     20  N          7.3660   14.0510  -20.4210 N.3   245  LYS245     -0.1245
     21  CA         7.1170   13.8180  -21.8560 C.3   245  LYS245      0.1561
     22  C          6.5220   15.0540  -22.5460 C.2   245  LYS245      0.2260
     23  O          6.9290   15.3360  -23.6770 O.2   245  LYS245     -0.2867
     24  CB         6.2400   12.5770  -22.0610 C.3   245  LYS245      0.0271
     25  CG         7.0330   11.3160  -21.8810 C.3   245  LYS245      0.0035
     26  CD         6.1480   10.0970  -21.9790 C.3   245  LYS245      0.0206
     27  CE         6.9340    8.8870  -21.5950 C.3   245  LYS245      0.1093
     28  NZ         6.0980    7.6670  -21.6340 N.3   245  LYS245     -0.1314
     29  N         11.3390   -0.0750  -22.7160 N.3   279  ARG279     -0.1245
     30  CA        10.1340   -0.8790  -22.7410 C.3   279  ARG279      0.1563
     31  C          8.9240   -0.0400  -22.4920 C.2   279  ARG279      0.2260
     32  O          8.9240    0.8130  -21.5950 O.2   279  ARG279     -0.2867
     33  CB        10.2570   -2.0100  -21.7080 C.3   279  ARG279      0.0307
     34  CG         9.3860   -3.2240  -21.9780 C.3   279  ARG279      0.0489
     35  CD         9.7800   -4.3780  -21.0780 C.3   279  ARG279      0.2205
     36  NE         9.2180   -5.6490  -21.5410 N.pl3 279  ARG279     -0.0865
     37  CZ         9.9360   -6.6630  -22.0150 C.cat 279  ARG279      0.5346
     38  NH1       11.2620   -6.5780  -22.0760 N.pl3 279  ARG279      0.1354
     39  NH2        9.3390   -7.7780  -22.4100 N.pl3 279  ARG279      0.1354
     40  N          4.7880    0.3210  -21.5750 N.3   281  VAL281     -0.1245
     41  CA         3.8200   -0.3100  -20.6640 C.3   281  VAL281      0.1561
     42  C          2.8590   -1.2100  -21.4880 C.2   281  VAL281      0.2260
     43  O          2.7160   -2.4020  -21.1880 O.2   281  VAL281     -0.2867
     44  CB         3.1130    0.7140  -19.7130 C.3   281  VAL281      0.0252
     45  CG1        2.5130    1.9100  -20.4670 C.3   281  VAL281      0.0019
     46  CG2        2.0660    0.0430  -18.8320 C.3   281  VAL281      0.0019
     47  N          1.4330    6.6840  -23.4880 N.3   297  SER297     -0.1217
     48  CA         2.6450    6.9740  -22.7100 C.3   297  SER297      0.1889
     49  C          3.8050    6.0820  -23.2010 C.2   297  SER297      0.2288
     50  O          4.4340    5.3500  -22.4330 O.2   297  SER297     -0.2866
     51  CB         2.3960    6.9060  -21.2040 C.3   297  SER297      0.2089
     52  OG         3.5840    7.1560  -20.4680 O.3   297  SER297     -0.2183
     53  N          7.3740    5.0610  -24.2240 N.3   299  ASN299     -0.1240
     54  CA         8.7710    5.3720  -23.9570 C.3   299  ASN299      0.1653
     55  C          9.5900    5.1600  -25.2150 C.2   299  ASN299      0.2266
     56  O         10.5580    5.8730  -25.4400 O.2   299  ASN299     -0.2867
     57  CB         9.2980    4.5010  -22.8220 C.3   299  ASN299      0.1155
     58  CG         8.8580    4.9250  -21.4440 C.2   299  ASN299      0.2627
     59  OD1        8.3130    6.0020  -21.2220 O.2   299  ASN299     -0.2716
     60  ND2        9.1410    4.1000  -20.4760 N.am  299  ASN299     -0.0877
     61  N         12.0880   10.5110  -21.3950 N.3   355  TYR355     -0.1227
     62  CA        10.9820    9.9010  -20.6490 C.3   355  TYR355      0.1736
     63  C         11.0840    9.9660  -19.0920 C.2   355  TYR355      0.2596
     64  O         10.3540    9.2710  -18.3960 O.2   355  TYR355     -0.2718
     65  CB        10.5310    8.5360  -21.2420 C.3   355  TYR355      0.0548
     66  CG        11.5240    7.4030  -21.1210 C.ar  355  TYR355     -0.0200
     67  CD1       12.2610    6.9780  -22.2200 C.ar  355  TYR355     -0.0009
     68  CD2       11.6680    6.7010  -19.9270 C.ar  355  TYR355     -0.0009
     69  CE1       13.1720    5.9250  -22.1150 C.ar  355  TYR355      0.0417
     70  CE2       12.5800    5.6560  -19.8080 C.ar  355  TYR355      0.0417
     71  CZ        13.3080    5.2510  -20.9150 C.ar  355  TYR355      0.1957
     72  OH        14.1790    4.1960  -20.8180 O.3   355  TYR355     -0.2866
     73  N         11.9550   10.8450  -18.5770 N.am  356  GLY356     -0.1942
     74  CA        12.0880   11.1280  -17.1490 C.3   356  GLY356      0.2014
     75  C         12.7380   10.1020  -16.2420 C.2   356  GLY356      0.2638
     76  O         12.5510   10.1710  -15.0340 O.2   356  GLY356     -0.2714
     77  N         13.5000    9.1530  -16.7960 N.am  357  TYR357     -0.1973
     78  CA        14.2070    8.1590  -15.9850 C.3   357  TYR357      0.1639
     79  C         15.5230    8.7720  -15.5060 C.2   357  TYR357      0.2290
     80  O         15.9340    8.5750  -14.3610 O.2   357  TYR357     -0.2864
     81  CB        14.4320    6.8640  -16.7820 C.3   357  TYR357      0.0560
     82  CG        15.1930    5.7850  -16.0400 C.ar  357  TYR357     -0.0198
     83  CD1       14.5330    4.8860  -15.2090 C.ar  357  TYR357     -0.0009
     84  CD2       16.5640    5.6270  -16.2140 C.ar  357  TYR357     -0.0009
     85  CE1       15.2290    3.8860  -14.5250 C.ar  357  TYR357      0.0417
     86  CE2       17.2740    4.6400  -15.5290 C.ar  357  TYR357      0.0417
     87  CZ        16.6010    3.7670  -14.6870 C.ar  357  TYR357      0.1957
     88  OH        17.2960    2.7840  -14.0200 O.3   357  TYR357     -0.2866
     89  N         -0.9480   14.9060  -17.6670 N.3   432  LYS432     -0.1231
     90  CA        -0.2160   13.7010  -17.9610 C.3   432  LYS432      0.1693
     91  C          0.0310   12.9350  -16.6620 C.2   432  LYS432      0.2593
     92  O          0.4690   13.5130  -15.6560 O.2   432  LYS432     -0.2718
     93  CB         1.1250   14.0800  -18.6230 C.3   432  LYS432      0.0285
     94  CG         1.9970   12.9090  -19.0640 C.3   432  LYS432      0.0035
     95  CD         1.4900   12.1190  -20.2700 C.3   432  LYS432      0.0206
     96  CE         2.2380   10.8060  -20.4640 C.3   432  LYS432      0.1093
     97  NZ         1.8680    9.7980  -19.4260 N.3   432  LYS432     -0.1314
     98  N         -0.2200   11.6380  -16.7030 N.am  433  SER433     -0.1938
     99  CA         0.0550   10.7530  -15.5710 C.3   433  SER433      0.2055
    100  C          1.4990   10.2150  -15.6400 C.2   433  SER433      0.2644
    101  O          2.1380   10.2310  -16.6980 O.2   433  SER433     -0.2714
    102  CB        -0.9560    9.6100  -15.5350 C.3   433  SER433      0.2130
    103  OG        -0.6640    8.6830  -16.5600 O.3   433  SER433     -0.2179
    104  N          1.9980    9.7830  -14.5000 N.am  434  GLY434     -0.1939
    105  CA         3.3170    9.1920  -14.3600 C.3   434  GLY434      0.2014
    106  C          3.3230    8.0840  -13.3220 C.2   434  GLY434      0.2640
    107  O          2.5600    8.1280  -12.3520 O.2   434  GLY434     -0.2714
    108  N          4.1570    7.0620  -13.5470 N.am  435  THR435     -0.1936
    109  CA         4.3430    5.9460  -12.6150 C.3   435  THR435      0.2028
    110  C          5.8300    5.6740  -12.5850 C.2   435  THR435      0.2642
    111  O          6.4040    5.3420  -13.6140 O.2   435  THR435     -0.2714
    112  CB         3.5310    4.6730  -13.0190 C.3   435  THR435      0.1808
    113  OG1        2.2330    5.0400  -13.4760 O.3   435  THR435     -0.2208
    114  CG2        3.4060    3.6760  -11.8710 C.3   435  THR435      0.0379
    115  N          6.4610    5.8490  -11.4280 N.am  436  ALA436     -0.1963
    116  CA         7.8930    5.6210  -11.3140 C.3   436  ALA436      0.1728
    117  C          8.2040    4.4420  -10.4110 C.2   436  ALA436      0.2616
    118  O          7.6790    4.3450   -9.3090 O.2   436  ALA436     -0.2715
    119  CB         8.5910    6.8800  -10.8060 C.3   436  ALA436      0.0334
    120  N          9.0470    3.5290  -10.8910 N.am  437  ARG437     -0.1977
    121  CA         9.4750    2.3780  -10.1110 C.3   437  ARG437      0.1597
    122  C         10.5490    2.8550   -9.1230 C.2   437  ARG437      0.2287
    123  O         11.4810    3.5660   -9.5250 O.2   437  ARG437     -0.2864
    124  CB        10.0090    1.2640  -11.0330 C.3   437  ARG437      0.0334
    125  CG         9.3280   -0.0630  -10.7780 C.3   437  ARG437      0.0492
    126  CD        10.2950   -1.2210  -10.7670 C.3   437  ARG437      0.2205
    127  NE        10.0890   -2.1060  -11.9130 N.pl3 437  ARG437     -0.0865
    128  CZ        10.9110   -2.1930  -12.9550 C.cat 437  ARG437      0.5346
    129  NH1       12.0150   -1.4540  -13.0040 N.pl3 437  ARG437      0.1354
    130  NH2       10.6410   -3.0240  -13.9530 N.pl3 437  ARG437      0.1354
    131  N          7.5310   -4.9000   -5.7610 N.3   439  ASN439     -0.1240
    132  CA         8.0730   -3.6480   -6.2770 C.3   439  ASN439      0.1653
    133  C          7.3680   -2.4410   -5.6610 C.2   439  ASN439      0.2266
    134  O          6.1580   -2.4850   -5.4430 O.2   439  ASN439     -0.2867
    135  CB         7.9630   -3.6110   -7.8040 C.3   439  ASN439      0.1155
    136  CG         9.1480   -4.1810   -8.5540 C.2   439  ASN439      0.2627
    137  OD1       10.2690   -4.3080   -8.0340 O.2   439  ASN439     -0.2716
    138  ND2        8.9340   -4.4870   -9.8250 N.am  439  ASN439     -0.0877
    139  N          6.3480    1.6700   -5.8750 N.3   441  TYR441     -0.1241
    140  CA         6.0290    2.6590   -6.8940 C.3   441  TYR441      0.1605
    141  C          5.7230    4.0520   -6.3590 C.2   441  TYR441      0.2264
    142  O          5.4490    4.2250   -5.1750 O.2   441  TYR441     -0.2867
    143  CB         4.8430    2.1550   -7.7420 C.3   441  TYR441      0.0534
    144  CG         5.0610    0.7990   -8.3870 C.ar  441  TYR441     -0.0201
    145  CD1        5.8090    0.6720   -9.5560 C.ar  441  TYR441     -0.0009
    146  CD2        4.4760   -0.3510   -7.8590 C.ar  441  TYR441     -0.0009
    147  CE1        6.0060   -0.5700  -10.1580 C.ar  441  TYR441      0.0417
    148  CE2        4.6600   -1.5970   -8.4570 C.ar  441  TYR441      0.0417
    149  CZ         5.4350   -1.7030   -9.6010 C.ar  441  TYR441      0.1957
    150  OH         5.6150   -2.9220  -10.2040 O.3   441  TYR441     -0.2866
    151  N         -1.5040    0.9430   -8.9600 N.3   470  TYR470     -0.1227
    152  CA        -0.2930    1.7350   -8.7050 C.3   470  TYR470      0.1736
    153  C         -0.0070    2.8010   -9.7720 C.2   470  TYR470      0.2595
    154  O          0.8250    3.6880   -9.5480 O.2   470  TYR470     -0.2718
    155  CB         0.9390    0.8630   -8.3980 C.3   470  TYR470      0.0548
    156  CG         1.2750   -0.1440   -9.4710 C.ar  470  TYR470     -0.0200
    157  CD1        2.0860    0.2010  -10.5490 C.ar  470  TYR470     -0.0009
    158  CD2        0.8090   -1.4530   -9.3970 C.ar  470  TYR470     -0.0009
    159  CE1        2.4120   -0.7270  -11.5360 C.ar  470  TYR470      0.0417
    160  CE2        1.1380   -2.3940  -10.3720 C.ar  470  TYR470      0.0417
    161  CZ         1.9290   -2.0220  -11.4490 C.ar  470  TYR470      0.1957
    162  OH         2.2330   -2.9300  -12.4380 O.3   470  TYR470     -0.2866
    163  N         -0.6890    2.7120  -10.9220 N.am  471  PHE471     -0.1962
    164  CA        -0.5260    3.6630  -12.0140 C.3   471  PHE471      0.1771
    165  C         -1.1120    5.0330  -11.6510 C.2   471  PHE471      0.2620
    166  O         -2.2010    5.0950  -11.0890 O.2   471  PHE471     -0.2715
    167  CB        -1.1340    3.1130  -13.3300 C.3   471  PHE471      0.0574
    168  CG        -0.3610    1.9850  -13.9910 C.ar  471  PHE471     -0.0200
    169  CD1        0.8670    2.2220  -14.5980 C.ar  471  PHE471     -0.0042
    170  CD2       -0.8670    0.6920  -14.0070 C.ar  471  PHE471     -0.0042
    171  CE1        1.5780    1.1850  -15.2100 C.ar  471  PHE471     -0.0003
    172  CE2       -0.1620   -0.3470  -14.6270 C.ar  471  PHE471     -0.0003
    173  CZ         1.0560   -0.0940  -15.2290 C.ar  471  PHE471     -0.0000
    174  N         -0.3990    6.1070  -12.0050 N.am  472  GLY472     -0.1954
    175  CA        -0.8200    7.5030  -11.7760 C.3   472  GLY472      0.1869
    176  C         -2.2170    7.8850  -12.2440 C.2   472  GLY472      0.2309
    177  O         -2.9720    8.5330  -11.5230 O.2   472  GLY472     -0.2863
@<TRIPOS>BOND
     1    56    55    2
     2    55    54    1
     3    53    54    1
     4    54    57    1
     5    23    22    2
     6    47    48    1
     7    49    48    1
     8    49    50    2
     9    57    58    1
    10    30    29    1
    11    30    31    1
    12    30    33    1
    13    48    51    1
    14    22    21    1
    15    31    32    2
    16    39    37    1
    17    67    69   ar
    18    67    66   ar
    19    69    71   ar
    20    38    37    1
    21    24    25    1
    22    24    21    1
    23    37    36    2
    24    26    25    1
    25    26    27    1
    26    34    33    1
    27    34    35    1
    28    21    20    1
    29    28    27    1
    30    40    41    1
    31    36    35    1
    32    42    43    2
    33    42    41    1
    34    58    59    2
    35    58    60   am
    36    61    62    1
    37    65    66    1
    38    65    62    1
    39    51    52    1
    40    66    68   ar
    41    71    72    1
    42    71    70   ar
    43    41    44    1
    44    62    63    1
    45    45    44    1
    46    96    95    1
    47    96    97    1
    48    95    94    1
    49    68    70   ar
    50    44    46    1
    51    63    73   am
    52    63    64    2
    53    94    93    1
    54    17    16    2
    55    93    90    1
    56    73    74    1
    57    18    19    1
    58    18    15    1
    59    15    16    1
    60    15    14    1
    61    90    89    1
    62    90    91    1
    63    74    75    1
    64    13    12    2
    65    14    12   am
    66    77    75   am
    67    77    78    1
    68    81    82    1
    69    81    78    1
    70    98    91   am
    71    98    99    1
    72   101   100    2
    73    91    92    2
    74    12    11    1
    75   103   102    1
    76    75    76    2
    77    84    82   ar
    78    84    86   ar
    79    82    83   ar
    80    78    79    1
    81   100    99    1
    82   100   104   am
    83    99   102    1
    84    86    87   ar
    85    79    80    2
    86    11    10    1
    87   173   171   ar
    88   173   172   ar
    89   171   169   ar
    90    83    85   ar
    91    87    85   ar
    92    87    88    1
    93   172   170   ar
    94   169   168   ar
    95   104   105    1
    96   105   106    1
    97   170   168   ar
    98   168   167    1
    99   130   128    1
   100   111   110    2
   101   108   106   am
   102   108   109    1
   103   113   112    1
   104   167   164    1
   105   106   107    2
   106   112   109    1
   107   112   114    1
   108   129   128    1
   109   128   127    2
   110   109   110    1
   111   110   115   am
   112     8     7   ar
   113   162   161    1
   114   176   175    1
   115   176   177    2
   116   164   165    1
   117   164   163    1
   118   174   175    1
   119   174   165   am
   120   127   126    1
   121   165   166    2
   122     7     9   ar
   123     7     6    1
   124   159   161   ar
   125   159   157   ar
   126   161   160   ar
   127   115   116    1
   128     3     4    2
   129     3     2    1
   130   116   119    1
   131   116   117    1
   132     5     2    1
   133     5     6    1
   134   124   125    1
   135   124   121    1
   136   163   153   am
   137   120   117   am
   138   120   121    1
   139     2     1    1
   140   125   126    1
   141   157   156   ar
   142   117   118    2
   143   160   158   ar
   144   150   149    1
   145   147   149   ar
   146   147   145   ar
   147   121   122    1
   148   138   136   am
   149   153   154    2
   150   153   152    1
   151   149   148   ar
   152   145   144   ar
   153   123   122    2
   154   156   158   ar
   155   156   155    1
   156   151   152    1
   157   152   155    1
   158   136   137    2
   159   136   135    1
   160   148   146   ar
   161   144   146   ar
   162   144   143    1
   163   135   132    1
   164   143   140    1
   165   140   141    1
   166   140   139    1
   167   141   142    2
   168   132   131    1
   169   132   133    1
   170   133   134    2
