@<TRIPOS>MOLECULE
tmp/3pbzA00.pdb
 131 120 0 0 0
SMALL
GASTEIGER

@<TRIPOS>ATOM
      1  N         -3.8650   -9.0260    3.4910 N.3    10  ILE10      -0.1245
      2  CA        -4.9550   -9.4670    4.3670 C.3    10  ILE10       0.1561
      3  C         -6.2790   -9.6620    3.6460 C.2    10  ILE10       0.2260
      4  O         -7.2030  -10.2540    4.1700 O.2    10  ILE10      -0.2867
      5  CB        -5.1340   -8.4200    5.4770 C.3    10  ILE10       0.0252
      6  CG1       -5.6450   -7.0720    4.9420 C.3    10  ILE10       0.0019
      7  CG2       -3.8630   -8.2940    6.3240 C.3    10  ILE10       0.0019
      8  CD1       -6.2750   -6.2460    6.0530 C.3    10  ILE10       0.0001
      9  N         -5.1300   -4.3290    1.3540 N.3    15  ASP15      -0.1225
     10  CA        -5.3510   -3.2180    2.2700 C.3    15  ASP15       0.1805
     11  C         -4.2000   -3.0780    3.2670 C.2    15  ASP15       0.2597
     12  O         -3.9060   -1.9650    3.6820 O.2    15  ASP15      -0.2718
     13  CB        -6.6660   -3.3370    3.0450 C.3    15  ASP15       0.1424
     14  CG        -7.8300   -2.8260    2.2190 C.2    15  ASP15       0.3668
     15  OD1       -7.7480   -1.7550    1.5800 O.co2  15  ASP15      -0.2456
     16  OD2       -8.8590   -3.5360    2.1980 O.co2  15  ASP15      -0.2456
     17  N         -3.6300   -4.2240    3.5950 N.am   16  ALA16      -0.1979
     18  CA        -2.4390   -4.3020    4.4250 C.3    16  ALA16       0.1597
     19  C         -1.8020   -5.6810    4.2540 C.2    16  ALA16       0.2287
     20  O         -2.3900   -6.5200    3.5770 O.2    16  ALA16      -0.2864
     21  CB        -2.7140   -4.0540    5.8780 C.3    16  ALA16       0.0319
     22  N          1.4160   -6.4780   11.3560 N.3    33  ASP33      -0.1239
     23  CA         1.5220   -5.5440   10.2270 C.3    33  ASP33       0.1674
     24  C          2.8600   -4.8130   10.3580 C.2    33  ASP33       0.2266
     25  O          2.9880   -3.9700   11.2530 O.2    33  ASP33      -0.2867
     26  CB         0.3170   -4.5970   10.2710 C.3    33  ASP33       0.1410
     27  CG         0.1870   -3.5980    9.1600 C.2    33  ASP33       0.3668
     28  OD1        1.1210   -3.5140    8.3250 O.co2  33  ASP33      -0.2456
     29  OD2       -0.8540   -2.8770    9.1260 O.co2  33  ASP33      -0.2456
     30  N          5.3750   -2.0880    9.7780 N.3    35  ASP35      -0.1239
     31  CA         5.0780   -0.7080    9.4920 C.3    35  ASP35       0.1674
     32  C          6.3010    0.2070    9.5220 C.2    35  ASP35       0.2266
     33  O          6.7390    0.5910   10.6050 O.2    35  ASP35      -0.2867
     34  CB         4.0600   -0.2320   10.5220 C.3    35  ASP35       0.1410
     35  CG         3.5910    1.1990   10.3320 C.2    35  ASP35       0.3668
     36  OD1        3.9080    1.7610    9.2630 O.co2  35  ASP35      -0.2456
     37  OD2        2.9100    1.7570   11.2170 O.co2  35  ASP35      -0.2456
     38  N          6.4340    3.1610    8.8700 N.3    37  GLY37      -0.1225
     39  CA         5.9810    4.4650    9.2760 C.3    37  GLY37       0.1811
     40  C          5.7400    4.6390   10.7720 C.2    37  GLY37       0.2280
     41  O          5.2370    5.6820   11.2180 O.2    37  GLY37      -0.2866
     42  N         -2.3230    6.9280   14.8480 N.3    79  TYR79      -0.1227
     43  CA        -1.8180    6.9290   13.4820 C.3    79  TYR79       0.1736
     44  C         -2.5430    7.9720   12.6510 C.2    79  TYR79       0.2596
     45  O         -3.5700    8.5300   13.0540 O.2    79  TYR79      -0.2718
     46  CB        -2.0170    5.5170   12.9780 C.3    79  TYR79       0.0548
     47  CG        -1.3000    4.4310   13.7770 C.ar   79  TYR79      -0.0200
     48  CD1       -1.9220    3.7130   14.7760 C.ar   79  TYR79      -0.0009
     49  CD2        0.0380    4.1160   13.5090 C.ar   79  TYR79      -0.0009
     50  CE1       -1.2350    2.7240   15.4870 C.ar   79  TYR79       0.0417
     51  CE2        0.7390    3.1370   14.1990 C.ar   79  TYR79       0.0417
     52  CZ         0.0890    2.4340   15.2010 C.ar   79  TYR79       0.1957
     53  OH         0.7760    1.4610   15.8920 O.3    79  TYR79      -0.2866
     54  N         -2.0080    8.2450   11.4720 N.am   80  GLY80      -0.1942
     55  CA        -2.5890    9.1800   10.5460 C.3    80  GLY80       0.2014
     56  C         -4.0110    8.9470   10.0980 C.2    80  GLY80       0.2638
     57  O         -4.7320    9.8680    9.6690 O.2    80  GLY80      -0.2714
     58  N         -4.4970    7.7000   10.1750 N.am   81  ASP81      -0.1971
     59  CA        -5.9080    7.4760    9.8350 C.3    81  ASP81       0.1709
     60  C         -6.7880    7.7280   11.0530 C.2    81  ASP81       0.2293
     61  O         -8.0000    7.5810   10.9580 O.2    81  ASP81      -0.2864
     62  CB        -6.1000    6.0600    9.2830 C.3    81  ASP81       0.1436
     63  CG        -5.8730    4.9900   10.3230 C.2    81  ASP81       0.3671
     64  OD1       -5.3320    5.3020   11.3940 O.co2  81  ASP81      -0.2456
     65  OD2       -6.2290    3.8100   10.1320 O.co2  81  ASP81      -0.2456
     66  N         -6.6210    5.9600   13.8380 N.3    83  SER83      -0.1217
     67  CA        -6.6920    4.7940   14.7230 C.3    83  SER83       0.1889
     68  C         -5.6740    4.9650   15.8450 C.2    83  SER83       0.2288
     69  O         -4.8190    5.8460   15.8410 O.2    83  SER83      -0.2866
     70  CB        -6.4780    3.4870   13.9710 C.3    83  SER83       0.2089
     71  OG        -5.1730    3.3450   13.4650 O.3    83  SER83      -0.2183
     72  N        -11.1300    0.4040   14.4830 N.3   115  SER115     -0.1202
     73  CA       -10.5120   -0.0340   13.2310 C.3   115  SER115      0.2020
     74  C         -9.6400   -1.2650   13.4330 C.2   115  SER115      0.2618
     75  O         -9.5660   -2.1400   12.5660 O.2   115  SER115     -0.2717
     76  CB        -9.7240    1.1840   12.6990 C.3   115  SER115      0.2103
     77  OG        -9.4170    1.9560   13.8930 O.3   115  SER115     -0.2182
     78  N         -8.9640   -1.3500   14.5910 N.am  116  PHE116     -0.1975
     79  CA        -8.1210   -2.5300   14.8510 C.3   116  PHE116      0.1639
     80  C         -8.9880   -3.7280   15.1900 C.2   116  PHE116      0.2290
     81  O         -8.8040   -4.8320   14.6990 O.2   116  PHE116     -0.2864
     82  CB        -7.1070   -2.2180   15.9490 C.3   116  PHE116      0.0560
     83  CG        -5.9930   -1.3060   15.4660 C.ar  116  PHE116     -0.0200
     84  CD1       -5.1370   -1.7260   14.4730 C.ar  116  PHE116     -0.0042
     85  CD2       -5.7900   -0.0450   15.9930 C.ar  116  PHE116     -0.0042
     86  CE1       -4.1160   -0.9260   14.0200 C.ar  116  PHE116     -0.0003
     87  CE2       -4.7510    0.7580   15.5580 C.ar  116  PHE116     -0.0003
     88  CZ        -3.8910    0.3200   14.5770 C.ar  116  PHE116     -0.0000
     89  N        -10.2860   -5.4780   12.2270 N.3   119  ASP119     -0.1239
     90  CA        -9.3510   -6.1490   11.3040 C.3   119  ASP119      0.1674
     91  C         -8.9620   -7.4650   11.9950 C.2   119  ASP119      0.2266
     92  O         -7.9410   -7.4820   12.6980 O.2   119  ASP119     -0.2867
     93  CB        -8.1540   -5.2970   10.9320 C.3   119  ASP119      0.1410
     94  CG        -8.2690   -4.2700    9.8400 C.2   119  ASP119      0.3668
     95  OD1       -9.3080   -4.2840    9.1250 O.co2 119  ASP119     -0.2456
     96  OD2       -7.3560   -3.4190    9.6230 O.co2 119  ASP119     -0.2456
     97  N         -5.2560   -8.8560   11.6890 N.3   122  ILE122     -0.1245
     98  CA        -4.0650   -8.1700   12.1890 C.3   122  ILE122      0.1561
     99  C         -4.0170   -8.2420   13.7080 C.2   122  ILE122      0.2260
    100  O         -4.8680   -7.7500   14.4390 O.2   122  ILE122     -0.2867
    101  CB        -4.0350   -6.7330   11.6820 C.3   122  ILE122      0.0252
    102  CG1       -3.8810   -6.6840   10.1500 C.3   122  ILE122      0.0019
    103  CG2       -2.9820   -5.8930   12.3920 C.3   122  ILE122      0.0019
    104  CD1       -4.0960   -5.2960    9.5800 C.3   122  ILE122      0.0001
    105  N          1.0890   -4.6240   15.3320 N.3   125  LEU125     -0.1245
    106  CA         1.9950   -3.8760   14.4730 C.3   125  LEU125      0.1561
    107  C          3.4370   -4.1390   14.9090 C.2   125  LEU125      0.2260
    108  O          3.6960   -4.2640   16.1140 O.2   125  LEU125     -0.2867
    109  CB         1.7000   -2.3550   14.4530 C.3   125  LEU125      0.0270
    110  CG         0.7970   -1.9350   13.2540 C.3   125  LEU125      0.0019
    111  CD1       -0.5740   -2.5390   13.4410 C.3   125  LEU125      0.0001
    112  CD2        0.7190   -0.4260   13.0760 C.3   125  LEU125      0.0001
    113  N          6.3520    4.2110    3.5910 N.3   219  ASP219     -0.1239
    114  CA         5.4830    3.7280    4.6470 C.3   219  ASP219      0.1674
    115  C          4.6920    2.4700    4.2580 C.2   219  ASP219      0.2266
    116  O          3.6320    2.4970    3.6600 O.2   219  ASP219     -0.2867
    117  CB         4.5460    4.8350    5.1230 C.3   219  ASP219      0.1410
    118  CG         3.7170    4.4180    6.3420 C.2   219  ASP219      0.3668
    119  OD1        2.8190    5.2220    6.6790 O.co2 219  ASP219     -0.2456
    120  OD2        3.9360    3.3200    6.9190 O.co2 219  ASP219     -0.2456
    121  N          3.0360    0.6970    6.1750 N.3   221  GLY221     -0.1210
    122  CA         1.8270    0.6540    6.9540 C.3   221  GLY221      0.1956
    123  C          0.6900    1.4970    6.4080 C.2   221  GLY221      0.2612
    124  O         -0.3840    1.4970    7.0050 O.2   221  GLY221     -0.2717
    125  N          0.9330    2.2020    5.3140 N.am  222  THR222     -0.1952
    126  CA        -0.0920    2.9880    4.6440 C.3   222  THR222      0.1897
    127  C         -0.4150    2.3040    3.3050 C.2   222  THR222      0.2313
    128  O          0.4700    1.9170    2.5530 O.2   222  THR222     -0.2863
    129  CB         0.3430    4.4430    4.4100 C.3   222  THR222      0.1794
    130  OG1        0.4170    5.1290    5.6430 O.3   222  THR222     -0.2208
    131  CG2       -0.6670    5.1570    3.5300 C.3   222  THR222      0.0378
@<TRIPOS>BOND
     1     9    10    1
     2    15    14   ar
     3    16    14   ar
     4    14    13    1
     5    10    13    1
     6    10    11    1
     7   128   127    2
     8    11    17   am
     9    11    12    2
    10   127   126    1
    11     1     2    1
    12   131   129    1
    13    20    19    2
    14   113   114    1
    15    17    18    1
    16     3     4    2
    17     3     2    1
    18   116   115    2
    19    19    18    1
    20   115   114    1
    21     2     5    1
    22   129   126    1
    23   129   130    1
    24    18    21    1
    25   126   125    1
    26   114   117    1
    27     6     5    1
    28     6     8    1
    29   117   118    1
    30   125   123   am
    31     5     7    1
    32   121   122    1
    33   118   119   ar
    34   118   120   ar
    35   123   122    1
    36   123   124    2
    37    28    27   ar
    38    38    39    1
    39    95    94   ar
    40    29    27   ar
    41    27    26    1
    42    36    35   ar
    43    39    40    1
    44    62    59    1
    45    62    63    1
    46    31    32    1
    47    31    30    1
    48    31    34    1
    49    32    33    2
    50   104   102    1
    51    96    94   ar
    52    57    56    2
    53    59    58    1
    54    59    60    1
    55    94    93    1
    56    56    58   am
    57    56    55    1
    58    65    63   ar
    59   102   101    1
    60    23    26    1
    61    23    24    1
    62    23    22    1
    63    63    64   ar
    64    35    34    1
    65    35    37   ar
    66    24    25    2
    67    55    54    1
    68    40    41    2
    69    93    90    1
    70    61    60    2
    71    90    91    1
    72    90    89    1
    73    54    44   am
    74   101    98    1
    75   101   103    1
    76    97    98    1
    77    91    92    2
    78    98    99    1
    79    75    74    2
    80    44    45    2
    81    44    43    1
    82    76    73    1
    83    76    77    1
    84    46    43    1
    85    46    47    1
    86   112   110    1
    87    73    74    1
    88    73    72    1
    89   110   111    1
    90   110   109    1
    91    74    78   am
    92    71    70    1
    93    43    42    1
    94    49    47   ar
    95    49    51   ar
    96    99   100    2
    97    47    48   ar
    98    66    67    1
    99    70    67    1
   100    86    84   ar
   101    86    88   ar
   102    51    52   ar
   103   109   106    1
   104   106   107    1
   105   106   105    1
   106    84    83   ar
   107    88    87   ar
   108    78    79    1
   109    81    80    2
   110    67    68    1
   111    48    50   ar
   112    79    80    1
   113    79    82    1
   114   107   108    2
   115    52    50   ar
   116    52    53    1
   117    83    82    1
   118    83    85   ar
   119    87    85   ar
   120    69    68    2
