@<TRIPOS>MOLECULE
tmp/3pceF00.pdb
 120 118 0 0 0
SMALL
GASTEIGER

@<TRIPOS>ATOM
      1  N         32.0510   15.4540   17.7290 N.3    24  TYR24      -0.1241
      2  CA        33.3290   15.8400   17.1390 C.3    24  TYR24       0.1605
      3  C         33.9170   16.8090   18.2610 C.2    24  TYR24       0.2264
      4  O         33.7010   18.0140   18.2060 O.2    24  TYR24      -0.2867
      5  CB        33.1420   16.6650   15.8710 C.3    24  TYR24       0.0534
      6  CG        34.4430   17.0670   15.2060 C.ar   24  TYR24      -0.0201
      7  CD1       35.6600   16.4020   15.5350 C.ar   24  TYR24      -0.0009
      8  CD2       34.4550   18.1090   14.3090 C.ar   24  TYR24      -0.0009
      9  CE1       36.8590   16.8050   14.9140 C.ar   24  TYR24       0.0417
     10  CE2       35.6390   18.5010   13.6730 C.ar   24  TYR24       0.0417
     11  CZ        36.8310   17.8480   13.9850 C.ar   24  TYR24       0.1957
     12  OH        37.9460   18.2740   13.3120 O.3    24  TYR24      -0.2866
     13  N         36.7380   18.1670   19.4020 N.3    26  THR26      -0.1218
     14  CA        37.4870   19.4100   19.2020 C.3    26  THR26       0.1862
     15  C         36.5940   20.5920   18.8510 C.2    26  THR26       0.2287
     16  O         37.0490   21.6910   19.0780 O.2    26  THR26      -0.2866
     17  CB        38.5210   19.2250   18.0060 C.3    26  THR26       0.1770
     18  OG1       39.3520   18.1340   18.4640 O.3    26  THR26      -0.2211
     19  CG2       39.3810   20.4930   17.8060 C.3    26  THR26       0.0375
     20  N         44.8880   16.8590   -0.7340 N.3    97  TRP97      -0.1241
     21  CA        45.8810   16.2250    0.1430 C.3    97  TRP97       0.1605
     22  C         45.2120   14.9720    0.6940 C.2    97  TRP97       0.2264
     23  O         43.9480   15.0260    0.8790 O.2    97  TRP97      -0.2867
     24  CB        46.5100   17.0950    1.2060 C.3    97  TRP97       0.0550
     25  CG        45.7070   17.6340    2.3310 C.ar   97  TRP97       0.0003
     26  CD1       45.6010   17.1530    3.6310 C.ar   97  TRP97       0.0946
     27  CD2       44.7870   18.7360    2.2650 C.ar   97  TRP97       0.0152
     28  NE1       44.7080   17.9450    4.3630 N.ar   97  TRP97      -0.2442
     29  CE2       44.2290   18.9170    3.5530 C.ar   97  TRP97       0.0810
     30  CE3       44.4000   19.5750    1.2120 C.ar   97  TRP97       0.0012
     31  CZ2       43.3010   19.9080    3.8010 C.ar   97  TRP97       0.0191
     32  CZ3       43.4730   20.5640    1.4770 C.ar   97  TRP97       0.0001
     33  CH2       42.9360   20.7230    2.7520 C.ar   97  TRP97       0.0015
     34  N         49.6860    9.7550    6.9100 N.3   105  TYR105     -0.1241
     35  CA        49.9890   11.0310    6.2770 C.3   105  TYR105      0.1605
     36  C         51.4990   11.3400    6.3770 C.2   105  TYR105      0.2264
     37  O         52.1600   11.0250    7.3880 O.2   105  TYR105     -0.2867
     38  CB        49.2540   12.1820    6.9660 C.3   105  TYR105      0.0534
     39  CG        47.7760   12.2870    6.6930 C.ar  105  TYR105     -0.0201
     40  CD1       46.8400   11.5930    7.4260 C.ar  105  TYR105     -0.0009
     41  CD2       47.3370   13.1350    5.6560 C.ar  105  TYR105     -0.0009
     42  CE1       45.4560   11.7650    7.1730 C.ar  105  TYR105      0.0417
     43  CE2       45.9810   13.2980    5.3770 C.ar  105  TYR105      0.0417
     44  CZ        45.0550   12.5960    6.1370 C.ar  105  TYR105      0.1957
     45  OH        43.7390   12.7170    5.8810 O.3   105  TYR105     -0.2866
     46  N         41.7510    5.7090    8.8110 N.3   144  TYR144     -0.1241
     47  CA        42.7070    5.8450    9.9270 C.3   144  TYR144      0.1605
     48  C         41.9750    6.1720   11.2350 C.2   144  TYR144      0.2264
     49  O         40.9680    6.8540   11.2400 O.2   144  TYR144     -0.2867
     50  CB        43.9150    6.7080    9.6220 C.3   144  TYR144      0.0534
     51  CG        43.4970    8.1120    9.2540 C.ar  144  TYR144     -0.0201
     52  CD1       43.2590    9.0790   10.2140 C.ar  144  TYR144     -0.0009
     53  CD2       43.2640    8.4170    7.9130 C.ar  144  TYR144     -0.0009
     54  CE1       42.8120   10.3550    9.8610 C.ar  144  TYR144      0.0417
     55  CE2       42.8710    9.6820    7.5130 C.ar  144  TYR144      0.0417
     56  CZ        42.6500   10.6510    8.5000 C.ar  144  TYR144      0.1957
     57  OH        42.3070   11.8970    8.0730 O.3   144  TYR144     -0.2866
     58  N         41.5860    7.7760   15.0850 N.3   146  TRP146     -0.1227
     59  CA        41.8940    9.1370   15.6120 C.3   146  TRP146      0.1737
     60  C         41.3620    9.2320   17.0250 C.2   146  TRP146      0.2595
     61  O         40.4140    8.4870   17.4030 O.2   146  TRP146     -0.2718
     62  CB        41.4950   10.2500   14.6490 C.3   146  TRP146      0.0564
     63  CG        40.0190   10.2190   14.3720 C.ar  146  TRP146      0.0003
     64  CD1       39.2940    9.1570   13.8890 C.ar  146  TRP146      0.0946
     65  CD2       39.0900   11.2770   14.6080 C.ar  146  TRP146      0.0152
     66  NE1       37.9830    9.5040   13.7680 N.ar  146  TRP146     -0.2442
     67  CE2       37.8170   10.7910   14.2300 C.ar  146  TRP146      0.0810
     68  CE3       39.2370   12.5730   15.0790 C.ar  146  TRP146      0.0012
     69  CZ2       36.6620   11.5570   14.3200 C.ar  146  TRP146      0.0191
     70  CZ3       38.0910   13.3510   15.1910 C.ar  146  TRP146      0.0001
     71  CH2       36.8470   12.8650   14.8140 C.ar  146  TRP146      0.0015
     72  N         42.0030   10.1010   17.8010 N.am  147  ARG147     -0.1980
     73  CA        41.6140   10.2400   19.2130 C.3   147  ARG147      0.1597
     74  C         40.3690   11.0660   19.4280 C.2   147  ARG147      0.2287
     75  O         40.4610   12.2890   19.6750 O.2   147  ARG147     -0.2864
     76  CB        42.8470   10.6750   20.0110 C.3   147  ARG147      0.0334
     77  CG        44.0780    9.7900   19.7030 C.3   147  ARG147      0.0492
     78  CD        45.1040    9.9250   20.8180 C.3   147  ARG147      0.2205
     79  NE        45.1390    8.7490   21.6560 N.pl3 147  ARG147     -0.0865
     80  CZ        46.0190    7.7520   21.6430 C.cat 147  ARG147      0.5346
     81  NH1       47.0880    7.7090   20.8490 N.pl3 147  ARG147      0.1354
     82  NH2       45.7220    6.6550   22.4010 N.pl3 147  ARG147      0.1354
     83  N         38.2780    7.4300   10.7520 N.3   154  ARG154     -0.1245
     84  CA        37.7470    8.2600    9.6200 C.3   154  ARG154      0.1563
     85  C         37.5950    7.2850    8.4160 C.2   154  ARG154      0.2260
     86  O         38.4390    6.3770    8.2200 O.2   154  ARG154     -0.2867
     87  CB        38.7790    9.3160    9.2380 C.3   154  ARG154      0.0307
     88  CG        39.1460   10.4200   10.2100 C.3   154  ARG154      0.0489
     89  CD        38.0240   11.2220   10.7500 C.3   154  ARG154      0.2205
     90  NE        36.9420   11.4710    9.7820 N.pl3 154  ARG154     -0.0865
     91  CZ        37.0110   12.2600    8.6970 C.cat 154  ARG154      0.5346
     92  NH1       38.1020   12.9500    8.3390 N.pl3 154  ARG154      0.1354
     93  NH2       35.8760   12.3380    7.9420 N.pl3 154  ARG154      0.1354
     94  N         41.0570   15.2060    0.9700 N.3   159  HIS159     -0.1241
     95  CA        40.7380   16.5970    1.3300 C.3   159  HIS159      0.1621
     96  C         40.7830   17.4890    0.1070 C.2   159  HIS159      0.2264
     97  O         41.7350   17.3550   -0.7070 O.2   159  HIS159     -0.2867
     98  CB        41.7210   17.1450    2.3990 C.3   159  HIS159      0.0745
     99  CG        41.6830   16.4260    3.6900 C.ar  159  HIS159      0.0817
    100  ND1       40.9290   16.8310    4.7790 N.ar  159  HIS159     -0.2268
    101  CD2       42.3840   15.3190    4.1220 C.ar  159  HIS159      0.1154
    102  CE1       41.1360   16.0020    5.7810 C.ar  159  HIS159      0.1986
    103  NE2       42.0010   15.1020    5.4210 N.ar  159  HIS159     -0.2212
    104  N         35.7430   17.4150    2.1060 N.3   174  GLN174     -0.1245
    105  CA        36.3590   16.0850    2.0620 C.3   174  GLN174      0.1566
    106  C         35.5210   15.1960    1.1420 C.2   174  GLN174      0.2260
    107  O         34.2590   15.2500    1.2520 O.2   174  GLN174     -0.2867
    108  CB        36.4900   15.5140    3.4730 C.3   174  GLN174      0.0367
    109  CG        37.3220   16.3500    4.4260 C.3   174  GLN174      0.0905
    110  CD        37.5000   15.6790    5.8110 C.2   174  GLN174      0.2608
    111  OE1       37.5580   14.4300    5.9090 O.2   174  GLN174     -0.2717
    112  NE2       37.5690   16.5480    6.8210 N.am  174  GLN174     -0.0878
    113  N         32.5600   13.2440   12.1080 N.3   188  ILE188     -0.1245
    114  CA        32.8020   14.3940   11.2600 C.3   188  ILE188      0.1561
    115  C         31.7920   14.4850   10.0920 C.2   188  ILE188      0.2260
    116  O         31.3670   15.5860    9.7160 O.2   188  ILE188     -0.2867
    117  CB        34.2730   14.4920   10.7340 C.3   188  ILE188      0.0252
    118  CG1       35.2120   14.7900   11.9480 C.3   188  ILE188      0.0019
    119  CG2       34.4050   15.5230    9.6020 C.3   188  ILE188      0.0019
    120  CD1       36.7110   14.8050   11.5790 C.3   188  ILE188      0.0001
@<TRIPOS>BOND
     1    20    21    1
     2    97    96    2
     3    96    95    1
     4    21    22    1
     5    21    24    1
     6    22    23    2
     7    94    95    1
     8   106   107    2
     9   106   105    1
    10    24    25    1
    11    30    32   ar
    12    30    27   ar
    13    95    98    1
    14    32    33   ar
    15   105   104    1
    16   105   108    1
    17    27    25   ar
    18    27    29   ar
    19    25    26   ar
    20    98    99    1
    21    33    31   ar
    22   108   109    1
    23    29    31   ar
    24    29    28   ar
    25    26    28   ar
    26    99   101   ar
    27    99   100   ar
    28   101   103   ar
    29   109   110    1
    30   100   102   ar
    31    43    41   ar
    32    43    44   ar
    33   103   102   ar
    34    41    39   ar
    35   110   111    2
    36   110   112   am
    37    45    44    1
    38    44    42   ar
    39    35    36    1
    40    35    34    1
    41    35    38    1
    42    36    37    2
    43    39    38    1
    44    39    40   ar
    45    42    40   ar
    46    55    53   ar
    47    55    56   ar
    48    53    51   ar
    49    93    91    1
    50    57    56    1
    51    86    85    2
    52    92    91    1
    53    85    84    1
    54    56    54   ar
    55    91    90    2
    56    46    47    1
    57    87    84    1
    58    87    88    1
    59    51    50    1
    60    51    52   ar
    61   119   117    1
    62    84    83    1
    63    50    47    1
    64   116   115    2
    65    90    89    1
    66    54    52   ar
    67    47    48    1
    68   115   114    1
    69    88    89    1
    70   117   114    1
    71   117   118    1
    72    48    49    2
    73   114   113    1
    74   120   118    1
    75    12    11    1
    76    10    11   ar
    77    10     8   ar
    78    66    64   ar
    79    66    67   ar
    80    64    63   ar
    81    11     9   ar
    82    67    69   ar
    83    67    65   ar
    84     8     6   ar
    85    69    71   ar
    86    63    65   ar
    87    63    62    1
    88    65    68   ar
    89    62    59    1
    90    71    70   ar
    91     9     7   ar
    92    68    70   ar
    93    58    59    1
    94     6     7   ar
    95     6     5    1
    96    59    60    1
    97     5     2    1
    98    60    61    2
    99    60    72   am
   100     2     1    1
   101     2     3    1
   102    72    73    1
   103    19    17    1
   104    17    18    1
   105    17    14    1
   106     4     3    2
   107    15    16    2
   108    15    14    1
   109    14    13    1
   110    73    74    1
   111    73    76    1
   112    74    75    2
   113    77    76    1
   114    77    78    1
   115    78    79    1
   116    81    80    1
   117    80    79    2
   118    80    82    1
