@<TRIPOS>MOLECULE
tmp/3pcfH00.pdb
 116 113 0 0 0
SMALL
GASTEIGER

@<TRIPOS>ATOM
      1  N        -15.3630  -17.6320   31.7100 N.3    24  TYR24      -0.1241
      2  CA       -15.7080  -17.0970   33.0600 C.3    24  TYR24       0.1605
      3  C        -16.5870  -18.2680   33.5950 C.2    24  TYR24       0.2264
      4  O        -17.8200  -18.3260   33.2920 O.2    24  TYR24      -0.2867
      5  CB       -16.4030  -15.7600   32.9660 C.3    24  TYR24       0.0534
      6  CG       -16.8430  -15.1360   34.2770 C.ar   24  TYR24      -0.0201
      7  CD1      -16.2740  -15.5010   35.5050 C.ar   24  TYR24      -0.0009
      8  CD2      -17.8390  -14.1560   34.2820 C.ar   24  TYR24      -0.0009
      9  CE1      -16.6630  -14.9390   36.6950 C.ar   24  TYR24       0.0417
     10  CE2      -18.2350  -13.5440   35.4660 C.ar   24  TYR24       0.0417
     11  CZ       -17.6540  -13.9390   36.6610 C.ar   24  TYR24       0.1957
     12  OH       -18.0560  -13.2900   37.7840 O.3    24  TYR24      -0.2866
     13  N        -18.0030  -19.3000   36.4340 N.3    26  THR26      -0.1218
     14  CA       -19.2190  -19.0330   37.2190 C.3    26  THR26       0.1862
     15  C        -20.4360  -18.7010   36.3990 C.2    26  THR26       0.2287
     16  O        -21.5290  -18.9640   36.9170 O.2    26  THR26      -0.2866
     17  CB       -18.9070  -17.9930   38.3630 C.3    26  THR26       0.1770
     18  OG1      -17.9870  -18.8370   39.2010 O.3    26  THR26      -0.2211
     19  CG2      -20.1060  -17.5770   39.2370 C.3    26  THR26       0.0375
     20  N         -9.5740   -7.0710   49.4490 N.3   105  TYR105     -0.1241
     21  CA       -10.9100   -6.4090   49.6690 C.3   105  TYR105      0.1605
     22  C        -11.3030   -6.5160   51.1420 C.2   105  TYR105      0.2264
     23  O        -11.0980   -7.5780   51.7640 O.2   105  TYR105     -0.2867
     24  CB       -12.0000   -7.0850   48.8420 C.3   105  TYR105      0.0534
     25  CG       -12.1130   -6.8710   47.3700 C.ar  105  TYR105     -0.0201
     26  CD1      -12.8240   -5.7810   46.8580 C.ar  105  TYR105     -0.0009
     27  CD2      -11.5420   -7.7120   46.4530 C.ar  105  TYR105     -0.0009
     28  CE1      -12.9560   -5.5530   45.4950 C.ar  105  TYR105      0.0417
     29  CE2      -11.6730   -7.5670   45.0750 C.ar  105  TYR105      0.0417
     30  CZ       -12.3650   -6.4270   44.6130 C.ar  105  TYR105      0.1957
     31  OH       -12.4790   -6.2800   43.2850 O.3   105  TYR105     -0.2866
     32  N         -5.5720   -8.8460   41.5690 N.3   144  TYR144     -0.1241
     33  CA        -5.6710   -9.9480   42.5830 C.3   144  TYR144      0.1605
     34  C         -6.1170  -11.2380   41.9000 C.2   144  TYR144      0.2264
     35  O         -6.8340  -11.2440   40.8930 O.2   144  TYR144     -0.2867
     36  CB        -6.5210   -9.5340   43.7830 C.3   144  TYR144      0.0534
     37  CG        -7.9530   -9.2680   43.3100 C.ar  144  TYR144     -0.0201
     38  CD1       -8.8400  -10.3040   43.1430 C.ar  144  TYR144     -0.0009
     39  CD2       -8.3260   -7.9610   43.0280 C.ar  144  TYR144     -0.0009
     40  CE1      -10.1190  -10.0700   42.6330 C.ar  144  TYR144      0.0417
     41  CE2       -9.6180   -7.6670   42.5760 C.ar  144  TYR144      0.0417
     42  CZ       -10.5000   -8.7540   42.3780 C.ar  144  TYR144      0.1957
     43  OH       -11.7490   -8.4350   41.9500 O.3   144  TYR144     -0.2866
     44  N         -7.8150  -14.9750   41.5710 N.3   146  TRP146     -0.1227
     45  CA        -9.1890  -15.4800   41.8760 C.3   146  TRP146      0.1737
     46  C         -9.2530  -16.9120   41.3300 C.2   146  TRP146      0.2595
     47  O         -8.5300  -17.2250   40.3550 O.2   146  TRP146     -0.2718
     48  CB       -10.2050  -14.5310   41.3380 C.3   146  TRP146      0.0564
     49  CG       -10.2080  -14.3000   39.8700 C.ar  146  TRP146      0.0003
     50  CD1       -9.1800  -13.8110   39.0870 C.ar  146  TRP146      0.0946
     51  CD2      -11.2750  -14.6220   38.9540 C.ar  146  TRP146      0.0152
     52  NE1       -9.5470  -13.8150   37.7710 N.ar  146  TRP146     -0.2442
     53  CE2      -10.8280  -14.2790   37.6580 C.ar  146  TRP146      0.0810
     54  CE3      -12.5690  -15.1110   39.1470 C.ar  146  TRP146      0.0012
     55  CZ2      -11.6420  -14.3850   36.5290 C.ar  146  TRP146      0.0191
     56  CZ3      -13.3570  -15.2640   38.0200 C.ar  146  TRP146      0.0001
     57  CH2      -12.9370  -14.8600   36.7460 C.ar  146  TRP146      0.0015
     58  N        -10.1360  -17.6960   41.8890 N.am  147  ARG147     -0.1980
     59  CA       -10.2440  -19.1070   41.4560 C.3   147  ARG147      0.1597
     60  C        -11.0540  -19.2260   40.1890 C.2   147  ARG147      0.2287
     61  O        -12.3080  -19.3650   40.2820 O.2   147  ARG147     -0.2864
     62  CB       -10.6710  -20.0180   42.6030 C.3   147  ARG147      0.0334
     63  CG        -9.8350  -20.2970   43.7700 C.3   147  ARG147      0.0492
     64  CD        -9.1060  -21.4190   44.2570 C.3   147  ARG147      0.2205
     65  NE        -7.7520  -21.8190   43.8670 N.pl3 147  ARG147     -0.0865
     66  CZ        -6.7520  -22.1690   44.7010 C.cat 147  ARG147      0.5346
     67  NH1       -6.8790  -22.1780   46.0370 N.pl3 147  ARG147      0.1354
     68  NH2       -5.5290  -22.4930   44.2450 N.pl3 147  ARG147      0.1354
     69  N         -7.2910  -10.6600   38.0820 N.3   154  ARG154     -0.1245
     70  CA        -8.1130   -9.5500   37.6000 C.3   154  ARG154      0.1563
     71  C         -7.1400   -8.3260   37.4350 C.2   154  ARG154      0.2260
     72  O         -6.2810   -8.0620   38.2610 O.2   154  ARG154     -0.2867
     73  CB        -9.1500   -9.0630   38.6480 C.3   154  ARG154      0.0307
     74  CG       -10.2300  -10.0540   39.1100 C.3   154  ARG154      0.0489
     75  CD       -11.0820  -10.5280   38.0110 C.3   154  ARG154      0.2205
     76  NE       -11.4330   -9.6140   36.9600 N.pl3 154  ARG154     -0.0865
     77  CZ       -12.2560   -8.5630   36.9610 C.cat 154  ARG154      0.5346
     78  NH1      -12.8780   -8.1610   38.0550 N.pl3 154  ARG154      0.1354
     79  NH2      -12.4320   -7.9240   35.7630 N.pl3 154  ARG154      0.1354
     80  N         -8.9700   -2.8740   39.0370 N.3   157  HIS157     -0.1241
     81  CA       -10.2940   -2.3350   38.6580 C.3   157  HIS157      0.1621
     82  C        -11.1050   -1.7810   39.8180 C.2   157  HIS157      0.2264
     83  O        -10.8400   -2.1130   40.9900 O.2   157  HIS157     -0.2867
     84  CB       -11.1150   -3.5000   37.9860 C.3   157  HIS157      0.0745
     85  CG       -11.4130   -4.5650   38.9910 C.ar  157  HIS157      0.0817
     86  ND1      -10.5170   -5.5460   39.3630 N.ar  157  HIS157     -0.2268
     87  CD2      -12.5650   -4.8310   39.6860 C.ar  157  HIS157      0.1154
     88  CE1      -11.0800   -6.3190   40.2890 C.ar  157  HIS157      0.1986
     89  NE2      -12.2760   -5.8870   40.4690 N.ar  157  HIS157     -0.2212
     90  N        -15.1400   -1.2460   40.9810 N.3   159  HIS159     -0.1241
     91  CA       -16.5530   -1.6070   40.5820 C.3   159  HIS159      0.1621
     92  C        -17.3690   -0.2960   40.6240 C.2   159  HIS159      0.2264
     93  O        -17.1840    0.5220   41.5340 O.2   159  HIS159     -0.2867
     94  CB       -17.2460   -2.6350   41.4780 C.3   159  HIS159      0.0745
     95  CG       -16.4880   -3.9390   41.4370 C.ar  159  HIS159      0.0817
     96  ND1      -16.8340   -4.9900   40.6010 N.ar  159  HIS159     -0.2268
     97  CD2      -15.3730   -4.3090   42.0840 C.ar  159  HIS159      0.1154
     98  CE1      -15.9390   -5.9360   40.7480 C.ar  159  HIS159      0.1986
     99  NE2      -15.0530   -5.5550   41.6240 N.ar  159  HIS159     -0.2212
    100  N        -17.3970   -2.1220   35.5620 N.3   174  GLN174     -0.1245
    101  CA       -16.0270   -2.0920   36.1210 C.3   174  GLN174      0.1566
    102  C        -15.1580   -1.1580   35.2950 C.2   174  GLN174      0.2260
    103  O        -15.2640   -1.0280   34.0740 O.2   174  GLN174     -0.2867
    104  CB       -15.4610   -3.5480   36.2000 C.3   174  GLN174      0.0367
    105  CG       -16.2780   -4.4270   37.1520 C.3   174  GLN174      0.0905
    106  CD       -15.6710   -5.8420   37.2950 C.2   174  GLN174      0.2608
    107  OE1      -14.4280   -5.9910   37.4530 O.2   174  GLN174     -0.2717
    108  NE2      -16.5090   -6.8640   37.2110 N.am  174  GLN174     -0.0878
    109  N        -13.2350  -12.0950   32.4420 N.3   188  ILE188     -0.1245
    110  CA       -14.3950  -11.2590   32.7700 C.3   188  ILE188      0.1561
    111  C        -14.4610  -10.1350   31.7360 C.2   188  ILE188      0.2260
    112  O        -15.4720   -9.9020   31.1250 O.2   188  ILE188     -0.2867
    113  CB       -14.4310  -10.7530   34.2270 C.3   188  ILE188      0.0252
    114  CG1      -14.7270  -12.0040   35.1590 C.3   188  ILE188      0.0019
    115  CG2      -15.5210   -9.6670   34.4400 C.3   188  ILE188      0.0019
    116  CD1      -14.6250  -11.6350   36.6540 C.3   188  ILE188      0.0001
@<TRIPOS>BOND
     1   112   111    2
     2     1     2    1
     3   111   110    1
     4   109   110    1
     5   110   113    1
     6     5     2    1
     7     5     6    1
     8     2     3    1
     9     4     3    2
    10   103   102    2
    11   113   115    1
    12   113   114    1
    13     6     8   ar
    14     6     7   ar
    15     8    10   ar
    16   114   116    1
    17   102   101    1
    18    10    11   ar
    19     7     9   ar
    20   100   101    1
    21    79    77    1
    22   101   104    1
    23   104   105    1
    24    15    16    2
    25    15    14    1
    26    13    14    1
    27    55    57   ar
    28    55    53   ar
    29    11     9   ar
    30    11    12    1
    31    57    56   ar
    32    76    77    2
    33    76    75    1
    34    77    78    1
    35   105   106    1
    36   108   106   am
    37    14    17    1
    38   106   107    2
    39    71    70    1
    40    71    72    2
    41    70    69    1
    42    70    73    1
    43    53    52   ar
    44    53    51   ar
    45    52    50   ar
    46    84    81    1
    47    84    85    1
    48    75    74    1
    49    56    54   ar
    50    17    18    1
    51    17    19    1
    52    73    74    1
    53    81    80    1
    54    81    82    1
    55    51    54   ar
    56    51    49   ar
    57    85    86   ar
    58    85    87   ar
    59    50    49   ar
    60    86    88   ar
    61    87    89   ar
    62    82    83    2
    63    49    48    1
    64    60    61    2
    65    60    59    1
    66    88    89   ar
    67    47    46    2
    68    91    92    1
    69    91    90    1
    70    91    94    1
    71    96    98   ar
    72    96    95   ar
    73    92    93    2
    74    98    99   ar
    75    35    34    2
    76    46    45    1
    77    46    58   am
    78    48    45    1
    79    95    94    1
    80    95    97   ar
    81    59    58    1
    82    59    62    1
    83    32    33    1
    84    44    45    1
    85    99    97   ar
    86    34    33    1
    87    43    42    1
    88    42    41   ar
    89    42    40   ar
    90    41    39   ar
    91    33    36    1
    92    62    63    1
    93    40    38   ar
    94    39    37   ar
    95    38    37   ar
    96    31    30    1
    97    37    36    1
    98    63    64    1
    99    65    64    1
   100    65    66    2
   101    68    66    1
   102    30    29   ar
   103    30    28   ar
   104    66    67    1
   105    29    27   ar
   106    28    26   ar
   107    27    25   ar
   108    26    25   ar
   109    25    24    1
   110    24    21    1
   111    20    21    1
   112    21    22    1
   113    22    23    2
