@<TRIPOS>MOLECULE
tmp/3pchF00.pdb
 116 113 0 0 0
SMALL
GASTEIGER

@<TRIPOS>ATOM
      1  N         31.6670   15.4020   17.5120 N.3    24  TYR24      -0.1241
      2  CA        32.9740   15.7470   16.9490 C.3    24  TYR24       0.1605
      3  C         33.5530   16.6920   18.0920 C.2    24  TYR24       0.2264
      4  O         33.3990   17.9010   18.0350 O.2    24  TYR24      -0.2867
      5  CB        32.8460   16.5290   15.6430 C.3    24  TYR24       0.0534
      6  CG        34.1510   16.9770   15.0260 C.ar   24  TYR24      -0.0201
      7  CD1       35.3560   16.3540   15.4220 C.ar   24  TYR24      -0.0009
      8  CD2       34.2160   17.9160   14.0150 C.ar   24  TYR24      -0.0009
      9  CE1       36.5890   16.6920   14.8740 C.ar   24  TYR24       0.0417
     10  CE2       35.4590   18.3210   13.4700 C.ar   24  TYR24       0.0417
     11  CZ        36.6200   17.6700   13.8630 C.ar   24  TYR24       0.1957
     12  OH        37.8120   18.0200   13.2980 O.3    24  TYR24      -0.2866
     13  N         36.2760   18.0200   19.1460 N.3    26  THR26      -0.1218
     14  CA        37.0820   19.2690   18.9730 C.3    26  THR26       0.1862
     15  C         36.2350   20.4570   18.6330 C.2    26  THR26       0.2287
     16  O         36.6850   21.5950   18.8680 O.2    26  THR26      -0.2866
     17  CB        38.2210   19.0190   17.9090 C.3    26  THR26       0.1770
     18  OG1       39.1940   18.2930   18.7570 O.3    26  THR26      -0.2211
     19  CG2       38.9580   20.2830   17.4050 C.3    26  THR26       0.0375
     20  N         49.2710    9.6130    6.9530 N.3   105  TYR105     -0.1241
     21  CA        49.5220   10.9380    6.3750 C.3   105  TYR105      0.1605
     22  C         51.0150   11.2740    6.4250 C.2   105  TYR105      0.2264
     23  O         51.7330   10.9410    7.3870 O.2   105  TYR105     -0.2867
     24  CB        48.7370   12.0110    7.1750 C.3   105  TYR105      0.0534
     25  CG        47.2570   12.0900    6.9200 C.ar  105  TYR105     -0.0201
     26  CD1       46.7480   12.9050    5.8810 C.ar  105  TYR105     -0.0009
     27  CD2       46.3590   11.3470    7.6600 C.ar  105  TYR105     -0.0009
     28  CE1       45.3660   13.0070    5.6280 C.ar  105  TYR105      0.0417
     29  CE2       44.9880   11.4310    7.4240 C.ar  105  TYR105      0.0417
     30  CZ        44.5060   12.2480    6.4030 C.ar  105  TYR105      0.1957
     31  OH        43.1820   12.2680    6.2310 O.3   105  TYR105     -0.2866
     32  N         41.3790    5.7260    8.7380 N.3   144  TYR144     -0.1241
     33  CA        42.3110    5.8340    9.8630 C.3   144  TYR144      0.1605
     34  C         41.6320    6.1350   11.1880 C.2   144  TYR144      0.2264
     35  O         40.6270    6.8430   11.2550 O.2   144  TYR144     -0.2867
     36  CB        43.5780    6.6320    9.6390 C.3   144  TYR144      0.0534
     37  CG        43.1690    8.0510    9.2840 C.ar  144  TYR144     -0.0201
     38  CD1       42.8010    8.3010    7.9830 C.ar  144  TYR144     -0.0009
     39  CD2       43.1100    9.0420   10.2570 C.ar  144  TYR144     -0.0009
     40  CE1       42.4060    9.5820    7.5910 C.ar  144  TYR144      0.0417
     41  CE2       42.7080   10.3330    9.8960 C.ar  144  TYR144      0.0417
     42  CZ        42.3490   10.5730    8.5570 C.ar  144  TYR144      0.1957
     43  OH        41.9830   11.8210    8.1230 O.3   144  TYR144     -0.2866
     44  N         41.3120    7.7170   14.8660 N.3   146  TRP146     -0.1227
     45  CA        41.5330    9.0810   15.3660 C.3   146  TRP146      0.1737
     46  C         40.9700    9.1580   16.7900 C.2   146  TRP146      0.2595
     47  O         39.9870    8.4880   17.1410 O.2   146  TRP146     -0.2718
     48  CB        41.0820   10.1690   14.4380 C.3   146  TRP146      0.0564
     49  CG        39.6100   10.1400   14.1990 C.ar  146  TRP146      0.0003
     50  CD1       38.8650    9.1230   13.6700 C.ar  146  TRP146      0.0946
     51  CD2       38.7030   11.2080   14.4940 C.ar  146  TRP146      0.0152
     52  NE1       37.5560    9.5140   13.5250 N.ar  146  TRP146     -0.2442
     53  CE2       37.4220   10.7900   14.0470 C.ar  146  TRP146      0.0810
     54  CE3       38.8730   12.4850   15.0160 C.ar  146  TRP146      0.0012
     55  CZ2       36.3040   11.5900   14.1540 C.ar  146  TRP146      0.0191
     56  CZ3       37.7560   13.2850   15.1380 C.ar  146  TRP146      0.0001
     57  CH2       36.4960   12.8530   14.7060 C.ar  146  TRP146      0.0015
     58  N         41.6410   10.0200   17.5400 N.am  147  ARG147     -0.1980
     59  CA        41.2480   10.1280   18.9780 C.3   147  ARG147      0.1597
     60  C         40.0070   10.9300   19.2130 C.2   147  ARG147      0.2287
     61  O         40.1520   12.1020   19.6280 O.2   147  ARG147     -0.2864
     62  CB        42.4920   10.6020   19.7440 C.3   147  ARG147      0.0334
     63  CG        43.7020    9.6740   19.4870 C.3   147  ARG147      0.0492
     64  CD        44.6570    9.8530   20.6530 C.3   147  ARG147      0.2205
     65  NE        44.5490    8.6510   21.5170 N.pl3 147  ARG147     -0.0865
     66  CZ        45.5560    7.7340   21.5070 C.cat 147  ARG147      0.5346
     67  NH1       46.6770    7.9100   20.7920 N.pl3 147  ARG147      0.1354
     68  NH2       45.3260    6.5720   22.1430 N.pl3 147  ARG147      0.1354
     69  N         37.9350    7.3310   10.6620 N.3   154  ARG154     -0.1245
     70  CA        37.4930    8.1770    9.5250 C.3   154  ARG154      0.1563
     71  C         37.3350    7.1960    8.3200 C.2   154  ARG154      0.2260
     72  O         38.1850    6.3110    8.1600 O.2   154  ARG154     -0.2867
     73  CB        38.5700    9.2000    9.1670 C.3   154  ARG154      0.0307
     74  CG        38.8760   10.2670   10.1810 C.3   154  ARG154      0.0489
     75  CD        37.8060   11.1960   10.5470 C.3   154  ARG154      0.2205
     76  NE        36.7750   11.3870    9.5620 N.pl3 154  ARG154     -0.0865
     77  CZ        36.7470   12.1660    8.4830 C.cat 154  ARG154      0.5346
     78  NH1       37.7680   12.9400    8.1200 N.pl3 154  ARG154      0.1354
     79  NH2       35.5630   12.2290    7.8320 N.pl3 154  ARG154      0.1354
     80  N         38.8910    9.0010    2.8070 N.3   157  HIS157     -0.1241
     81  CA        38.4540   10.3030    2.2320 C.3   157  HIS157      0.1621
     82  C         39.6610   11.1010    1.6910 C.2   157  HIS157      0.2264
     83  O         40.8190   10.9080    2.0960 O.2   157  HIS157     -0.2867
     84  CB        37.7640   11.1850    3.3410 C.3   157  HIS157      0.0745
     85  CG        38.7760   11.5230    4.4090 C.ar  157  HIS157      0.0817
     86  ND1       39.1760   10.6290    5.3540 N.ar  157  HIS157     -0.2268
     87  CD2       39.5440   12.6180    4.5840 C.ar  157  HIS157      0.1154
     88  CE1       40.1420   11.1840    6.1080 C.ar  157  HIS157      0.1986
     89  NE2       40.3770   12.3930    5.6560 N.ar  157  HIS157     -0.2212
     90  N         40.7180   15.0740    1.1020 N.3   159  HIS159     -0.1241
     91  CA        40.4300   16.4770    1.4830 C.3   159  HIS159      0.1621
     92  C         40.4870   17.3190    0.2050 C.2   159  HIS159      0.2264
     93  O         41.3980   17.0990   -0.6250 O.2   159  HIS159     -0.2867
     94  CB        41.4310   16.9980    2.5170 C.3   159  HIS159      0.0745
     95  CG        41.2780   16.3440    3.8770 C.ar  159  HIS159      0.0817
     96  ND1       40.5350   16.8810    4.8910 N.ar  159  HIS159     -0.2268
     97  CD2       41.8170   15.1710    4.3360 C.ar  159  HIS159      0.1154
     98  CE1       40.6110   16.0740    5.9420 C.ar  159  HIS159      0.1986
     99  NE2       41.3980   15.0430    5.6540 N.ar  159  HIS159     -0.2212
    100  N         35.4750   17.2950    2.0200 N.3   174  GLN174     -0.1245
    101  CA        36.1080   15.9700    1.9480 C.3   174  GLN174      0.1566
    102  C         35.2210   15.1040    1.0500 C.2   174  GLN174      0.2260
    103  O         33.9670   15.2500    1.0480 O.2   174  GLN174     -0.2867
    104  CB        36.3220   15.2610    3.2850 C.3   174  GLN174      0.0367
    105  CG        36.7520   16.1680    4.4130 C.3   174  GLN174      0.0905
    106  CD        36.9720   15.4880    5.7570 C.2   174  GLN174      0.2608
    107  OE1       37.1030   14.2300    5.8670 O.2   174  GLN174     -0.2717
    108  NE2       37.0230   16.3620    6.7680 N.am  174  GLN174     -0.0878
    109  N         32.3780   13.1530   12.0920 N.3   188  ILE188     -0.1245
    110  CA        32.6580   14.2990   11.2140 C.3   188  ILE188      0.1561
    111  C         31.6340   14.3810   10.0640 C.2   188  ILE188      0.2260
    112  O         31.1820   15.4820    9.7020 O.2   188  ILE188     -0.2867
    113  CB        34.1050   14.3730   10.7350 C.3   188  ILE188      0.0252
    114  CG1       35.0170   14.6310   11.9670 C.3   188  ILE188      0.0019
    115  CG2       34.2820   15.3870    9.5700 C.3   188  ILE188      0.0019
    116  CD1       36.5280   14.6920   11.6550 C.3   188  ILE188      0.0001
@<TRIPOS>BOND
     1    93    92    2
     2    92    91    1
     3   103   102    2
     4   102   101    1
     5    90    91    1
     6    91    94    1
     7    82    83    2
     8    82    81    1
     9   101   100    1
    10   101   104    1
    11    81    80    1
    12    81    84    1
    13    94    95    1
    14   104   105    1
    15    84    85    1
    16    95    97   ar
    17    95    96   ar
    18    97    99   ar
    19    85    87   ar
    20    85    86   ar
    21   105   106    1
    22    87    89   ar
    23    96    98   ar
    24    86    88   ar
    25    28    26   ar
    26    28    30   ar
    27    99    98   ar
    28    89    88   ar
    29   106   107    2
    30   106   108   am
    31    26    25   ar
    32    31    30    1
    33    21    22    1
    34    21    20    1
    35    21    24    1
    36    30    29   ar
    37    22    23    2
    38    25    24    1
    39    25    27   ar
    40    29    27   ar
    41    40    38   ar
    42    40    42   ar
    43    79    77    1
    44    38    37   ar
    45    78    77    1
    46    43    42    1
    47    72    71    2
    48    71    70    1
    49    77    76    2
    50    42    41   ar
    51    32    33    1
    52    73    70    1
    53    73    74    1
    54    37    36    1
    55    37    39   ar
    56    70    69    1
    57    76    75    1
    58   115   113    1
    59    36    33    1
    60   112   111    2
    61    33    34    1
    62    41    39   ar
    63   111   110    1
    64    74    75    1
    65   113   110    1
    66   113   114    1
    67    34    35    2
    68   110   109    1
    69   116   114    1
    70    12    11    1
    71    10    11   ar
    72    10     8   ar
    73    52    50   ar
    74    52    53   ar
    75    50    49   ar
    76    11     9   ar
    77     8     6   ar
    78    53    55   ar
    79    53    51   ar
    80    55    57   ar
    81    49    48    1
    82    49    51   ar
    83    48    45    1
    84    51    54   ar
    85    57    56   ar
    86    44    45    1
    87     9     7   ar
    88    54    56   ar
    89     6     7   ar
    90     6     5    1
    91    45    46    1
    92     5     2    1
    93    46    47    2
    94    46    58   am
    95     2     1    1
    96     2     3    1
    97    19    17    1
    98    58    59    1
    99    17    18    1
   100    17    14    1
   101     4     3    2
   102    15    16    2
   103    15    14    1
   104    14    13    1
   105    59    60    1
   106    59    62    1
   107    60    61    2
   108    63    62    1
   109    63    64    1
   110    64    65    1
   111    67    66    1
   112    66    65    2
   113    66    68    1
