@<TRIPOS>MOLECULE
tmp/3pciJ00.pdb
 109 107 0 0 0
SMALL
GASTEIGER

@<TRIPOS>ATOM
      1  N        -17.5840  -31.8950   15.5280 N.3    24  TYR24      -0.1241
      2  CA       -17.0640  -33.2530   15.8450 C.3    24  TYR24       0.1605
      3  C        -18.2360  -33.8120   16.7070 C.2    24  TYR24       0.2264
      4  O        -18.3110  -33.5460   17.9240 O.2    24  TYR24      -0.2867
      5  CB       -15.7470  -33.1670   16.5650 C.3    24  TYR24       0.0534
      6  CG       -15.1650  -34.4840   17.0150 C.ar   24  TYR24      -0.0201
      7  CD1      -15.5650  -35.6730   16.3880 C.ar   24  TYR24      -0.0009
      8  CD2      -14.1910  -34.5430   17.9990 C.ar   24  TYR24      -0.0009
      9  CE1      -15.0010  -36.8910   16.7670 C.ar   24  TYR24       0.0417
     10  CE2      -13.6350  -35.7650   18.4170 C.ar   24  TYR24       0.0417
     11  CZ       -14.0410  -36.9310   17.7560 C.ar   24  TYR24       0.1957
     12  OH       -13.4630  -38.1060   18.1430 O.3    24  TYR24      -0.2866
     13  N         -6.9260  -49.7320    9.7560 N.3   105  TYR105     -0.1241
     14  CA        -6.2810  -49.9310   11.0650 C.3   105  TYR105      0.1605
     15  C         -6.3340  -51.4250   11.4120 C.2   105  TYR105      0.2264
     16  O         -7.3250  -52.0870   11.0650 O.2   105  TYR105     -0.2867
     17  CB        -6.9620  -49.1150   12.1680 C.3   105  TYR105      0.0534
     18  CG        -6.6290  -47.6420   12.2570 C.ar  105  TYR105     -0.0201
     19  CD1       -7.3770  -46.6880   11.5710 C.ar  105  TYR105     -0.0009
     20  CD2       -5.6130  -47.1880   13.0860 C.ar  105  TYR105     -0.0009
     21  CE1       -7.1280  -45.3210   11.6710 C.ar  105  TYR105      0.0417
     22  CE2       -5.3250  -45.8280   13.2090 C.ar  105  TYR105      0.0417
     23  CZ        -6.0810  -44.9080   12.5020 C.ar  105  TYR105      0.1957
     24  OH        -5.7950  -43.5680   12.5570 O.3   105  TYR105     -0.2866
     25  N         -8.8940  -41.8110    5.6210 N.3   144  TYR144     -0.1241
     26  CA       -10.0130  -42.7910    5.6810 C.3   144  TYR144      0.1605
     27  C        -11.2960  -42.0280    5.9790 C.2   144  TYR144      0.2264
     28  O        -11.2450  -40.9620    6.6080 O.2   144  TYR144     -0.2867
     29  CB        -9.7440  -43.9370    6.6350 C.3   144  TYR144      0.0534
     30  CG        -9.3740  -43.4990    8.0330 C.ar  144  TYR144     -0.0201
     31  CD1      -10.3200  -43.2510    9.0310 C.ar  144  TYR144     -0.0009
     32  CD2       -8.0260  -43.3360    8.3400 C.ar  144  TYR144     -0.0009
     33  CE1       -9.9320  -42.8490   10.3160 C.ar  144  TYR144      0.0417
     34  CE2       -7.6020  -42.9330    9.5960 C.ar  144  TYR144      0.0417
     35  CZ        -8.5680  -42.6910   10.5780 C.ar  144  TYR144      0.1957
     36  OH        -8.0700  -42.2970   11.7850 O.3   144  TYR144     -0.2866
     37  N        -14.9740  -41.5380    7.7650 N.3   146  TRP146     -0.1227
     38  CA       -15.4200  -41.8950    9.1550 C.3   146  TRP146      0.1737
     39  C        -16.8490  -41.4090    9.2480 C.2   146  TRP146      0.2595
     40  O        -17.2200  -40.5220    8.4660 O.2   146  TRP146     -0.2718
     41  CB       -14.4220  -41.4400   10.1700 C.3   146  TRP146      0.0564
     42  CG       -14.1790  -39.9580   10.1550 C.ar  146  TRP146      0.0003
     43  CD1      -13.7560  -39.1940    9.0930 C.ar  146  TRP146      0.0946
     44  CD2      -14.4850  -39.0680   11.2150 C.ar  146  TRP146      0.0152
     45  NE1      -13.7490  -37.8610    9.4560 N.ar  146  TRP146     -0.2442
     46  CE2      -14.1930  -37.7600   10.7520 C.ar  146  TRP146      0.0810
     47  CE3      -14.9350  -39.2640   12.5180 C.ar  146  TRP146      0.0012
     48  CZ2      -14.3130  -36.6440   11.5570 C.ar  146  TRP146      0.0191
     49  CZ3      -15.0920  -38.1470   13.3330 C.ar  146  TRP146      0.0001
     50  CH2      -14.7790  -36.8710   12.8540 C.ar  146  TRP146      0.0015
     51  N        -17.6360  -41.9810   10.1400 N.am  147  ARG147     -0.1980
     52  CA       -19.0530  -41.5750   10.2440 C.3   147  ARG147      0.1597
     53  C        -19.2810  -40.3260   11.0310 C.2   147  ARG147      0.2287
     54  O        -19.5750  -40.3650   12.2480 O.2   147  ARG147     -0.2864
     55  CB       -19.8770  -42.7770   10.7090 C.3   147  ARG147      0.0334
     56  CG       -19.8420  -43.9850    9.7760 C.3   147  ARG147      0.0492
     57  CD       -21.1700  -44.7220    9.7790 C.3   147  ARG147      0.2205
     58  NE       -21.9570  -44.4710    8.5190 N.pl3 147  ARG147     -0.0865
     59  CZ       -21.8380  -45.3750    7.5060 C.cat 147  ARG147      0.5346
     60  NH1      -21.0660  -46.4720    7.6510 N.pl3 147  ARG147      0.1354
     61  NH2      -22.4440  -45.1760    6.3040 N.pl3 147  ARG147      0.1354
     62  N        -10.7810  -38.2350    7.2860 N.3   154  ARG154     -0.1245
     63  CA        -9.6330  -37.8140    8.1300 C.3   154  ARG154      0.1563
     64  C         -8.4190  -37.7150    7.1820 C.2   154  ARG154      0.2260
     65  O         -8.2050  -38.5930    6.3310 O.2   154  ARG154     -0.2867
     66  CB        -9.2800  -38.8350    9.1930 C.3   154  ARG154      0.0307
     67  CG       -10.0920  -39.1620   10.3700 C.3   154  ARG154      0.0489
     68  CD       -10.5920  -38.0670   11.2000 C.3   154  ARG154      0.2205
     69  NE        -9.7000  -36.9650   11.4360 N.pl3 154  ARG154     -0.0865
     70  CZ        -8.6080  -36.9370   12.1820 C.cat 154  ARG154      0.5346
     71  NH1       -8.0850  -37.9570   12.8780 N.pl3 154  ARG154      0.1354
     72  NH2       -7.9770  -35.7350   12.2410 N.pl3 154  ARG154      0.1354
     73  N         -2.7910  -39.3010    9.0760 N.3   157  HIS157     -0.1241
     74  CA        -2.2300  -38.8640   10.3650 C.3   157  HIS157      0.1621
     75  C         -1.6270  -40.0060   11.1670 C.2   157  HIS157      0.2264
     76  O         -2.0270  -41.1400   10.8950 O.2   157  HIS157     -0.2867
     77  CB        -3.3480  -38.2220   11.2700 C.3   157  HIS157      0.0745
     78  CG        -4.4590  -39.2000   11.4980 C.ar  157  HIS157      0.0817
     79  ND1       -5.5140  -39.3380   10.6030 N.ar  157  HIS157     -0.2268
     80  CD2       -4.6740  -40.0700   12.5020 C.ar  157  HIS157      0.1154
     81  CE1       -6.3200  -40.2830   11.0640 C.ar  157  HIS157      0.1986
     82  NE2       -5.8430  -40.7410   12.1900 N.ar  157  HIS157     -0.2212
     83  N         -1.0630  -41.1790   15.2320 N.3   159  HIS159     -0.1241
     84  CA        -1.4720  -40.7640   16.6180 C.3   159  HIS159      0.1621
     85  C         -0.2430  -40.7680   17.5090 C.2   159  HIS159      0.2264
     86  O          0.5470  -41.7360   17.4020 O.2   159  HIS159     -0.2867
     87  CB        -2.5550  -41.6560   17.2730 C.3   159  HIS159      0.0745
     88  CG        -3.8820  -41.5600   16.5750 C.ar  159  HIS159      0.0817
     89  ND1       -4.9420  -40.7640   16.9780 N.ar  159  HIS159     -0.2268
     90  CD2       -4.2830  -42.2210   15.4270 C.ar  159  HIS159      0.1154
     91  CE1       -5.9400  -40.9520   16.1220 C.ar  159  HIS159      0.1986
     92  NE2       -5.5860  -41.8280   15.2070 N.ar  159  HIS159     -0.2212
     93  N         -2.0240  -35.7530   17.3680 N.3   174  GLN174     -0.1245
     94  CA        -2.0200  -36.3380   16.0270 C.3   174  GLN174      0.1566
     95  C         -1.0620  -35.5030   15.1750 C.2   174  GLN174      0.2260
     96  O         -0.9970  -34.2940   15.3340 O.2   174  GLN174     -0.2867
     97  CB        -3.4150  -36.4000   15.4060 C.3   174  GLN174      0.0367
     98  CG        -4.3590  -37.3380   16.1860 C.3   174  GLN174      0.0905
     99  CD        -5.7390  -37.4360   15.5510 C.2   174  GLN174      0.2608
    100  OE1       -5.9340  -37.5690   14.3300 O.2   174  GLN174     -0.2717
    101  NE2       -6.7380  -37.3120   16.4640 N.am  174  GLN174     -0.0878
    102  N        -12.2090  -32.5390   13.2250 N.3   188  ILE188     -0.1245
    103  CA       -11.3470  -32.8290   14.3990 C.3   188  ILE188      0.1561
    104  C        -10.2320  -31.7740   14.5030 C.2   188  ILE188      0.2260
    105  O         -9.9630  -31.1850   15.5620 O.2   188  ILE188     -0.2867
    106  CB       -10.8120  -34.2790   14.4220 C.3   188  ILE188      0.0252
    107  CG1      -11.9760  -35.2870   14.6720 C.3   188  ILE188      0.0019
    108  CG2       -9.6700  -34.4920   15.4600 C.3   188  ILE188      0.0019
    109  CD1      -11.4790  -36.7500   14.5790 C.3   188  ILE188      0.0001
@<TRIPOS>BOND
     1    25    26    1
     2    26    27    1
     3    26    29    1
     4    27    28    2
     5    61    59    1
     6    65    64    2
     7    29    30    1
     8    64    63    1
     9    62    63    1
    10    59    60    1
    11    59    58    2
    12    37    38    1
    13    30    32   ar
    14    30    31   ar
    15    63    66    1
    16    32    34   ar
    17    40    39    2
    18    58    57    1
    19    31    33   ar
    20    73    74    1
    21    43    45   ar
    22    43    42   ar
    23    38    39    1
    24    38    41    1
    25    66    67    1
    26    39    51   am
    27    45    46   ar
    28    34    35   ar
    29    13    14    1
    30    56    57    1
    31    56    55    1
    32    51    52    1
    33    42    41    1
    34    42    44   ar
    35    52    55    1
    36    52    53    1
    37    33    35   ar
    38    74    75    1
    39    74    77    1
    40    67    68    1
    41    35    36    1
    42    79    81   ar
    43    79    78   ar
    44    46    44   ar
    45    46    48   ar
    46    76    75    2
    47    53    54    2
    48    81    82   ar
    49    14    15    1
    50    14    17    1
    51    16    15    2
    52    68    69    1
    53    44    47   ar
    54    77    78    1
    55    69    70    2
    56    78    80   ar
    57    48    50   ar
    58    19    21   ar
    59    19    18   ar
    60    21    23   ar
    61    17    18    1
    62    70    72    1
    63    70    71    1
    64    82    80   ar
    65    18    20   ar
    66    23    24    1
    67    23    22   ar
    68    47    49   ar
    69    50    49   ar
    70    20    22   ar
    71   102   103    1
    72   100    99    2
    73   103   106    1
    74   103   104    1
    75   106   107    1
    76   106   108    1
    77   104   105    2
    78   109   107    1
    79    95    96    2
    80    95    94    1
    81    92    90   ar
    82    92    91   ar
    83    83    84    1
    84    97    94    1
    85    97    98    1
    86    90    88   ar
    87     1     2    1
    88    99    98    1
    89    99   101   am
    90     2     5    1
    91     2     3    1
    92    94    93    1
    93    91    89   ar
    94     7     9   ar
    95     7     6   ar
    96     5     6    1
    97    88    89   ar
    98    88    87    1
    99    84    87    1
   100    84    85    1
   101     3     4    2
   102     9    11   ar
   103     6     8   ar
   104    86    85    2
   105    11    12    1
   106    11    10   ar
   107     8    10   ar
