@<TRIPOS>MOLECULE
tmp/3pckF00.pdb
 105 102 0 0 0
SMALL
GASTEIGER

@<TRIPOS>ATOM
      1  N         31.9860   15.4860   17.6920 N.3    24  TYR24      -0.1241
      2  CA        33.2630   15.8750   17.0930 C.3    24  TYR24       0.1605
      3  C         33.8950   16.7880   18.2110 C.2    24  TYR24       0.2264
      4  O         33.7840   17.9980   18.2040 O.2    24  TYR24      -0.2867
      5  CB        33.0740   16.6060   15.7670 C.3    24  TYR24       0.0534
      6  CG        34.3590   17.0650   15.1060 C.ar   24  TYR24      -0.0201
      7  CD1       35.5850   16.3940   15.3950 C.ar   24  TYR24      -0.0009
      8  CD2       34.3840   18.1410   14.2600 C.ar   24  TYR24      -0.0009
      9  CE1       36.7950   16.8340   14.8370 C.ar   24  TYR24       0.0417
     10  CE2       35.5700   18.6020   13.6700 C.ar   24  TYR24       0.0417
     11  CZ        36.7830   17.9030   13.9540 C.ar   24  TYR24       0.1957
     12  OH        37.8830   18.3570   13.2800 O.3    24  TYR24      -0.2866
     13  N         36.6900   18.0980   19.3280 N.3    26  THR26      -0.1218
     14  CA        37.3850   19.3720   19.1700 C.3    26  THR26       0.1862
     15  C         36.4920   20.5520   18.8240 C.2    26  THR26       0.2287
     16  O         36.9710   21.6900   19.0160 O.2    26  THR26      -0.2866
     17  CB        38.5400   19.3670   18.0660 C.3    26  THR26       0.1770
     18  OG1       39.5120   18.3740   18.4470 O.3    26  THR26      -0.2211
     19  CG2       39.2150   20.7620   18.0130 C.3    26  THR26       0.0375
     20  N         49.7060    9.7740    7.0250 N.3   105  TYR105     -0.1241
     21  CA        49.9670   11.0810    6.4020 C.3   105  TYR105      0.1605
     22  C         51.4670   11.4060    6.4600 C.2   105  TYR105      0.2264
     23  O         52.1690   11.0190    7.4330 O.2   105  TYR105     -0.2867
     24  CB        49.1720   12.1870    7.0960 C.3   105  TYR105      0.0534
     25  CG        47.6780   12.2450    6.8050 C.ar  105  TYR105     -0.0201
     26  CD1       46.7720   11.4890    7.5270 C.ar  105  TYR105     -0.0009
     27  CD2       47.1970   13.1300    5.8340 C.ar  105  TYR105     -0.0009
     28  CE1       45.3880   11.6230    7.3130 C.ar  105  TYR105      0.0417
     29  CE2       45.8340   13.2300    5.5580 C.ar  105  TYR105      0.0417
     30  CZ        44.9470   12.4930    6.2990 C.ar  105  TYR105      0.1957
     31  OH        43.6050   12.5660    6.1020 O.3   105  TYR105     -0.2866
     32  N         41.7930    5.8300    8.7650 N.3   144  TYR144     -0.1241
     33  CA        42.7890    6.2830    9.8250 C.3   144  TYR144      0.1605
     34  C         42.0560    6.3810   11.1710 C.2   144  TYR144      0.2264
     35  O         41.0140    7.0130   11.2980 O.2   144  TYR144     -0.2867
     36  CB        43.1720    7.7210    9.2750 C.3   144  TYR144      0.0534
     37  CG        44.0590    8.5440   10.1030 C.ar  144  TYR144     -0.0201
     38  CD1       45.4810    8.3270   10.0380 C.ar  144  TYR144     -0.0009
     39  CD2       43.6070    9.4980   11.0160 C.ar  144  TYR144     -0.0009
     40  CE1       46.3790    9.0320   10.8170 C.ar  144  TYR144      0.0417
     41  CE2       44.4960   10.2190   11.8380 C.ar  144  TYR144      0.0417
     42  CZ        45.8740    9.9700   11.7130 C.ar  144  TYR144      0.1957
     43  OH        46.7630   10.6480   12.5020 O.3   144  TYR144     -0.2866
     44  N         41.6820    7.7720   14.9090 N.3   146  TRP146     -0.1241
     45  CA        41.9080    9.1340   15.4280 C.3   146  TRP146      0.1605
     46  C         41.3910    9.2270   16.8330 C.2   146  TRP146      0.2264
     47  O         40.4590    8.4650   17.2170 O.2   146  TRP146     -0.2867
     48  CB        41.5110   10.2030   14.4430 C.3   146  TRP146      0.0550
     49  CG        40.0180   10.2800   14.2390 C.ar  146  TRP146      0.0003
     50  CD1       39.1940    9.2730   13.7920 C.ar  146  TRP146      0.0946
     51  CD2       39.1850   11.4100   14.5200 C.ar  146  TRP146      0.0152
     52  NE1       37.9190    9.7420   13.7370 N.ar  146  TRP146     -0.2442
     53  CE2       37.8610   11.0180   14.2070 C.ar  146  TRP146      0.0810
     54  CE3       39.4320   12.6920   14.9690 C.ar  146  TRP146      0.0012
     55  CZ2       36.7780   11.8800   14.3340 C.ar  146  TRP146      0.0191
     56  CZ3       38.3600   13.5540   15.1640 C.ar  146  TRP146      0.0001
     57  CH2       37.0430   13.1590   14.7790 C.ar  146  TRP146      0.0015
     58  N         38.2670    7.3060   10.7400 N.3   154  ARG154     -0.1245
     59  CA        37.7950    8.1400    9.6050 C.3   154  ARG154      0.1563
     60  C         37.6850    7.1820    8.4090 C.2   154  ARG154      0.2260
     61  O         38.5120    6.2830    8.2080 O.2   154  ARG154     -0.2867
     62  CB        38.8200    9.2060    9.2510 C.3   154  ARG154      0.0307
     63  CG        39.1720   10.2800   10.2690 C.3   154  ARG154      0.0489
     64  CD        38.0850   11.2320   10.6280 C.3   154  ARG154      0.2205
     65  NE        37.1320   11.5300    9.5580 N.pl3 154  ARG154     -0.0865
     66  CZ        37.1480   12.3420    8.5440 C.cat 154  ARG154      0.5346
     67  NH1       38.1520   13.1630    8.2500 N.pl3 154  ARG154      0.1354
     68  NH2       36.0090   12.3920    7.7750 N.pl3 154  ARG154      0.1354
     69  N         39.2270    9.0620    2.8380 N.3   157  HIS157     -0.1241
     70  CA        38.8090   10.3710    2.2880 C.3   157  HIS157      0.1621
     71  C         39.9730   11.1610    1.7360 C.2   157  HIS157      0.2264
     72  O         41.1600   10.8940    2.0080 O.2   157  HIS157     -0.2867
     73  CB        38.0940   11.2430    3.3790 C.3   157  HIS157      0.0745
     74  CG        39.0740   11.6150    4.4470 C.ar  157  HIS157      0.0817
     75  ND1       39.4920   10.6920    5.4250 N.ar  157  HIS157     -0.2268
     76  CD2       39.8160   12.7350    4.6240 C.ar  157  HIS157      0.1154
     77  CE1       40.4190   11.3060    6.1590 C.ar  157  HIS157      0.1986
     78  NE2       40.6200   12.5080    5.7270 N.ar  157  HIS157     -0.2212
     79  N         41.1050   15.2080    1.1870 N.3   159  HIS159     -0.1241
     80  CA        40.8130   16.5970    1.5290 C.3   159  HIS159      0.1621
     81  C         40.8620   17.4550    0.2700 C.2   159  HIS159      0.2264
     82  O         41.8300   17.3520   -0.5150 O.2   159  HIS159     -0.2867
     83  CB        41.8140   17.2010    2.5710 C.3   159  HIS159      0.0745
     84  CG        41.6670   16.5200    3.9020 C.ar  159  HIS159      0.0817
     85  ND1       40.8870   17.0440    4.9410 N.ar  159  HIS159     -0.2268
     86  CD2       42.2010   15.3750    4.3700 C.ar  159  HIS159      0.1154
     87  CE1       40.9370   16.1640    5.9500 C.ar  159  HIS159      0.1986
     88  NE2       41.6860   15.1680    5.6210 N.ar  159  HIS159     -0.2212
     89  N         35.8160   17.4740    2.0750 N.3   174  GLN174     -0.1245
     90  CA        36.4050   16.1500    1.9680 C.3   174  GLN174      0.1566
     91  C         35.5590   15.2820    1.0100 C.2   174  GLN174      0.2260
     92  O         34.3250   15.4390    1.0100 O.2   174  GLN174     -0.2867
     93  CB        36.4190   15.4210    3.3490 C.3   174  GLN174      0.0367
     94  CG        37.1030   16.3420    4.3870 C.3   174  GLN174      0.0905
     95  CD        37.4160   15.6480    5.7110 C.2   174  GLN174      0.2608
     96  OE1       37.4710   14.4110    5.8490 O.2   174  GLN174     -0.2717
     97  NE2       37.6440   16.4920    6.7270 N.am  174  GLN174     -0.0878
     98  N         32.6240   13.2740   12.1160 N.3   188  ILE188     -0.1245
     99  CA        32.8680   14.4180   11.2330 C.3   188  ILE188      0.1561
    100  C         31.8190   14.4730   10.0960 C.2   188  ILE188      0.2260
    101  O         31.3460   15.5780    9.7500 O.2   188  ILE188     -0.2867
    102  CB        34.3220   14.4810   10.6840 C.3   188  ILE188      0.0252
    103  CG1       35.3220   14.7690   11.8730 C.3   188  ILE188      0.0019
    104  CG2       34.5210   15.4410    9.5230 C.3   188  ILE188      0.0019
    105  CD1       36.7940   14.6360   11.4930 C.3   188  ILE188      0.0001
@<TRIPOS>BOND
     1    82    81    2
     2    81    80    1
     3    92    91    2
     4    91    90    1
     5    79    80    1
     6    80    83    1
     7    71    72    2
     8    71    70    1
     9    90    89    1
    10    90    93    1
    11    70    69    1
    12    70    73    1
    13    83    84    1
    14    93    94    1
    15    73    74    1
    16    84    86   ar
    17    84    85   ar
    18    86    88   ar
    19    94    95    1
    20    74    76   ar
    21    74    75   ar
    22    76    78   ar
    23    85    87   ar
    24    75    77   ar
    25    29    27   ar
    26    29    30   ar
    27    88    87   ar
    28    95    96    2
    29    95    97   am
    30    78    77   ar
    31    27    25   ar
    32    31    30    1
    33    30    28   ar
    34    21    22    1
    35    21    20    1
    36    21    24    1
    37    22    23    2
    38    25    24    1
    39    25    26   ar
    40    28    26   ar
    41    68    66    1
    42    61    60    2
    43    67    66    1
    44    60    59    1
    45    66    65    2
    46    32    33    1
    47    62    59    1
    48    62    63    1
    49    36    33    1
    50    36    37    1
    51   104   102    1
    52    65    64    1
    53    59    58    1
    54   101   100    2
    55    33    34    1
    56    38    37   ar
    57    38    40   ar
    58   100    99    1
    59    37    39   ar
    60    63    64    1
    61   102    99    1
    62   102   103    1
    63    40    42   ar
    64    39    41   ar
    65    34    35    2
    66    99    98    1
    67   105   103    1
    68    42    41   ar
    69    42    43    1
    70    12    11    1
    71    10    11   ar
    72    10     8   ar
    73    52    50   ar
    74    52    53   ar
    75    50    49   ar
    76    11     9   ar
    77    53    55   ar
    78    53    51   ar
    79    49    48    1
    80    49    51   ar
    81     8     6   ar
    82    55    57   ar
    83    48    45    1
    84    51    54   ar
    85    57    56   ar
    86     9     7   ar
    87    44    45    1
    88    54    56   ar
    89     6     7   ar
    90     6     5    1
    91    45    46    1
    92     5     2    1
    93    46    47    2
    94     2     1    1
    95     2     3    1
    96    19    17    1
    97    17    18    1
    98    17    14    1
    99     4     3    2
   100    15    16    2
   101    15    14    1
   102    14    13    1
