@<TRIPOS>MOLECULE
tmp/3pclF00.pdb
 105 102 0 0 0
SMALL
GASTEIGER

@<TRIPOS>ATOM
      1  N         31.8830   15.3790   17.5290 N.3    24  TYR24      -0.1241
      2  CA        33.2590   15.6590   16.9560 C.3    24  TYR24       0.1605
      3  C         33.8220   16.5310   18.1300 C.2    24  TYR24       0.2264
      4  O         33.5510   17.7370   18.1180 O.2    24  TYR24      -0.2867
      5  CB        33.0880   16.5250   15.6950 C.3    24  TYR24       0.0534
      6  CG        34.3800   17.0080   15.0720 C.ar   24  TYR24      -0.0201
      7  CD1       35.5890   16.3850   15.3470 C.ar   24  TYR24      -0.0009
      8  CD2       34.3730   18.0440   14.1230 C.ar   24  TYR24      -0.0009
      9  CE1       36.7920   16.8290   14.7530 C.ar   24  TYR24       0.0417
     10  CE2       35.5370   18.4990   13.5540 C.ar   24  TYR24       0.0417
     11  CZ        36.7550   17.8700   13.8480 C.ar   24  TYR24       0.1957
     12  OH        37.8560   18.3070   13.1980 O.3    24  TYR24      -0.2866
     13  N         36.4480   18.0500   19.2720 N.3    26  THR26      -0.1218
     14  CA        37.1830   19.2910   19.0710 C.3    26  THR26       0.1862
     15  C         36.3450   20.4900   18.6880 C.2    26  THR26       0.2287
     16  O         36.8440   21.5910   18.9130 O.2    26  THR26      -0.2866
     17  CB        38.3180   19.1250   17.9560 C.3    26  THR26       0.1770
     18  OG1       39.2560   18.2160   18.6000 O.3    26  THR26      -0.2211
     19  CG2       39.0600   20.4990   17.7820 C.3    26  THR26       0.0375
     20  N         49.6110    9.7050    6.9830 N.3   105  TYR105     -0.1241
     21  CA        49.8650   11.0330    6.3790 C.3   105  TYR105      0.1605
     22  C         51.3670   11.3610    6.4700 C.2   105  TYR105      0.2264
     23  O         52.0140   11.0400    7.4750 O.2   105  TYR105     -0.2867
     24  CB        49.1110   12.1230    7.2040 C.3   105  TYR105      0.0534
     25  CG        47.6520   12.2590    6.8620 C.ar  105  TYR105     -0.0201
     26  CD1       47.2550   13.1290    5.8360 C.ar  105  TYR105     -0.0009
     27  CD2       46.6780   11.5720    7.5690 C.ar  105  TYR105     -0.0009
     28  CE1       45.9030   13.2770    5.4800 C.ar  105  TYR105      0.0417
     29  CE2       45.3230   11.7360    7.2570 C.ar  105  TYR105      0.0417
     30  CZ        44.9500   12.5880    6.2170 C.ar  105  TYR105      0.1957
     31  OH        43.6390   12.6570    5.9090 O.3   105  TYR105     -0.2866
     32  N         41.7080    5.8600    8.7840 N.3   144  TYR144     -0.1241
     33  CA        42.6320    6.3430    9.8510 C.3   144  TYR144      0.1605
     34  C         41.9360    6.3880   11.2100 C.2   144  TYR144      0.2264
     35  O         40.8500    6.9510   11.3340 O.2   144  TYR144     -0.2867
     36  CB        42.9260    7.8180    9.3220 C.3   144  TYR144      0.0534
     37  CG        43.8520    8.6050   10.1770 C.ar  144  TYR144     -0.0201
     38  CD1       45.2540    8.3860   10.0240 C.ar  144  TYR144     -0.0009
     39  CD2       43.4360    9.5300   11.1380 C.ar  144  TYR144     -0.0009
     40  CE1       46.1930    9.0510   10.7970 C.ar  144  TYR144      0.0417
     41  CE2       44.3590   10.2130   11.9350 C.ar  144  TYR144      0.0417
     42  CZ        45.7240    9.9600   11.7710 C.ar  144  TYR144      0.1957
     43  OH        46.6780   10.6080   12.4980 O.3   144  TYR144     -0.2866
     44  N         41.5590    7.7750   14.9490 N.3   146  TRP146     -0.1241
     45  CA        41.8600    9.1410   15.5100 C.3   146  TRP146      0.1605
     46  C         41.3220    9.2190   16.9120 C.2   146  TRP146      0.2264
     47  O         40.4200    8.4110   17.2900 O.2   146  TRP146     -0.2867
     48  CB        41.4380   10.1710   14.4810 C.3   146  TRP146      0.0550
     49  CG        39.9740   10.2030   14.2180 C.ar  146  TRP146      0.0003
     50  CD1       39.1640    9.2060   13.6830 C.ar  146  TRP146      0.0946
     51  CD2       39.1060   11.2990   14.5080 C.ar  146  TRP146      0.0152
     52  NE1       37.8690    9.6480   13.5800 N.ar  146  TRP146     -0.2442
     53  CE2       37.7930   10.9240   14.0960 C.ar  146  TRP146      0.0810
     54  CE3       39.3270   12.5730   15.0210 C.ar  146  TRP146      0.0012
     55  CZ2       36.7220   11.7710   14.2140 C.ar  146  TRP146      0.0191
     56  CZ3       38.2440   13.3980   15.1970 C.ar  146  TRP146      0.0001
     57  CH2       36.9640   13.0210   14.8010 C.ar  146  TRP146      0.0015
     58  N         38.3530    7.3290   10.7020 N.3   154  ARG154     -0.1245
     59  CA        37.8920    8.1910    9.6060 C.3   154  ARG154      0.1563
     60  C         37.7380    7.2460    8.3930 C.2   154  ARG154      0.2260
     61  O         38.5810    6.3840    8.1850 O.2   154  ARG154     -0.2867
     62  CB        38.8910    9.2780    9.2250 C.3   154  ARG154      0.0307
     63  CG        39.1020   10.4670   10.1000 C.3   154  ARG154      0.0489
     64  CD        37.9510   11.1880   10.5420 C.3   154  ARG154      0.2205
     65  NE        36.8590   11.5050    9.6230 N.pl3 154  ARG154     -0.0865
     66  CZ        36.9310   12.2810    8.5610 C.cat 154  ARG154      0.5346
     67  NH1       38.0910   12.8540    8.1350 N.pl3 154  ARG154      0.1354
     68  NH2       35.8000   12.5420    7.9160 N.pl3 154  ARG154      0.1354
     69  N         39.2590    9.0040    3.0030 N.3   157  HIS157     -0.1241
     70  CA        38.7710   10.3070    2.3930 C.3   157  HIS157      0.1621
     71  C         39.9620   11.0650    1.7790 C.2   157  HIS157      0.2264
     72  O         41.1010   10.7270    2.1390 O.2   157  HIS157     -0.2867
     73  CB        38.1410   11.1800    3.4840 C.3   157  HIS157      0.0745
     74  CG        39.1600   11.4650    4.5400 C.ar  157  HIS157      0.0817
     75  ND1       39.6550   10.5230    5.4220 N.ar  157  HIS157     -0.2268
     76  CD2       39.7980   12.6250    4.8270 C.ar  157  HIS157      0.1154
     77  CE1       40.5330   11.1280    6.2370 C.ar  157  HIS157      0.1986
     78  NE2       40.6440   12.3810    5.8530 N.ar  157  HIS157     -0.2212
     79  N         41.0220   15.1610    1.1740 N.3   159  HIS159     -0.1241
     80  CA        40.7820   16.5660    1.5420 C.3   159  HIS159      0.1621
     81  C         40.8250   17.4100    0.2840 C.2   159  HIS159      0.2264
     82  O         41.7320   17.1700   -0.5510 O.2   159  HIS159     -0.2867
     83  CB        41.6670   17.0940    2.6450 C.3   159  HIS159      0.0745
     84  CG        41.4840   16.4620    3.9920 C.ar  159  HIS159      0.0817
     85  ND1       40.6970   16.9810    5.0020 N.ar  159  HIS159     -0.2268
     86  CD2       42.0550   15.3350    4.5100 C.ar  159  HIS159      0.1154
     87  CE1       40.7800   16.1960    6.0620 C.ar  159  HIS159      0.1986
     88  NE2       41.5940   15.2020    5.8190 N.ar  159  HIS159     -0.2212
     89  N         35.6520   17.4200    2.1520 N.3   174  GLN174     -0.1245
     90  CA        36.3070   16.0790    2.0390 C.3   174  GLN174      0.1566
     91  C         35.5110   15.2210    1.0520 C.2   174  GLN174      0.2260
     92  O         34.2910   15.3670    0.9710 O.2   174  GLN174     -0.2867
     93  CB        36.4550   15.4540    3.4080 C.3   174  GLN174      0.0367
     94  CG        37.3320   16.2050    4.3860 C.3   174  GLN174      0.0905
     95  CD        37.4940   15.5300    5.7420 C.2   174  GLN174      0.2608
     96  OE1       37.4020   14.2950    5.8770 O.2   174  GLN174     -0.2717
     97  NE2       37.6940   16.3750    6.7960 N.am  174  GLN174     -0.0878
     98  N         32.6260   13.3090   12.1350 N.3   188  ILE188     -0.1245
     99  CA        32.9540   14.4120   11.2490 C.3   188  ILE188      0.1561
    100  C         31.8980   14.4990   10.1410 C.2   188  ILE188      0.2260
    101  O         31.4570   15.5780    9.7980 O.2   188  ILE188     -0.2867
    102  CB        34.4100   14.4070   10.7000 C.3   188  ILE188      0.0252
    103  CG1       35.4150   14.5640   11.8750 C.3   188  ILE188      0.0019
    104  CG2       34.6340   15.4740    9.6070 C.3   188  ILE188      0.0019
    105  CD1       36.9010   14.6000   11.3900 C.3   188  ILE188      0.0001
@<TRIPOS>BOND
     1    82    81    2
     2    81    80    1
     3    92    91    2
     4    91    90    1
     5    79    80    1
     6    80    83    1
     7    71    72    2
     8    71    70    1
     9    90    89    1
    10    90    93    1
    11    70    69    1
    12    70    73    1
    13    83    84    1
    14    93    94    1
    15    73    74    1
    16    84    86   ar
    17    84    85   ar
    18    94    95    1
    19    86    88   ar
    20    74    76   ar
    21    74    75   ar
    22    76    78   ar
    23    85    87   ar
    24    75    77   ar
    25    28    26   ar
    26    28    30   ar
    27    95    96    2
    28    95    97   am
    29    88    87   ar
    30    26    25   ar
    31    78    77   ar
    32    31    30    1
    33    30    29   ar
    34    21    22    1
    35    21    20    1
    36    21    24    1
    37    22    23    2
    38    25    24    1
    39    25    27   ar
    40    29    27   ar
    41    68    66    1
    42    67    66    1
    43    61    60    2
    44    60    59    1
    45    66    65    2
    46    32    33    1
    47    62    59    1
    48    62    63    1
    49    36    33    1
    50    36    37    1
    51    59    58    1
    52   104   102    1
    53    65    64    1
    54   101   100    2
    55    33    34    1
    56    38    37   ar
    57    38    40   ar
    58    63    64    1
    59   100    99    1
    60    37    39   ar
    61   102    99    1
    62   102   103    1
    63    40    42   ar
    64    39    41   ar
    65    34    35    2
    66    99    98    1
    67   105   103    1
    68    42    41   ar
    69    42    43    1
    70    12    11    1
    71    10    11   ar
    72    10     8   ar
    73    52    50   ar
    74    52    53   ar
    75    50    49   ar
    76    11     9   ar
    77    53    55   ar
    78    53    51   ar
    79     8     6   ar
    80    55    57   ar
    81    49    48    1
    82    49    51   ar
    83    48    45    1
    84    51    54   ar
    85     9     7   ar
    86    57    56   ar
    87    44    45    1
    88    54    56   ar
    89     6     7   ar
    90     6     5    1
    91    45    46    1
    92     5     2    1
    93    46    47    2
    94     2     1    1
    95     2     3    1
    96    19    17    1
    97    17    18    1
    98    17    14    1
    99     4     3    2
   100    15    16    2
   101    15    14    1
   102    14    13    1
