@<TRIPOS>MOLECULE
tmp/3pcnF00.pdb
 105 102 0 0 0
SMALL
GASTEIGER

@<TRIPOS>ATOM
      1  N         32.0540   15.4500   17.6540 N.3    24  TYR24      -0.1241
      2  CA        33.3490   15.8520   17.0740 C.3    24  TYR24       0.1605
      3  C         33.9370   16.7770   18.1790 C.2    24  TYR24       0.2264
      4  O         33.7480   17.9970   18.2090 O.2    24  TYR24      -0.2867
      5  CB        33.1710   16.5870   15.7400 C.3    24  TYR24       0.0534
      6  CG        34.4770   17.0370   15.1190 C.ar   24  TYR24      -0.0201
      7  CD1       35.7010   16.4310   15.4970 C.ar   24  TYR24      -0.0009
      8  CD2       34.5060   18.0280   14.1610 C.ar   24  TYR24      -0.0009
      9  CE1       36.9010   16.8490   14.9250 C.ar   24  TYR24       0.0417
     10  CE2       35.6940   18.4670   13.5860 C.ar   24  TYR24       0.0417
     11  CZ        36.9050   17.8510   13.9730 C.ar   24  TYR24       0.1957
     12  OH        38.0370   18.3020   13.3590 O.3    24  TYR24      -0.2866
     13  N         36.7240   18.1380   19.3040 N.3    26  THR26      -0.1218
     14  CA        37.4790   19.3590   19.1250 C.3    26  THR26       0.1862
     15  C         36.6210   20.5630   18.7900 C.2    26  THR26       0.2287
     16  O         37.1130   21.6940   19.0010 O.2    26  THR26      -0.2866
     17  CB        38.6320   19.2250   18.0290 C.3    26  THR26       0.1770
     18  OG1       39.4340   18.1000   18.4820 O.3    26  THR26      -0.2211
     19  CG2       39.5310   20.4750   18.0250 C.3    26  THR26       0.0375
     20  N         49.7140    9.7020    6.9770 N.3   105  TYR105     -0.1241
     21  CA        49.9500   11.0220    6.3610 C.3   105  TYR105      0.1605
     22  C         51.4470   11.3590    6.4510 C.2   105  TYR105      0.2264
     23  O         52.1020   11.0050    7.4470 O.2   105  TYR105     -0.2867
     24  CB        49.1870   12.1130    7.1360 C.3   105  TYR105      0.0534
     25  CG        47.7290   12.2580    6.8240 C.ar  105  TYR105     -0.0201
     26  CD1       46.7670   11.5300    7.5140 C.ar  105  TYR105     -0.0009
     27  CD2       47.3000   13.1580    5.8220 C.ar  105  TYR105     -0.0009
     28  CE1       45.3990   11.7140    7.2430 C.ar  105  TYR105      0.0417
     29  CE2       45.9370   13.3200    5.5330 C.ar  105  TYR105      0.0417
     30  CZ        45.0120   12.5910    6.2480 C.ar  105  TYR105      0.1957
     31  OH        43.6770   12.7180    6.0270 O.3   105  TYR105     -0.2866
     32  N         41.6420    5.9830    8.7290 N.3   144  TYR144     -0.1241
     33  CA        42.5840    6.5310    9.7290 C.3   144  TYR144      0.1605
     34  C         41.9290    6.5900   11.1050 C.2   144  TYR144      0.2264
     35  O         40.8430    7.1620   11.2260 O.2   144  TYR144     -0.2867
     36  CB        42.8850    7.9980    9.2010 C.3   144  TYR144      0.0534
     37  CG        43.7930    8.7680   10.0980 C.ar  144  TYR144     -0.0201
     38  CD1       45.1650    8.4510   10.1180 C.ar  144  TYR144     -0.0009
     39  CD2       43.3520    9.7750   10.9510 C.ar  144  TYR144     -0.0009
     40  CE1       46.0730    9.1180   10.9440 C.ar  144  TYR144      0.0417
     41  CE2       44.2300   10.4560   11.8010 C.ar  144  TYR144      0.0417
     42  CZ        45.5800   10.1280   11.7810 C.ar  144  TYR144      0.1957
     43  OH        46.4850   10.7470   12.5940 O.3   144  TYR144     -0.2866
     44  N         41.6720    7.8500   14.9390 N.3   146  TRP146     -0.1241
     45  CA        41.9490    9.1770   15.5430 C.3   146  TRP146      0.1605
     46  C         41.3890    9.2140   16.9430 C.2   146  TRP146      0.2264
     47  O         40.4340    8.4830   17.2800 O.2   146  TRP146     -0.2867
     48  CB        41.5450   10.2990   14.6050 C.3   146  TRP146      0.0550
     49  CG        40.0860   10.3040   14.2980 C.ar  146  TRP146      0.0003
     50  CD1       39.3400    9.3080   13.7270 C.ar  146  TRP146      0.0946
     51  CD2       39.1710   11.3730   14.5910 C.ar  146  TRP146      0.0152
     52  NE1       38.0230    9.6910   13.6270 N.ar  146  TRP146     -0.2442
     53  CE2       37.8940   10.9500   14.1530 C.ar  146  TRP146      0.0810
     54  CE3       39.3400   12.6300   15.1600 C.ar  146  TRP146      0.0012
     55  CZ2       36.7700   11.7550   14.2680 C.ar  146  TRP146      0.0191
     56  CZ3       38.2090   13.4260   15.2910 C.ar  146  TRP146      0.0001
     57  CH2       36.9620   13.0000   14.8290 C.ar  146  TRP146      0.0015
     58  N         38.2700    7.3060   10.7150 N.3   154  ARG154     -0.1245
     59  CA        37.8400    8.2020    9.6090 C.3   154  ARG154      0.1563
     60  C         37.7240    7.2630    8.3960 C.2   154  ARG154      0.2260
     61  O         38.6130    6.3950    8.2070 O.2   154  ARG154     -0.2867
     62  CB        38.9070    9.2290    9.2880 C.3   154  ARG154      0.0307
     63  CG        39.2160   10.4070   10.1280 C.3   154  ARG154      0.0489
     64  CD        38.1520   11.3460   10.4890 C.3   154  ARG154      0.2205
     65  NE        37.0950   11.5610    9.5220 N.pl3 154  ARG154     -0.0865
     66  CZ        37.1290   12.3280    8.4300 C.cat 154  ARG154      0.5346
     67  NH1       38.2040   13.0120    8.0670 N.pl3 154  ARG154      0.1354
     68  NH2       35.9920   12.4370    7.7370 N.pl3 154  ARG154      0.1354
     69  N         39.2170    9.1070    2.8030 N.3   157  HIS157     -0.1241
     70  CA        38.8100   10.4250    2.2660 C.3   157  HIS157      0.1621
     71  C         39.9830   11.1930    1.7020 C.2   157  HIS157      0.2264
     72  O         41.1660   10.8780    1.9550 O.2   157  HIS157     -0.2867
     73  CB        38.1290   11.2880    3.3850 C.3   157  HIS157      0.0745
     74  CG        39.1310   11.5850    4.4460 C.ar  157  HIS157      0.0817
     75  ND1       39.4790   10.7100    5.4530 N.ar  157  HIS157     -0.2268
     76  CD2       39.9540   12.6650    4.5810 C.ar  157  HIS157      0.1154
     77  CE1       40.4370   11.2620    6.1790 C.ar  157  HIS157      0.1986
     78  NE2       40.7400   12.4440    5.6810 N.ar  157  HIS157     -0.2212
     79  N         41.0460   15.2910    1.1310 N.3   159  HIS159     -0.1241
     80  CA        40.7020   16.6840    1.5010 C.3   159  HIS159      0.1621
     81  C         40.7400   17.5250    0.2260 C.2   159  HIS159      0.2264
     82  O         41.6630   17.2840   -0.5710 O.2   159  HIS159     -0.2867
     83  CB        41.6770   17.2750    2.5310 C.3   159  HIS159      0.0745
     84  CG        41.6290   16.5220    3.8320 C.ar  159  HIS159      0.0817
     85  ND1       40.9070   16.9510    4.9150 N.ar  159  HIS159     -0.2268
     86  CD2       42.2380   15.3680    4.1900 C.ar  159  HIS159      0.1154
     87  CE1       41.0860   16.0820    5.8990 C.ar  159  HIS159      0.1986
     88  NE2       41.8850   15.1060    5.4970 N.ar  159  HIS159     -0.2212
     89  N         35.7960   17.4240    1.9890 N.3   174  GLN174     -0.1245
     90  CA        36.3660   16.0760    1.9510 C.3   174  GLN174      0.1566
     91  C         35.5010   15.2170    1.0370 C.2   174  GLN174      0.2260
     92  O         34.2580   15.3420    1.0070 O.2   174  GLN174     -0.2867
     93  CB        36.4560   15.4890    3.3690 C.3   174  GLN174      0.0367
     94  CG        37.2660   16.3590    4.3220 C.3   174  GLN174      0.0905
     95  CD        37.4240   15.7880    5.7120 C.2   174  GLN174      0.2608
     96  OE1       37.5110   14.5680    5.9410 O.2   174  GLN174     -0.2717
     97  NE2       37.4360   16.6810    6.7140 N.am  174  GLN174     -0.0878
     98  N         32.5790   13.3030   12.1320 N.3   188  ILE188     -0.1245
     99  CA        32.8290   14.4660   11.2880 C.3   188  ILE188      0.1561
    100  C         31.8320   14.5540   10.1340 C.2   188  ILE188      0.2260
    101  O         31.4080   15.6430    9.7210 O.2   188  ILE188     -0.2867
    102  CB        34.3040   14.5180   10.7710 C.3   188  ILE188      0.0252
    103  CG1       35.2480   14.8620   11.9460 C.3   188  ILE188      0.0019
    104  CG2       34.4540   15.4560    9.5520 C.3   188  ILE188      0.0019
    105  CD1       36.7440   14.8240   11.5350 C.3   188  ILE188      0.0001
@<TRIPOS>BOND
     1    82    81    2
     2    81    80    1
     3    92    91    2
     4    91    90    1
     5    79    80    1
     6    80    83    1
     7    71    72    2
     8    71    70    1
     9    90    89    1
    10    90    93    1
    11    70    69    1
    12    70    73    1
    13    83    84    1
    14    93    94    1
    15    73    74    1
    16    84    86   ar
    17    84    85   ar
    18    86    88   ar
    19    94    95    1
    20    74    76   ar
    21    74    75   ar
    22    76    78   ar
    23    85    87   ar
    24    75    77   ar
    25    88    87   ar
    26    29    27   ar
    27    29    30   ar
    28    78    77   ar
    29    95    96    2
    30    95    97   am
    31    27    25   ar
    32    31    30    1
    33    30    28   ar
    34    21    22    1
    35    21    20    1
    36    21    24    1
    37    22    23    2
    38    25    24    1
    39    25    26   ar
    40    28    26   ar
    41    68    66    1
    42    67    66    1
    43    61    60    2
    44    60    59    1
    45    66    65    2
    46    32    33    1
    47    36    33    1
    48    36    37    1
    49    62    59    1
    50    62    63    1
    51    65    64    1
    52   104   102    1
    53    59    58    1
    54   101   100    2
    55    33    34    1
    56    37    38   ar
    57    37    39   ar
    58    38    40   ar
    59    63    64    1
    60   100    99    1
    61   102    99    1
    62   102   103    1
    63    40    42   ar
    64    39    41   ar
    65    34    35    2
    66    99    98    1
    67   105   103    1
    68    42    41   ar
    69    42    43    1
    70    12    11    1
    71    10    11   ar
    72    10     8   ar
    73    52    50   ar
    74    52    53   ar
    75    50    49   ar
    76    11     9   ar
    77    53    55   ar
    78    53    51   ar
    79     8     6   ar
    80    55    57   ar
    81    49    51   ar
    82    49    48    1
    83    51    54   ar
    84    48    45    1
    85    57    56   ar
    86     9     7   ar
    87    44    45    1
    88     6     7   ar
    89     6     5    1
    90    54    56   ar
    91    45    46    1
    92     5     2    1
    93    46    47    2
    94     2     1    1
    95     2     3    1
    96    19    17    1
    97    17    18    1
    98    17    14    1
    99     3     4    2
   100    15    16    2
   101    15    14    1
   102    14    13    1
