@<TRIPOS>MOLECULE
tmp/3pcoC00.pdb
 135 127 0 0 0
SMALL
GASTEIGER

@<TRIPOS>ATOM
      1  N        -53.2110  -11.9130  103.1610 N.3   151  HIS151     -0.1241
      2  CA       -52.6110  -11.0910  102.1120 C.3   151  HIS151      0.1621
      3  C        -52.8970   -9.6300  102.3670 C.2   151  HIS151      0.2264
      4  O        -52.4430   -8.7950  101.6090 O.2   151  HIS151     -0.2867
      5  CB       -53.2210  -11.4350  100.7530 C.3   151  HIS151      0.0745
      6  CG       -52.3540  -12.2810   99.8660 C.ar  151  HIS151      0.0817
      7  ND1      -51.9060  -11.8460   98.6360 N.ar  151  HIS151     -0.2268
      8  CD2      -51.9010  -13.5510   99.9990 C.ar  151  HIS151      0.1154
      9  CE1      -51.1930  -12.8000   98.0630 C.ar  151  HIS151      0.1986
     10  NE2      -51.1710  -13.8440   98.8710 N.ar  151  HIS151     -0.2212
     11  N        -51.4740   -9.1670   94.0440 N.3   165  GLN165     -0.1245
     12  CA       -50.3080   -9.7170   93.3790 C.3   165  GLN165      0.1566
     13  C        -50.5360   -9.6710   91.8780 C.2   165  GLN165      0.2260
     14  O        -51.6840   -9.6700   91.4030 O.2   165  GLN165     -0.2867
     15  CB       -50.0570  -11.1660   93.8290 C.3   165  GLN165      0.0367
     16  CG       -51.2320  -12.1290   93.5790 C.3   165  GLN165      0.0905
     17  CD       -51.0080  -13.5000   94.1530 C.2   165  GLN165      0.2608
     18  OE1      -49.8820  -13.9360   94.3290 O.2   165  GLN165     -0.2717
     19  NE2      -52.0890  -14.1990   94.4340 N.am  165  GLN165     -0.0878
     20  N        -49.8750  -12.1150   90.1900 N.3   167  SER167     -0.1217
     21  CA       -49.8390  -13.5340   89.8800 C.3   167  SER167      0.1889
     22  C        -51.0350  -13.8910   89.0350 C.2   167  SER167      0.2288
     23  O        -51.0120  -14.8850   88.3290 O.2   167  SER167     -0.2866
     24  CB       -49.7440  -14.3910   91.1430 C.3   167  SER167      0.2089
     25  OG       -48.7350  -13.9060   92.0150 O.3   167  SER167     -0.2183
     26  N        -50.8020  -14.8620   85.3920 N.3   170  GLN170     -0.1245
     27  CA       -50.5560  -16.2460   85.0500 C.3   170  GLN170      0.1566
     28  C        -51.8760  -16.8420   84.5410 C.2   170  GLN170      0.2260
     29  O        -51.9550  -17.4060   83.4510 O.2   170  GLN170     -0.2867
     30  CB       -50.0960  -17.0280   86.2820 C.3   170  GLN170      0.0367
     31  CG       -48.7020  -16.7150   86.8050 C.3   170  GLN170      0.0905
     32  CD       -48.3160  -17.6030   87.9900 C.2   170  GLN170      0.2608
     33  OE1      -47.6530  -17.1450   88.9180 O.2   170  GLN170     -0.2717
     34  NE2      -48.7420  -18.8690   87.9710 N.am  170  GLN170     -0.0878
     35  N        -51.8140   -4.1970   98.9100 N.3   191  ARG191     -0.1245
     36  CA       -51.9780   -4.8080  100.2280 C.3   191  ARG191      0.1563
     37  C        -51.9800   -3.7690  101.3380 C.2   191  ARG191      0.2260
     38  O        -51.4190   -2.6950  101.1840 O.2   191  ARG191     -0.2867
     39  CB       -50.9180   -5.8770  100.4960 C.3   191  ARG191      0.0307
     40  CG       -51.0570   -7.0960   99.6090 C.3   191  ARG191      0.0489
     41  CD       -50.2260   -8.2670  100.0870 C.3   191  ARG191      0.2205
     42  NE       -49.5100   -8.8420   98.9580 N.pl3 191  ARG191     -0.0865
     43  CZ       -48.7480   -9.9330   98.9970 C.cat 191  ARG191      0.5346
     44  NH1      -48.1110  -10.3440   97.8930 N.pl3 191  ARG191      0.1354
     45  NH2      -48.6190  -10.6180  100.1250 N.pl3 191  ARG191      0.1354
     46  N        -45.2150   -5.1720   91.7250 N.3   204  GLN204     -0.1245
     47  CA       -44.7390   -6.5350   91.6030 C.3   204  GLN204      0.1566
     48  C        -44.4750   -6.8730   90.1320 C.2   204  GLN204      0.2260
     49  O        -45.0380   -6.2400   89.2240 O.2   204  GLN204     -0.2867
     50  CB       -45.7380   -7.4950   92.2370 C.3   204  GLN204      0.0367
     51  CG       -45.1180   -8.6760   92.9340 C.3   204  GLN204      0.0905
     52  CD       -46.1540   -9.5440   93.6190 C.2   204  GLN204      0.2608
     53  OE1      -46.3010   -9.5130   94.8480 O.2   204  GLN204     -0.2717
     54  NE2      -46.8880  -10.3250   92.8250 N.am  204  GLN204     -0.0878
     55  N        -44.3450  -10.3070   88.0490 N.3   206  GLU206     -0.1245
     56  CA       -44.5310  -11.7360   87.8560 C.3   206  GLU206      0.1567
     57  C        -43.6750  -12.2210   86.7160 C.2   206  GLU206      0.2260
     58  O        -43.3450  -11.4700   85.8020 O.2   206  GLU206     -0.2867
     59  CB       -45.9690  -12.0490   87.4750 C.3   206  GLU206      0.0388
     60  CG       -46.3610  -13.5070   87.6570 C.3   206  GLU206      0.1160
     61  CD       -46.7760  -13.8000   89.0980 C.2   206  GLU206      0.3649
     62  OE1      -46.8240  -12.8260   89.9050 O.co2 206  GLU206     -0.2457
     63  OE2      -47.0590  -14.9860   89.4270 O.co2 206  GLU206     -0.2457
     64  N        -46.3130  -21.2430   98.4770 N.3   244  PHE244     -0.1241
     65  CA       -47.4000  -20.5450   97.8390 C.3   244  PHE244      0.1605
     66  C        -48.3240  -21.6010   97.2590 C.2   244  PHE244      0.2264
     67  O        -47.8720  -22.4970   96.5240 O.2   244  PHE244     -0.2867
     68  CB       -46.9090  -19.5910   96.7700 C.3   244  PHE244      0.0534
     69  CG       -45.8340  -18.6820   97.2250 C.ar  244  PHE244     -0.0203
     70  CD1      -46.1290  -17.4070   97.6470 C.ar  244  PHE244     -0.0042
     71  CD2      -44.5160  -19.0940   97.2140 C.ar  244  PHE244     -0.0042
     72  CE1      -45.1220  -16.5510   98.0770 C.ar  244  PHE244     -0.0003
     73  CE2      -43.5010  -18.2480   97.6320 C.ar  244  PHE244     -0.0003
     74  CZ       -43.8050  -16.9730   98.0650 C.ar  244  PHE244     -0.0000
     75  N        -50.1160  -21.6360   94.9430 N.3   246  PHE246     -0.1227
     76  CA       -50.0430  -21.7780   93.5010 C.3   246  PHE246      0.1736
     77  C        -48.7620  -22.4220   93.0170 C.2   246  PHE246      0.2596
     78  O        -48.6030  -22.5870   91.8210 O.2   246  PHE246     -0.2718
     79  CB       -50.3160  -20.4810   92.7430 C.3   246  PHE246      0.0547
     80  CG       -49.8620  -19.2440   93.4490 C.ar  246  PHE246     -0.0202
     81  CD1      -48.5250  -18.9390   93.5610 C.ar  246  PHE246     -0.0042
     82  CD2      -50.7910  -18.3480   93.9700 C.ar  246  PHE246     -0.0042
     83  CE1      -48.1260  -17.7520   94.2200 C.ar  246  PHE246     -0.0003
     84  CE2      -50.4040  -17.1700   94.6190 C.ar  246  PHE246     -0.0003
     85  CZ       -49.0820  -16.8780   94.7520 C.ar  246  PHE246     -0.0000
     86  N        -47.8610  -22.8050   93.9190 N.am  247  THR247     -0.1953
     87  CA       -46.6100  -23.4720   93.5090 C.3   247  THR247      0.1897
     88  C        -46.2520  -24.6100   94.4420 C.2   247  THR247      0.2313
     89  O        -46.7240  -24.6260   95.5760 O.2   247  THR247     -0.2863
     90  CB       -45.4180  -22.5150   93.5250 C.3   247  THR247      0.1794
     91  OG1      -45.3660  -21.8660   94.7970 O.3   247  THR247     -0.2208
     92  CG2      -45.5130  -21.5090   92.4100 C.3   247  THR247      0.0378
     93  N        -37.3260  -10.2820  102.2920 N.3   264  GLU264     -0.1245
     94  CA       -37.8520  -11.0160  101.1330 C.3   264  GLU264      0.1567
     95  C        -37.8290  -10.0770   99.9350 C.2   264  GLU264      0.2260
     96  O        -38.1970   -8.9120  100.0650 O.2   264  GLU264     -0.2867
     97  CB       -39.2790  -11.5460  101.3810 C.3   264  GLU264      0.0388
     98  CG       -40.0960  -11.9180  100.1010 C.3   264  GLU264      0.1160
     99  CD       -40.6770  -10.6810   99.3530 C.2   264  GLU264      0.3649
    100  OE1      -40.5410  -10.5620   98.0980 O.co2 264  GLU264     -0.2457
    101  OE2      -41.2720   -9.8100  100.0290 O.co2 264  GLU264     -0.2457
    102  N        -40.5630  -14.3620   95.7010 N.3   267  GLY267     -0.1210
    103  CA       -41.0180  -15.7210   95.9160 C.3   267  GLY267      0.1956
    104  C        -40.9730  -16.3870   94.5580 C.2   267  GLY267      0.2612
    105  O        -40.8190  -15.7010   93.5340 O.2   267  GLY267     -0.2717
    106  N        -41.0910  -17.7150   94.5470 N.am  268  CYS268     -0.1956
    107  CA       -41.0930  -18.4850   93.3030 C.3   268  CYS268      0.1843
    108  C        -41.4460  -19.9490   93.5610 C.2   268  CYS268      0.2626
    109  O        -41.2970  -20.4480   94.6800 O.2   268  CYS268     -0.2714
    110  CB       -39.7270  -18.4080   92.6250 C.3   268  CYS268      0.0997
    111  SG       -38.4030  -19.0180   93.6930 S.3   268  CYS268     -0.0797
    112  N        -41.9030  -20.6310   92.5120 N.am  269  GLY269     -0.1954
    113  CA       -42.0650  -22.0740   92.5420 C.3   269  GLY269      0.1869
    114  C        -42.2570  -22.6660   91.1600 C.2   269  GLY269      0.2309
    115  O        -42.5460  -21.9600   90.2050 O.2   269  GLY269     -0.2863
    116  N        -42.7520  -19.9340   88.1410 N.3   290  ALA290     -0.1231
    117  CA       -43.2170  -18.5860   88.2440 C.3   290  ALA290      0.1694
    118  C        -42.4920  -17.9070   89.4020 C.2   290  ALA290      0.2592
    119  O        -42.1070  -18.5760   90.3900 O.2   290  ALA290     -0.2718
    120  CB       -44.7130  -18.5870   88.4740 C.3   290  ALA290      0.0304
    121  N        -42.3010  -16.5890   89.2870 N.am  291  PHE291     -0.1962
    122  CA       -41.7790  -15.7960   90.4100 C.3   291  PHE291      0.1771
    123  C        -42.5530  -14.5080   90.5820 C.2   291  PHE291      0.2620
    124  O        -43.1750  -14.0330   89.6300 O.2   291  PHE291     -0.2715
    125  CB       -40.3030  -15.4780   90.2230 C.3   291  PHE291      0.0574
    126  CG       -39.9600  -15.0270   88.8450 C.ar  291  PHE291     -0.0200
    127  CD1      -39.4170  -15.9300   87.9180 C.ar  291  PHE291     -0.0042
    128  CD2      -40.1860  -13.7050   88.4550 C.ar  291  PHE291     -0.0042
    129  CE1      -39.0980  -15.5210   86.6310 C.ar  291  PHE291     -0.0003
    130  CE2      -39.8840  -13.2850   87.1720 C.ar  291  PHE291     -0.0003
    131  CZ       -39.3270  -14.1840   86.2660 C.ar  291  PHE291     -0.0000
    132  N        -42.5140  -13.9480   91.7930 N.am  292  GLY292     -0.1954
    133  CA       -43.1240  -12.6430   92.0610 C.3   292  GLY292      0.1869
    134  C        -42.1880  -11.6610   92.7500 C.2   292  GLY292      0.2309
    135  O        -41.9590  -11.7400   93.9600 O.2   292  GLY292     -0.2863
@<TRIPOS>BOND
     1    29    28    2
     2    28    27    1
     3    27    26    1
     4    27    30    1
     5    58    57    2
     6   131   129   ar
     7   131   130   ar
     8    30    31    1
     9   129   127   ar
    10    57    56    1
    11    31    32    1
    12   130   128   ar
    13    59    60    1
    14    59    56    1
    15    60    61    1
    16    56    55    1
    17   127   126   ar
    18    34    32   am
    19    32    33    2
    20   116   117    1
    21   117   120    1
    22   117   118    1
    23    23    22    2
    24   128   126   ar
    25   126   125    1
    26    22    21    1
    27    61    63   ar
    28    61    62   ar
    29    49    48    2
    30   121   118   am
    31   121   122    1
    32   118   119    2
    33   124   123    2
    34    21    20    1
    35    21    24    1
    36    48    47    1
    37   115   114    2
    38   125   122    1
    39   122   123    1
    40   123   132   am
    41    24    25    1
    42   114   113    1
    43    14    13    2
    44    47    46    1
    45    47    50    1
    46   132   133    1
    47    78    77    2
    48    13    12    1
    49   133   134    1
    50    50    51    1
    51    92    90    1
    52   112   113    1
    53   112   108   am
    54   110   107    1
    55   110   111    1
    56    79    80    1
    57    79    76    1
    58   134   135    2
    59    54    52   am
    60    51    52    1
    61    77    76    1
    62    77    86   am
    63   107   108    1
    64   107   106    1
    65    12    15    1
    66    12    11    1
    67    80    81   ar
    68    80    82   ar
    69    76    75    1
    70    87    90    1
    71    87    86    1
    72    87    88    1
    73    90    91    1
    74   105   104    2
    75    81    83   ar
    76   108   109    2
    77    16    15    1
    78    16    17    1
    79    52    53    2
    80    82    84   ar
    81    17    18    2
    82    17    19   am
    83    83    85   ar
    84    88    89    2
    85   106   104   am
    86   104   103    1
    87    84    85   ar
    88   102   103    1
    89    67    66    2
    90    68    69    1
    91    68    65    1
    92    71    69   ar
    93    71    73   ar
    94    69    70   ar
    95    66    65    1
    96    73    74   ar
    97    70    72   ar
    98    65    64    1
    99    44    43    1
   100     9     7   ar
   101     9    10   ar
   102    74    72   ar
   103   100    99   ar
   104     7     6   ar
   105    10     8   ar
   106    35    36    1
   107    42    43    2
   108    42    41    1
   109    43    45    1
   110    99   101   ar
   111    99    98    1
   112    40    41    1
   113    40    39    1
   114     6     8   ar
   115     6     5    1
   116    95    96    2
   117    95    94    1
   118    98    97    1
   119    36    39    1
   120    36    37    1
   121     5     2    1
   122    94    97    1
   123    94    93    1
   124    38    37    2
   125     4     3    2
   126     2     3    1
   127     2     1    1
