@<TRIPOS>MOLECULE
tmp/3pcoC01.pdb
 132 123 0 0 0
SMALL
GASTEIGER

@<TRIPOS>ATOM
      1  N        -51.8140   -4.1970   98.9100 N.3   191  ARG191     -0.1245
      2  CA       -51.9780   -4.8080  100.2280 C.3   191  ARG191      0.1563
      3  C        -51.9800   -3.7690  101.3380 C.2   191  ARG191      0.2260
      4  O        -51.4190   -2.6950  101.1840 O.2   191  ARG191     -0.2867
      5  CB       -50.9180   -5.8770  100.4960 C.3   191  ARG191      0.0307
      6  CG       -51.0570   -7.0960   99.6090 C.3   191  ARG191      0.0489
      7  CD       -50.2260   -8.2670  100.0870 C.3   191  ARG191      0.2205
      8  NE       -49.5100   -8.8420   98.9580 N.pl3 191  ARG191     -0.0865
      9  CZ       -48.7480   -9.9330   98.9970 C.cat 191  ARG191      0.5346
     10  NH1      -48.1110  -10.3440   97.8930 N.pl3 191  ARG191      0.1354
     11  NH2      -48.6190  -10.6180  100.1250 N.pl3 191  ARG191      0.1354
     12  N        -40.9600   -1.2120  105.5630 N.3   197  THR197     -0.1203
     13  CA       -40.8130   -2.3150  104.6130 C.3   197  THR197      0.1994
     14  C        -42.1430   -2.6590  103.9090 C.2   197  THR197      0.2618
     15  O        -42.1790   -3.5220  103.0330 O.2   197  THR197     -0.2717
     16  CB       -40.1500   -3.5230  105.3350 C.3   197  THR197      0.1784
     17  OG1      -38.7300   -3.3590  105.2930 O.3   197  THR197     -0.2211
     18  CG2      -40.5110   -4.8670  104.7140 C.3   197  THR197      0.0376
     19  N        -43.2210   -1.9570  104.2620 N.am  198  HIS198     -0.1961
     20  CA       -44.5190   -2.1600  103.6070 C.3   198  HIS198      0.1787
     21  C        -45.2580   -0.8590  103.2100 C.2   198  HIS198      0.2620
     22  O        -45.1540    0.1590  103.9060 O.2   198  HIS198     -0.2715
     23  CB       -45.4100   -3.0320  104.4870 C.3   198  HIS198      0.0785
     24  CG       -44.7810   -4.3310  104.8800 C.ar  198  HIS198      0.0821
     25  ND1      -44.7310   -5.4180  104.0350 N.ar  198  HIS198     -0.2267
     26  CD2      -44.1720   -4.7180  106.0260 C.ar  198  HIS198      0.1154
     27  CE1      -44.1230   -6.4210  104.6450 C.ar  198  HIS198      0.1986
     28  NE2      -43.7740   -6.0210  105.8550 N.ar  198  HIS198     -0.2212
     29  N        -46.0000   -0.9210  102.0950 N.am  199  THR199     -0.1951
     30  CA       -46.8370    0.1800  101.5680 C.3   199  THR199      0.1897
     31  C        -48.1340   -0.3840  100.9670 C.2   199  THR199      0.2313
     32  O        -48.1190   -1.4940  100.4280 O.2   199  THR199     -0.2863
     33  CB       -46.1230    0.9240  100.4460 C.3   199  THR199      0.1794
     34  OG1      -45.3350   -0.0200   99.7030 O.3   199  THR199     -0.2208
     35  CG2      -45.2290    2.0240  100.9890 C.3   199  THR199      0.0378
     36  N        -47.8650   -1.3470   95.9450 N.3   202  PHE202     -0.1241
     37  CA       -46.4890   -1.5140   95.5430 C.3   202  PHE202      0.1605
     38  C        -46.4120   -2.2320   94.2310 C.2   202  PHE202      0.2264
     39  O        -47.4310   -2.6740   93.7120 O.2   202  PHE202     -0.2867
     40  CB       -45.6300   -2.1590   96.6380 C.3   202  PHE202      0.0534
     41  CG       -45.9580   -3.5980   96.9460 C.ar  202  PHE202     -0.0203
     42  CD1      -46.8990   -3.9200   97.9150 C.ar  202  PHE202     -0.0042
     43  CD2      -45.2590   -4.6310   96.3340 C.ar  202  PHE202     -0.0042
     44  CE1      -47.1710   -5.2410   98.2310 C.ar  202  PHE202     -0.0003
     45  CE2      -45.5330   -5.9570   96.6520 C.ar  202  PHE202     -0.0003
     46  CZ       -46.4930   -6.2510   97.5970 C.ar  202  PHE202     -0.0000
     47  N        -45.2150   -5.1720   91.7250 N.3   204  GLN204     -0.1245
     48  CA       -44.7390   -6.5350   91.6030 C.3   204  GLN204      0.1566
     49  C        -44.4750   -6.8730   90.1320 C.2   204  GLN204      0.2260
     50  O        -45.0380   -6.2400   89.2240 O.2   204  GLN204     -0.2867
     51  CB       -45.7380   -7.4950   92.2370 C.3   204  GLN204      0.0367
     52  CG       -45.1180   -8.6760   92.9340 C.3   204  GLN204      0.0905
     53  CD       -46.1540   -9.5440   93.6190 C.2   204  GLN204      0.2608
     54  OE1      -46.3010   -9.5130   94.8480 O.2   204  GLN204     -0.2717
     55  NE2      -46.8880  -10.3250   92.8250 N.am  204  GLN204     -0.0878
     56  N        -46.3130  -21.2430   98.4770 N.3   244  PHE244     -0.1241
     57  CA       -47.4000  -20.5450   97.8390 C.3   244  PHE244      0.1605
     58  C        -48.3240  -21.6010   97.2590 C.2   244  PHE244      0.2264
     59  O        -47.8720  -22.4970   96.5240 O.2   244  PHE244     -0.2867
     60  CB       -46.9090  -19.5910   96.7700 C.3   244  PHE244      0.0534
     61  CG       -45.8340  -18.6820   97.2250 C.ar  244  PHE244     -0.0203
     62  CD1      -46.1290  -17.4070   97.6470 C.ar  244  PHE244     -0.0042
     63  CD2      -44.5160  -19.0940   97.2140 C.ar  244  PHE244     -0.0042
     64  CE1      -45.1220  -16.5510   98.0770 C.ar  244  PHE244     -0.0003
     65  CE2      -43.5010  -18.2480   97.6320 C.ar  244  PHE244     -0.0003
     66  CZ       -43.8050  -16.9730   98.0650 C.ar  244  PHE244     -0.0000
     67  N        -37.9770  -18.6870   98.1750 N.3   252  GLU252     -0.1245
     68  CA       -37.8650  -17.2530   98.3590 C.3   252  GLU252      0.1567
     69  C        -36.4150  -16.9460   98.3190 C.2   252  GLU252      0.2260
     70  O        -35.6200  -17.7870   98.7350 O.2   252  GLU252     -0.2867
     71  CB       -38.3290  -16.8780   99.7600 C.3   252  GLU252      0.0388
     72  CG       -39.7610  -16.4460   99.8310 C.3   252  GLU252      0.1160
     73  CD       -40.1040  -15.7970  101.1520 C.2   252  GLU252      0.3649
     74  OE1      -41.1660  -16.1380  101.7360 O.co2 252  GLU252     -0.2457
     75  OE2      -39.3070  -14.9490  101.6120 O.co2 252  GLU252     -0.2457
     76  N        -34.4590   -9.2950  104.0200 N.3   263  LEU263     -0.1231
     77  CA       -35.6910   -8.8510  103.4230 C.3   263  LEU263      0.1693
     78  C        -36.0730   -9.8090  102.3050 C.2   263  LEU263      0.2591
     79  O        -35.2250  -10.1270  101.4690 O.2   263  LEU263     -0.2718
     80  CB       -35.4830   -7.4660  102.8360 C.3   263  LEU263      0.0284
     81  CG       -36.6880   -6.5400  102.8410 C.3   263  LEU263      0.0019
     82  CD1      -36.9790   -6.0750  104.2710 C.3   263  LEU263      0.0001
     83  CD2      -36.3980   -5.3630  101.9590 C.3   263  LEU263      0.0001
     84  N        -37.3260  -10.2820  102.2920 N.am  264  GLU264     -0.1979
     85  CA       -37.8520  -11.0160  101.1330 C.3   264  GLU264      0.1602
     86  C        -37.8290  -10.0770   99.9350 C.2   264  GLU264      0.2287
     87  O        -38.1970   -8.9120  100.0650 O.2   264  GLU264     -0.2864
     88  CB       -39.2790  -11.5460  101.3810 C.3   264  GLU264      0.0415
     89  CG       -40.0960  -11.9180  100.1010 C.3   264  GLU264      0.1163
     90  CD       -40.6770  -10.6810   99.3530 C.2   264  GLU264      0.3649
     91  OE1      -40.5410  -10.5620   98.0980 O.co2 264  GLU264     -0.2457
     92  OE2      -41.2720   -9.8100  100.0290 O.co2 264  GLU264     -0.2457
     93  N        -40.5630  -14.3620   95.7010 N.3   267  GLY267     -0.1225
     94  CA       -41.0180  -15.7210   95.9160 C.3   267  GLY267      0.1811
     95  C        -40.9730  -16.3870   94.5580 C.2   267  GLY267      0.2280
     96  O        -40.8190  -15.7010   93.5340 O.2   267  GLY267     -0.2866
     97  N        -42.5140  -13.9480   91.7930 N.3   292  GLY292     -0.1225
     98  CA       -43.1240  -12.6430   92.0610 C.3   292  GLY292      0.1811
     99  C        -42.1880  -11.6610   92.7500 C.2   292  GLY292      0.2280
    100  O        -41.9590  -11.7400   93.9600 O.2   292  GLY292     -0.2866
    101  N        -40.6780   -8.1510   94.2540 N.3   294  GLY294     -0.1225
    102  CA       -41.0610   -6.8830   94.8500 C.3   294  GLY294      0.1811
    103  C        -40.1190   -5.7890   94.3840 C.2   294  GLY294      0.2280
    104  O        -38.9820   -5.7040   94.8440 O.2   294  GLY294     -0.2866
    105  N        -39.9290   -2.2290   94.6670 N.3   296  GLU296     -0.1231
    106  CA       -39.3170   -1.3180   95.6370 C.3   296  GLU296      0.1699
    107  C        -38.3330   -1.8420   96.6580 C.2   296  GLU296      0.2592
    108  O        -37.3210   -1.1880   96.9100 O.2   296  GLU296     -0.2718
    109  CB       -40.3100   -0.3820   96.3360 C.3   296  GLU296      0.0402
    110  CG       -41.6610   -0.9380   96.5860 C.3   296  GLU296      0.1161
    111  CD       -42.4300   -1.2090   95.3090 C.2   296  GLU296      0.3649
    112  OE1      -42.5340   -2.4180   94.9470 O.co2 296  GLU296     -0.2457
    113  OE2      -42.9130   -0.2260   94.6850 O.co2 296  GLU296     -0.2457
    114  N        -38.5910   -3.0380   97.1940 N.am  297  ARG297     -0.1980
    115  CA       -37.5870   -3.6630   98.0600 C.3   297  ARG297      0.1597
    116  C        -36.3250   -4.1980   97.3210 C.2   297  ARG297      0.2287
    117  O        -35.1940   -4.1640   97.8130 O.2   297  ARG297     -0.2864
    118  CB       -38.1650   -4.9200   98.7120 C.3   297  ARG297      0.0334
    119  CG       -39.2770   -4.6460   99.7110 C.3   297  ARG297      0.0492
    120  CD       -39.8190   -5.8900  100.3950 C.3   297  ARG297      0.2205
    121  NE       -40.9300   -5.5840  101.2910 N.pl3 297  ARG297     -0.0865
    122  CZ       -41.6540   -6.4980  101.9200 C.cat 297  ARG297      0.5346
    123  NH1      -41.3840   -7.7880  101.7590 N.pl3 297  ARG297      0.1354
    124  NH2      -42.6490   -6.1280  102.7160 N.pl3 297  ARG297      0.1354
    125  N        -38.6650    2.4050  102.8330 N.3   308  LEU308     -0.1245
    126  CA       -39.1760    2.1530  101.5000 C.3   308  LEU308      0.1561
    127  C        -40.3970    3.0250  101.2710 C.2   308  LEU308      0.2260
    128  O        -40.7790    3.2940  100.1420 O.2   308  LEU308     -0.2867
    129  CB       -39.5180    0.6520  101.4130 C.3   308  LEU308      0.0270
    130  CG       -40.4380   -0.0290  100.4030 C.3   308  LEU308      0.0019
    131  CD1      -40.0170   -1.4660  100.2630 C.3   308  LEU308      0.0001
    132  CD2      -41.8820    0.0480  100.8390 C.3   308  LEU308      0.0001
@<TRIPOS>BOND
     1    50    49    2
     2    49    48    1
     3    48    47    1
     4    48    51    1
     5    97    98    1
     6    98    99    1
     7    51    52    1
     8    99   100    2
     9    55    53   am
    10    52    53    1
    11    96    95    2
    12    53    54    2
    13    39    38    2
    14    38    37    1
    15   101   102    1
    16   103   104    2
    17   103   102    1
    18    95    94    1
    19   105   106    1
    20   113   111   ar
    21   112   111   ar
    22   111   110    1
    23    37    36    1
    24    37    40    1
    25   106   109    1
    26   106   107    1
    27    93    94    1
    28    43    45   ar
    29    43    41   ar
    30   109   110    1
    31    59    58    2
    32    40    41    1
    33    45    46   ar
    34   107   108    2
    35   107   114   am
    36    60    61    1
    37    60    57    1
    38    41    42   ar
    39   114   115    1
    40    63    61   ar
    41    63    65   ar
    42    61    62   ar
    43    58    57    1
    44   116   117    2
    45   116   115    1
    46    46    44   ar
    47    65    66   ar
    48    62    64   ar
    49    57    56    1
    50    10     9    1
    51    42    44   ar
    52   115   118    1
    53    66    64   ar
    54    91    90   ar
    55    67    68    1
    56    69    68    1
    57    69    70    2
    58    68    71    1
    59   118   119    1
    60     1     2    1
    61     8     9    2
    62     8     7    1
    63     9    11    1
    64    90    92   ar
    65    90    89    1
    66     6     7    1
    67     6     5    1
    68    34    33    1
    69   119   120    1
    70    71    72    1
    71    72    73    1
    72    86    87    2
    73    86    85    1
    74    89    88    1
    75   128   127    2
    76     2     5    1
    77     2     3    1
    78   131   130    1
    79   120   121    1
    80   130   132    1
    81   130   129    1
    82    32    31    2
    83    33    35    1
    84    33    30    1
    85    31    30    1
    86    85    88    1
    87    85    84    1
    88    73    75   ar
    89    73    74   ar
    90     4     3    2
    91   127   126    1
    92   121   122    2
    93   129   126    1
    94    79    78    2
    95   126   125    1
    96    30    29    1
    97   123   122    1
    98   122   124    1
    99    83    81    1
   100    29    21   am
   101    84    78   am
   102    78    77    1
   103    80    81    1
   104    80    77    1
   105    81    82    1
   106    15    14    2
   107    21    20    1
   108    21    22    2
   109    77    76    1
   110    20    19    1
   111    20    23    1
   112    14    19   am
   113    14    13    1
   114    25    27   ar
   115    25    24   ar
   116    23    24    1
   117    13    16    1
   118    13    12    1
   119    27    28   ar
   120    18    16    1
   121    24    26   ar
   122    17    16    1
   123    28    26   ar
