@<TRIPOS>MOLECULE
tmp/3pcsC00.pdb
 186 173 0 0 0
SMALL
GASTEIGER

@<TRIPOS>ATOM
      1  N        -86.1580   23.9090   53.6670 N.3   121  THR121     -0.1218
      2  CA       -85.4170   22.6660   53.4660 C.3   121  THR121      0.1862
      3  C        -86.1350   21.4460   54.0520 C.2   121  THR121      0.2287
      4  O        -85.7200   20.3100   53.8100 O.2   121  THR121     -0.2866
      5  CB       -83.9700   22.7330   54.0500 C.3   121  THR121      0.1770
      6  OG1      -84.0180   22.7890   55.4820 O.3   121  THR121     -0.2211
      7  CG2      -83.1920   23.9380   53.4950 C.3   121  THR121      0.0375
      8  N        -88.3780   20.7010   51.0460 N.3   124  MET124     -0.1230
      9  CA       -87.5400   20.2010   49.9690 C.3   124  MET124      0.1702
     10  C        -87.2440   18.7200   50.1200 C.2   124  MET124      0.2592
     11  O        -87.3360   17.9700   49.1530 O.2   124  MET124     -0.2718
     12  CB       -86.2260   20.9710   49.9410 C.3   124  MET124      0.0401
     13  CG       -85.5720   21.0440   48.5820 C.3   124  MET124      0.0596
     14  SD       -83.7950   21.2990   48.7440 S.3   124  MET124     -0.1393
     15  CE       -83.7690   22.6690   49.8940 C.3   124  MET124      0.0692
     16  N        -86.8770   18.3070   51.3310 N.am  125  ARG125     -0.1980
     17  CA       -86.4470   16.9280   51.5920 C.3   125  ARG125      0.1597
     18  C        -87.6110   15.9320   51.5340 C.2   125  ARG125      0.2287
     19  O        -87.4160   14.7270   51.3070 O.2   125  ARG125     -0.2864
     20  CB       -85.7160   16.8320   52.9410 C.3   125  ARG125      0.0334
     21  CG       -84.2690   17.3480   52.9170 C.3   125  ARG125      0.0492
     22  CD       -83.5670   17.1280   54.2510 C.3   125  ARG125      0.2205
     23  NE       -84.2490   17.8380   55.3290 N.pl3 125  ARG125     -0.0865
     24  CZ       -84.6160   17.2860   56.4830 C.cat 125  ARG125      0.5346
     25  NH1      -84.3600   16.0040   56.7160 N.pl3 125  ARG125      0.1354
     26  NH2      -85.2340   18.0170   57.4070 N.pl3 125  ARG125      0.1354
     27  N        -69.9620   13.9180   54.8560 N.3   163  ARG163     -0.1245
     28  CA       -70.9160   15.0270   54.9340 C.3   163  ARG163      0.1563
     29  C        -72.3240   14.6760   54.4450 C.2   163  ARG163      0.2260
     30  O        -73.2330   15.5040   54.5060 O.2   163  ARG163     -0.2867
     31  CB       -70.4010   16.2510   54.1770 C.3   163  ARG163      0.0307
     32  CG       -70.2160   16.0120   52.7040 C.3   163  ARG163      0.0489
     33  CD       -70.0270   17.3100   51.9560 C.3   163  ARG163      0.2205
     34  NE       -69.1650   17.1340   50.7890 N.pl3 163  ARG163     -0.0865
     35  CZ       -69.2220   17.8850   49.6920 C.cat 163  ARG163      0.5346
     36  NH1      -70.1110   18.8640   49.6020 N.pl3 163  ARG163      0.1354
     37  NH2      -68.3950   17.6530   48.6790 N.pl3 163  ARG163      0.1354
     38  N        -76.0160   11.9250   58.0260 N.3   166  GLY166     -0.1210
     39  CA       -76.4850   12.9160   58.9700 C.3   166  GLY166      0.1956
     40  C        -77.6110   13.7040   58.3440 C.2   166  GLY166      0.2611
     41  O        -78.5970   14.0230   58.9930 O.2   166  GLY166     -0.2717
     42  N        -77.4740   13.9830   57.0560 N.am  167  ASN167     -0.1974
     43  CA       -78.3980   14.8690   56.3640 C.3   167  ASN167      0.1688
     44  C        -79.2330   14.1710   55.2960 C.2   167  ASN167      0.2292
     45  O        -80.1130   14.7830   54.6740 O.2   167  ASN167     -0.2864
     46  CB       -77.6220   16.0140   55.7280 C.3   167  ASN167      0.1181
     47  CG       -76.5450   16.5610   56.6460 C.2   167  ASN167      0.2629
     48  OD1      -76.7930   16.8360   57.8260 O.2   167  ASN167     -0.2716
     49  ND2      -75.3370   16.7110   56.1150 N.am  167  ASN167     -0.0877
     50  N        -80.9470   10.3330   61.2730 N.3   179  ALA179     -0.1245
     51  CA       -79.6600   11.0110   61.2890 C.3   179  ALA179      0.1562
     52  C        -78.8250   10.6310   62.5030 C.2   179  ALA179      0.2260
     53  O        -77.6250   10.8960   62.5510 O.2   179  ALA179     -0.2867
     54  CB       -79.8600   12.5110   61.2240 C.3   179  ALA179      0.0290
     55  N        -75.1410    8.8100   62.0290 N.3   183  LYS183     -0.1245
     56  CA       -73.8330    9.2520   62.5000 C.3   183  LYS183      0.1561
     57  C        -73.1380    8.1170   63.2340 C.2   183  LYS183      0.2260
     58  O        -71.9130    8.0890   63.3240 O.2   183  LYS183     -0.2867
     59  CB       -73.9430   10.4950   63.3840 C.3   183  LYS183      0.0271
     60  CG       -74.5140   11.7150   62.6720 C.3   183  LYS183      0.0035
     61  CD       -74.7610   12.8480   63.6560 C.3   183  LYS183      0.0206
     62  CE       -75.6070   13.9510   63.0390 C.3   183  LYS183      0.1093
     63  NZ       -75.9440   14.9710   64.0600 N.3   183  LYS183     -0.1314
     64  N        -70.9120   12.1350   44.5800 N.3   248  GLN248     -0.1231
     65  CA       -71.6340   13.2970   44.0800 C.3   248  GLN248      0.1698
     66  C        -71.6660   13.3920   42.5520 C.2   248  GLN248      0.2592
     67  O        -72.6570   13.8210   41.9700 O.2   248  GLN248     -0.2718
     68  CB       -71.0970   14.5840   44.6980 C.3   248  GLN248      0.0381
     69  CG       -71.5470   14.8040   46.1360 C.3   248  GLN248      0.0905
     70  CD       -70.9530   16.0590   46.7630 C.2   248  GLN248      0.2608
     71  OE1      -71.4400   16.5360   47.7950 O.2   248  GLN248     -0.2717
     72  NE2      -69.8920   16.5960   46.1490 N.am  248  GLN248     -0.0878
     73  N        -70.6000   12.9600   41.9010 N.am  249  SER249     -0.1952
     74  CA       -70.4940   13.1100   40.4620 C.3   249  SER249      0.1924
     75  C        -71.5110   12.2800   39.6810 C.2   249  SER249      0.2314
     76  O        -71.6820   12.4700   38.4780 O.2   249  SER249     -0.2863
     77  CB       -69.0650   12.8200   40.0110 C.3   249  SER249      0.2116
     78  OG       -68.1610   13.6870   40.6740 O.3   249  SER249     -0.2180
     79  N        -74.1890   12.8580   39.5460 N.3   251  ASN251     -0.1225
     80  CA       -75.1350   13.8780   39.1440 C.3   251  ASN251      0.1785
     81  C        -74.7830   14.5220   37.8150 C.2   251  ASN251      0.2597
     82  O        -75.6470   15.0910   37.1470 O.2   251  ASN251     -0.2718
     83  CB       -75.2370   14.9510   40.2240 C.3   251  ASN251      0.1169
     84  CG       -76.0070   14.4840   41.4280 C.2   251  ASN251      0.2627
     85  OD1      -77.2360   14.4410   41.4010 O.2   251  ASN251     -0.2716
     86  ND2      -75.2950   14.1250   42.4960 N.am  251  ASN251     -0.0877
     87  N        -73.5200   14.4250   37.4190 N.am  252  VAL252     -0.1980
     88  CA       -73.0690   15.1210   36.2260 C.3   252  VAL252      0.1595
     89  C        -73.9240   14.8790   34.9860 C.2   252  VAL252      0.2287
     90  O        -74.3740   15.8280   34.3520 O.2   252  VAL252     -0.2864
     91  CB       -71.6110   14.8050   35.8990 C.3   252  VAL252      0.0276
     92  CG1      -71.2920   15.2530   34.4890 C.3   252  VAL252      0.0022
     93  CG2      -70.7110   15.4880   36.9010 C.3   252  VAL252      0.0022
     94  N        -76.9310   16.9210   35.4480 N.3   255  LEU255     -0.1231
     95  CA       -76.6170   18.3380   35.6040 C.3   255  LEU255      0.1693
     96  C        -76.3190   18.9300   34.2480 C.2   255  LEU255      0.2592
     97  O        -76.8500   19.9690   33.8880 O.2   255  LEU255     -0.2718
     98  CB       -75.4330   18.5430   36.5390 C.3   255  LEU255      0.0284
     99  CG       -75.8020   18.2810   37.9950 C.3   255  LEU255      0.0019
    100  CD1      -74.7230   18.7850   38.8990 C.3   255  LEU255      0.0001
    101  CD2      -77.1030   18.9570   38.3160 C.3   255  LEU255      0.0001
    102  N        -75.4850   18.2430   33.4850 N.am  256  THR256     -0.1953
    103  CA       -75.1220   18.7010   32.1560 C.3   256  THR256      0.1897
    104  C        -76.3280   19.0570   31.2820 C.2   256  THR256      0.2313
    105  O        -76.2330   19.9670   30.4490 O.2   256  THR256     -0.2863
    106  CB       -74.2310   17.6770   31.4570 C.3   256  THR256      0.1794
    107  OG1      -72.9680   17.6260   32.1250 O.3   256  THR256     -0.2208
    108  CG2      -74.0010   18.0470   30.0060 C.3   256  THR256      0.0378
    109  N        -78.3980   21.9920   33.9740 N.3   259  HIS259     -0.1241
    110  CA       -77.6310   22.9230   34.8030 C.3   259  HIS259      0.1621
    111  C        -77.9520   24.3990   34.5730 C.2   259  HIS259      0.2264
    112  O        -77.6970   25.2270   35.4480 O.2   259  HIS259     -0.2867
    113  CB       -76.1230   22.6620   34.6830 C.3   259  HIS259      0.0745
    114  CG       -75.3790   23.7320   33.9510 C.ar  259  HIS259      0.0817
    115  ND1      -75.2380   23.7330   32.5810 N.ar  259  HIS259     -0.2268
    116  CD2      -74.7290   24.8320   34.4000 C.ar  259  HIS259      0.1154
    117  CE1      -74.5360   24.7920   32.2150 C.ar  259  HIS259      0.1986
    118  NE2      -74.2170   25.4760   33.2990 N.ar  259  HIS259     -0.2212
    119  N        -80.8800   25.1600   36.7020 N.3   262  ILE262     -0.1231
    120  CA       -80.4480   24.9450   38.0710 C.3   262  ILE262      0.1692
    121  C        -79.7560   26.2070   38.5550 C.2   262  ILE262      0.2592
    122  O        -79.9350   26.6210   39.7010 O.2   262  ILE262     -0.2718
    123  CB       -79.4760   23.7610   38.1720 C.3   262  ILE262      0.0266
    124  CG1      -80.1740   22.4840   37.7050 C.3   262  ILE262      0.0019
    125  CG2      -78.9210   23.6350   39.5980 C.3   262  ILE262      0.0020
    126  CD1      -79.5600   21.2160   38.2420 C.3   262  ILE262      0.0001
    127  N        -78.9600   26.8110   37.6720 N.am  263  SER263     -0.1952
    128  CA       -78.3510   28.1110   37.9440 C.3   263  SER263      0.1924
    129  C        -79.4500   29.1630   38.1100 C.2   263  SER263      0.2314
    130  O        -79.5600   29.8010   39.1620 O.2   263  SER263     -0.2863
    131  CB       -77.3880   28.5110   36.8180 C.3   263  SER263      0.2116
    132  OG       -76.1180   27.8890   36.9710 O.3   263  SER263     -0.2180
    133  N        -80.7800   28.9690   41.5640 N.3   266  SER266     -0.1217
    134  CA       -80.0760   29.5690   42.7040 C.3   266  SER266      0.1889
    135  C        -79.6240   31.0210   42.4520 C.2   266  SER266      0.2288
    136  O        -78.7150   31.5330   43.1130 O.2   266  SER266     -0.2866
    137  CB       -78.9280   28.6690   43.2000 C.3   266  SER266      0.2089
    138  OG       -78.1280   28.1850   42.1350 O.3   266  SER266     -0.2183
    139  N        -79.5890   26.0100   50.6720 N.3   272  PRO272     -0.2102
    140  CA       -79.4270   24.5680   50.4410 C.3   272  PRO272      0.1504
    141  C        -80.1280   24.1330   49.1600 C.2   272  PRO272      0.2576
    142  O        -81.3530   24.1380   49.1310 O.2   272  PRO272     -0.2718
    143  CB       -80.1300   23.9440   51.6470 C.3   272  PRO272      0.0282
    144  CG       -79.9910   24.9750   52.7280 C.3   272  PRO272      0.0208
    145  CD       -80.0720   26.3090   52.0320 C.3   272  PRO272      0.0893
    146  N        -79.3650   23.7550   48.1340 N.am  273  ASN273     -0.1961
    147  CA       -79.9200   23.4100   46.8220 C.3   273  ASN273      0.1819
    148  C        -80.3540   21.9450   46.7210 C.2   273  ASN273      0.2621
    149  O        -81.4540   21.6290   46.2410 O.2   273  ASN273     -0.2715
    150  CB       -78.9000   23.7160   45.7140 C.3   273  ASN273      0.1195
    151  CG       -79.5570   23.9720   44.3630 C.2   273  ASN273      0.2630
    152  OD1      -80.7430   23.6970   44.1710 O.2   273  ASN273     -0.2716
    153  ND2      -78.7840   24.5000   43.4190 N.am  273  ASN273     -0.0877
    154  N        -79.4810   21.0540   47.1810 N.am  274  ALA274     -0.1963
    155  CA       -79.6630   19.6360   46.9490 C.3   274  ALA274      0.1728
    156  C        -79.7000   18.8470   48.2430 C.2   274  ALA274      0.2616
    157  O        -78.9700   19.1600   49.1840 O.2   274  ALA274     -0.2715
    158  CB       -78.5510   19.1220   46.0620 C.3   274  ALA274      0.0334
    159  N        -80.5500   17.8230   48.2820 N.am  275  CYS275     -0.1954
    160  CA       -80.5520   16.8710   49.3870 C.3   275  CYS275      0.1843
    161  C        -80.5170   15.4410   48.8580 C.2   275  CYS275      0.2625
    162  O        -80.6660   15.2080   47.6610 O.2   275  CYS275     -0.2714
    163  CB       -81.7540   17.0940   50.3010 C.3   275  CYS275      0.0997
    164  SG       -83.2920   17.2190   49.4160 S.3   275  CYS275     -0.0797
    165  N        -80.2990   14.4840   49.7470 N.am  276  ILE276     -0.1977
    166  CA       -80.0590   13.1270   49.3010 C.3   276  ILE276      0.1596
    167  C        -81.0730   12.1220   49.8220 C.2   276  ILE276      0.2287
    168  O        -81.6290   12.2610   50.9070 O.2   276  ILE276     -0.2864
    169  CB       -78.6710   12.6530   49.7120 C.3   276  ILE276      0.0276
    170  CG1      -77.6280   13.6950   49.3150 C.3   276  ILE276      0.0022
    171  CG2      -78.3790   11.2740   49.0980 C.3   276  ILE276      0.0022
    172  CD1      -76.2890   13.5130   50.0140 C.3   276  ILE276      0.0001
    173  N        -80.6770   12.1510   44.3250 N.3   294  THR294     -0.1218
    174  CA       -80.3320   13.5110   44.6990 C.3   294  THR294      0.1862
    175  C        -81.4170   14.4640   44.2180 C.2   294  THR294      0.2287
    176  O        -81.7190   14.5220   43.0250 O.2   294  THR294     -0.2866
    177  CB       -79.0360   13.9580   44.0490 C.3   294  THR294      0.1770
    178  OG1      -77.9210   13.3950   44.7480 O.3   294  THR294     -0.2211
    179  CG2      -78.9400   15.4560   44.1150 C.3   294  THR294      0.0375
    180  N        -82.7390   18.3080   43.5760 N.3   296  VAL296     -0.1245
    181  CA       -82.1030   19.5770   43.2260 C.3   296  VAL296      0.1561
    182  C        -83.1450   20.5630   42.7280 C.2   296  VAL296      0.2260
    183  O        -83.9670   20.2130   41.8810 O.2   296  VAL296     -0.2867
    184  CB       -81.0940   19.3830   42.0890 C.3   296  VAL296      0.0252
    185  CG1      -80.4460   20.7090   41.7190 C.3   296  VAL296      0.0019
    186  CG2      -80.0550   18.3410   42.4770 C.3   296  VAL296      0.0019
@<TRIPOS>BOND
     1   108   106    1
     2   105   104    2
     3   104   103    1
     4   106   107    1
     5   106   103    1
     6   103   102    1
     7   117   115   ar
     8   117   118   ar
     9   115   114   ar
    10   118   116   ar
    11   102    96   am
    12    97    96    2
    13   114   116   ar
    14   114   113    1
    15   109   110    1
    16    96    95    1
    17    90    89    2
    18    92    91    1
    19   111   110    1
    20   111   112    2
    21   113   110    1
    22    89    88    1
    23    94    95    1
    24    95    98    1
    25    91    88    1
    26    91    93    1
    27    88    87    1
    28    98    99    1
    29   119   120    1
    30   131   132    1
    31   131   128    1
    32    82    81    2
    33    87    81   am
    34   127   128    1
    35   127   121   am
    36   124   123    1
    37   124   126    1
    38    81    80    1
    39   128   129    1
    40    99   101    1
    41    99   100    1
    42   120   123    1
    43   120   121    1
    44   129   130    2
    45   123   125    1
    46    76    75    2
    47   121   122    2
    48    80    79    1
    49    80    83    1
    50    75    74    1
    51    77    74    1
    52    77    78    1
    53    83    84    1
    54    74    73    1
    55    85    84    2
    56    84    86   am
    57   133   134    1
    58   185   184    1
    59   183   182    2
    60    73    66   am
    61    67    66    2
    62   184   186    1
    63   184   181    1
    64   138   137    1
    65   135   134    1
    66   135   136    2
    67    66    65    1
    68   134   137    1
    69   182   181    1
    70   176   175    2
    71   181   180    1
    72   153   151   am
    73   177   179    1
    74   177   174    1
    75   177   178    1
    76    65    64    1
    77    65    68    1
    78   152   151    2
    79   175   174    1
    80   173   174    1
    81   151   150    1
    82    68    69    1
    83   150   147    1
    84   158   155    1
    85    69    70    1
    86    72    70   am
    87   149   148    2
    88   148   147    1
    89   148   154   am
    90    70    71    2
    91   147   146    1
    92   155   154    1
    93   155   156    1
    94   162   161    2
    95   146   141   am
    96   156   159   am
    97   156   157    2
    98   159   160    1
    99    13    14    1
   100    13    12    1
   101    37    35    1
   102    14    15    1
   103   161   160    1
   104   161   165   am
   105   171   169    1
   106   142   141    2
   107    11    10    2
   108   141   140    1
   109   166   169    1
   110   166   165    1
   111   166   167    1
   112   170   169    1
   113   170   172    1
   114   160   163    1
   115   164   163    1
   116    36    35    1
   117    35    34    2
   118   167   168    2
   119    12     9    1
   120     9    10    1
   121     9     8    1
   122    10    16   am
   123   140   139    1
   124   140   143    1
   125   139   145    1
   126    34    33    1
   127    19    18    2
   128    16    17    1
   129    18    17    1
   130    17    20    1
   131   143   144    1
   132    33    32    1
   133   145   144    1
   134    32    31    1
   135    21    20    1
   136    21    22    1
   137     2     1    1
   138     2     5    1
   139     2     3    1
   140     7     5    1
   141     4     3    2
   142     5     6    1
   143    31    28    1
   144    22    23    1
   145    29    30    2
   146    29    28    1
   147    45    44    2
   148    27    28    1
   149    44    43    1
   150    23    24    2
   151    46    43    1
   152    46    47    1
   153    49    47   am
   154    43    42    1
   155    24    25    1
   156    24    26    1
   157    47    48    2
   158    42    40   am
   159    38    39    1
   160    40    39    1
   161    40    41    2
   162    54    51    1
   163    50    51    1
   164    51    52    1
   165    55    56    1
   166    56    57    1
   167    56    59    1
   168    52    53    2
   169    60    59    1
   170    60    61    1
   171    62    61    1
   172    62    63    1
   173    57    58    2
