@<TRIPOS>MOLECULE
tmp/3pcsB00.pdb
 193 180 0 0 0
SMALL
GASTEIGER

@<TRIPOS>ATOM
      1  N        -61.8480   20.5390    5.2480 N.3   124  THR124     -0.1218
      2  CA       -63.2620   20.1760    5.2200 C.3   124  THR124      0.1862
      3  C        -63.7300   19.1710    4.1680 C.2   124  THR124      0.2287
      4  O        -64.8320   18.6430    4.2830 O.2   124  THR124     -0.2866
      5  CB       -64.1430   21.4220    5.0900 C.3   124  THR124      0.1770
      6  OG1      -63.9310   22.0230    3.8060 O.3   124  THR124     -0.2211
      7  CG2      -63.8190   22.4060    6.1990 C.3   124  THR124      0.0375
      8  N        -63.6310   16.2650    6.4730 N.3   127  MET127     -0.1230
      9  CA       -64.7610   16.3790    7.3930 C.3   127  MET127      0.1702
     10  C        -66.1120   16.0360    6.7670 C.2   127  MET127      0.2592
     11  O        -66.9060   15.3210    7.3710 O.2   127  MET127     -0.2718
     12  CB       -64.8170   17.7960    7.9600 C.3   127  MET127      0.0401
     13  CG       -65.9250   18.0410    8.9770 C.3   127  MET127      0.0596
     14  SD       -66.4500   19.7770    9.0500 S.3   127  MET127     -0.1393
     15  CE       -64.8640   20.6060    8.9290 C.3   127  MET127      0.0692
     16  N        -66.3880   16.5500    5.5710 N.am  128  ARG128     -0.1980
     17  CA       -67.6320   16.1970    4.8830 C.3   128  ARG128      0.1597
     18  C        -67.7110   14.6950    4.5350 C.2   128  ARG128      0.2287
     19  O        -68.7740   14.0740    4.6630 O.2   128  ARG128     -0.2864
     20  CB       -67.8890   17.0840    3.6510 C.3   128  ARG128      0.0334
     21  CG       -68.3870   18.5170    4.0260 C.3   128  ARG128      0.0492
     22  CD       -68.9680   19.3420    2.8520 C.3   128  ARG128      0.2205
     23  NE       -67.9350   19.6840    1.8840 N.pl3 128  ARG128     -0.0865
     24  CZ       -67.9350   19.3040    0.6100 C.cat 128  ARG128      0.5346
     25  NH1      -68.9340   18.5870    0.1040 N.pl3 128  ARG128      0.1354
     26  NH2      -66.9280   19.6590   -0.1670 N.pl3 128  ARG128      0.1354
     27  N        -79.3810   28.4890    3.3240 N.3   166  ARG166     -0.1245
     28  CA       -77.9430   28.2930    3.3540 C.3   166  ARG166      0.1563
     29  C        -77.5280   26.8290    3.4920 C.2   166  ARG166      0.2260
     30  O        -76.3430   26.5110    3.3740 O.2   166  ARG166     -0.2867
     31  CB       -77.3020   29.1410    4.4460 C.3   166  ARG166      0.0307
     32  CG       -78.0010   29.1000    5.7740 C.3   166  ARG166      0.0489
     33  CD       -77.3230   30.0900    6.6770 C.3   166  ARG166      0.2205
     34  NE       -77.8320   30.0590    8.0390 N.pl3 166  ARG166     -0.0865
     35  CZ       -77.0700   29.8170    9.0990 C.cat 166  ARG166      0.5346
     36  NH1      -75.7720   29.5750    8.9400 N.pl3 166  ARG166      0.1354
     37  NH2      -77.6020   29.8200   10.3120 N.pl3 166  ARG166      0.1354
     38  N        -76.9810   23.6050   -1.4210 N.3   169  GLY169     -0.1210
     39  CA       -75.7400   24.0190   -2.0430 C.3   169  GLY169      0.1956
     40  C        -74.5400   23.5410   -1.2450 C.2   169  GLY169      0.2611
     41  O        -73.4360   23.4430   -1.7820 O.2   169  GLY169     -0.2717
     42  N        -74.7560   23.2330    0.0350 N.am  170  ASN170     -0.1974
     43  CA       -73.6600   22.8730    0.9340 C.3   170  ASN170      0.1688
     44  C        -73.8330   21.5130    1.6130 C.2   170  ASN170      0.2292
     45  O        -73.0540   21.1130    2.4870 O.2   170  ASN170     -0.2864
     46  CB       -73.4850   23.9540    2.0000 C.3   170  ASN170      0.1181
     47  CG       -73.3290   25.3530    1.4060 C.2   170  ASN170      0.2629
     48  OD1      -72.7700   25.5280    0.3280 O.2   170  ASN170     -0.2716
     49  ND2      -73.8200   26.3510    2.1220 N.am  170  ASN170     -0.0877
     50  N        -74.7100   19.6070   -5.5810 N.3   182  ALA182     -0.1245
     51  CA       -74.8600   21.0180   -5.1810 C.3   182  ALA182      0.1562
     52  C        -75.5490   21.8780   -6.2510 C.2   182  ALA182      0.2260
     53  O        -76.4500   22.6540   -5.9440 O.2   182  ALA182     -0.2867
     54  CB       -73.5270   21.6170   -4.7820 C.3   182  ALA182      0.0290
     55  N        -79.4140   23.6890   -5.5150 N.3   186  LYS186     -0.1245
     56  CA       -79.7180   25.0930   -5.7640 C.3   186  LYS186      0.1561
     57  C        -80.9960   25.1920   -6.5910 C.2   186  LYS186      0.2260
     58  O        -81.9170   25.9510   -6.2560 O.2   186  LYS186     -0.2867
     59  CB       -78.5380   25.7930   -6.4610 C.3   186  LYS186      0.0271
     60  CG       -77.3650   26.1150   -5.5260 C.3   186  LYS186      0.0035
     61  CD       -76.0860   26.4640   -6.2850 C.3   186  LYS186      0.0206
     62  CE       -74.8470   26.2460   -5.4060 C.3   186  LYS186      0.1093
     63  NZ       -73.5510   26.4920   -6.1140 N.3   186  LYS186     -0.1314
     64  N        -81.6560   23.8130   12.0140 N.3   251  GLN251     -0.1231
     65  CA       -80.4030   23.6210   12.7320 C.3   251  GLN251      0.1698
     66  C        -80.5410   23.4070   14.2470 C.2   251  GLN251      0.2592
     67  O        -79.6040   22.9510   14.8930 O.2   251  GLN251     -0.2718
     68  CB       -79.4690   24.7930   12.4980 C.3   251  GLN251      0.0381
     69  CG       -79.0480   25.0490   11.0850 C.3   251  GLN251      0.0905
     70  CD       -78.1920   26.3050   11.0340 C.2   251  GLN251      0.2608
     71  OE1      -77.4830   26.5660   10.0550 O.2   251  GLN251     -0.2717
     72  NE2      -78.2540   27.0950   12.1160 N.am  251  GLN251     -0.0878
     73  N        -81.6770   23.7540   14.8350 N.am  252  SER252     -0.1952
     74  CA       -81.7870   23.6250   16.2860 C.3   252  SER252      0.1924
     75  C        -82.0130   22.1790   16.6940 C.2   252  SER252      0.2314
     76  O        -82.0010   21.8580   17.8810 O.2   252  SER252     -0.2863
     77  CB       -82.8600   24.5520   16.8620 C.3   252  SER252      0.2116
     78  OG       -82.5070   25.9020   16.6250 O.3   252  SER252     -0.2180
     79  N        -79.9080   20.2140   16.4350 N.3   254  ASN254     -0.1225
     80  CA       -78.6540   19.9220   17.0970 C.3   254  ASN254      0.1785
     81  C        -78.6280   20.2570   18.5890 C.2   254  ASN254      0.2597
     82  O        -77.6100   20.0600   19.2370 O.2   254  ASN254     -0.2718
     83  CB       -77.5190   20.6280   16.3680 C.3   254  ASN254      0.1169
     84  CG       -77.3520   20.1210   14.9580 C.2   254  ASN254      0.2627
     85  OD1      -76.5900   19.1900   14.7230 O.2   254  ASN254     -0.2716
     86  ND2      -78.0790   20.7150   14.0110 N.am  254  ASN254     -0.0877
     87  N        -79.7280   20.7450   19.1550 N.am  255  VAL255     -0.1980
     88  CA       -79.6430   21.1960   20.5410 C.3   255  VAL255      0.1595
     89  C        -79.3440   20.0820   21.5420 C.2   255  VAL255      0.2287
     90  O        -78.3270   20.1430   22.2370 O.2   255  VAL255     -0.2864
     91  CB       -80.8430   22.0650   20.9890 C.3   255  VAL255      0.0276
     92  CG1      -80.8610   22.2190   22.5030 C.3   255  VAL255      0.0022
     93  CG2      -80.7590   23.4310   20.3450 C.3   255  VAL255      0.0022
     94  N        -75.9180   18.9380   21.2790 N.3   258  LEU258     -0.1231
     95  CA       -74.9950   20.0130   21.6630 C.3   258  LEU258      0.1693
     96  C        -74.9830   20.2590   23.1760 C.2   258  LEU258      0.2592
     97  O        -73.9440   20.5740   23.7430 O.2   258  LEU258     -0.2718
     98  CB       -75.2910   21.3150   20.9040 C.3   258  LEU258      0.0284
     99  CG       -75.0690   21.3270   19.3870 C.3   258  LEU258      0.0019
    100  CD1      -75.4670   22.6630   18.7850 C.3   258  LEU258      0.0001
    101  CD2      -73.6510   21.0110   19.0350 C.3   258  LEU258      0.0001
    102  N        -76.1270   20.1130   23.8370 N.am  259  THR259     -0.1953
    103  CA       -76.1650   20.3350   25.2770 C.3   259  THR259      0.1897
    104  C        -75.2420   19.3800   26.0280 C.2   259  THR259      0.2313
    105  O        -74.6350   19.7730   27.0170 O.2   259  THR259     -0.2863
    106  CB       -77.5820   20.2270   25.8380 C.3   259  THR259      0.1794
    107  OG1      -78.5040   20.8740   24.9490 O.3   259  THR259     -0.2208
    108  CG2      -77.6550   20.8550   27.2430 C.3   259  THR259      0.0378
    109  N        -71.2050   20.3750   24.3090 N.3   262  HIS262     -0.1241
    110  CA       -70.7370   21.6650   23.8060 C.3   262  HIS262      0.1621
    111  C        -69.3450   22.0880   24.3050 C.2   262  HIS262      0.2264
    112  O        -68.6690   22.8660   23.6390 O.2   262  HIS262     -0.2867
    113  CB       -71.7980   22.7660   23.9550 C.3   262  HIS262      0.0745
    114  CG       -71.5820   23.6750   25.1200 C.ar  262  HIS262      0.0817
    115  ND1      -71.9740   23.3490   26.4020 N.ar  262  HIS262     -0.2268
    116  CD2      -71.0370   24.9130   25.1940 C.ar  262  HIS262      0.1154
    117  CE1      -71.6670   24.3430   27.2170 C.ar  262  HIS262      0.1986
    118  NE2      -71.0970   25.3030   26.5090 N.ar  262  HIS262     -0.2212
    119  N        -66.8370   20.6360   22.0190 N.3   265  ILE265     -0.1231
    120  CA       -67.0470   21.2780   20.7190 C.3   265  ILE265      0.1692
    121  C        -66.4230   22.6640   20.6600 C.2   265  ILE265      0.2592
    122  O        -66.0480   23.1390   19.5800 O.2   265  ILE265     -0.2718
    123  CB       -68.5190   21.4130   20.3560 C.3   265  ILE265      0.0266
    124  CG1      -69.1260   20.0310   20.0870 C.3   265  ILE265      0.0019
    125  CG2      -68.6660   22.2920   19.1290 C.3   265  ILE265      0.0020
    126  CD1      -70.5990   20.0590   19.7240 C.3   265  ILE265      0.0001
    127  N        -66.3300   23.3090   21.8210 N.am  266  SER266     -0.1952
    128  CA       -65.6320   24.5780   21.9440 C.3   266  SER266      0.1924
    129  C        -64.1530   24.2910   21.9260 C.2   266  SER266      0.2314
    130  O        -63.4200   24.8230   21.0910 O.2   266  SER266     -0.2863
    131  CB       -66.0070   25.2830   23.2440 C.3   266  SER266      0.2116
    132  OG       -67.2830   25.8860   23.1440 O.3   266  SER266     -0.2180
    133  N        -63.0020   24.4340   18.4530 N.3   269  SER269     -0.1217
    134  CA       -62.8860   25.5900   17.5760 C.3   269  SER269      0.1889
    135  C        -62.0170   26.6770   18.2080 C.2   269  SER269      0.2288
    136  O        -61.9370   27.7960   17.7130 O.2   269  SER269     -0.2866
    137  CB       -64.2600   26.0990   17.1460 C.3   269  SER269      0.2089
    138  OG       -65.1590   26.0480   18.2300 O.3   269  SER269     -0.2183
    139  N        -61.8370   28.1100   10.0270 N.3   279  THR279     -0.1204
    140  CA       -62.3650   26.8800    9.4540 C.3   279  THR279      0.1979
    141  C        -63.8130   26.6500    9.9020 C.2   279  THR279      0.2460
    142  O        -64.2080   27.0780   10.9930 O.2   279  THR279     -0.2732
    143  CB       -61.4770   25.6680    9.8390 C.3   279  THR279      0.1783
    144  OG1      -61.6100   24.6250    8.8650 O.3   279  THR279     -0.2211
    145  CG2      -61.8470   25.1370   11.2210 C.3   279  THR279      0.0376
    146  N        -64.6190   25.9960    9.0460 N.am  280  PRO280     -0.2717
    147  CA       -66.0040   25.6860    9.4160 C.3   280  PRO280      0.1535
    148  C        -66.0640   24.4890   10.3620 C.2   280  PRO280      0.2599
    149  O        -65.1630   23.6430   10.3670 O.2   280  PRO280     -0.2715
    150  CB       -66.6720   25.3590    8.0750 C.3   280  PRO280      0.0310
    151  CG       -65.7110   25.8280    7.0200 C.3   280  PRO280      0.0237
    152  CD       -64.3550   25.6830    7.6340 C.3   280  PRO280      0.0939
    153  N        -67.1350   24.4300   11.1470 N.am  281  ASN281     -0.1959
    154  CA       -67.2480   23.5210   12.2810 C.3   281  ASN281      0.1819
    155  C        -68.0780   22.2700   11.9780 C.2   281  ASN281      0.2621
    156  O        -67.8600   21.2150   12.5750 O.2   281  ASN281     -0.2715
    157  CB       -67.9140   24.2740   13.4350 C.3   281  ASN281      0.1195
    158  CG       -67.4650   23.7830   14.7860 C.2   281  ASN281      0.2630
    159  OD1      -66.4400   23.1120   14.9110 O.2   281  ASN281     -0.2716
    160  ND2      -68.2310   24.1170   15.8130 N.am  281  ASN281     -0.0877
    161  N        -69.0340   22.3970   11.0590 N.am  282  ALA282     -0.1963
    162  CA       -70.0920   21.4110   10.9150 C.3   282  ALA282      0.1728
    163  C        -70.5400   21.2580    9.4720 C.2   282  ALA282      0.2616
    164  O        -70.5720   22.2300    8.7320 O.2   282  ALA282     -0.2715
    165  CB       -71.2700   21.8170   11.7650 C.3   282  ALA282      0.0334
    166  N        -70.8980   20.0360    9.0820 N.am  283  CYS283     -0.1954
    167  CA       -71.4870   19.8010    7.7710 C.3   283  CYS283      0.1843
    168  C        -72.9280   19.3940    7.9210 C.2   283  CYS283      0.2625
    169  O        -73.4620   19.3600    9.0200 O.2   283  CYS283     -0.2714
    170  CB       -70.7740   18.6780    7.0210 C.3   283  CYS283      0.0997
    171  SG       -69.0850   18.4080    7.4800 S.3   283  CYS283     -0.0797
    172  N        -73.5480   19.0530    6.8010 N.am  284  ILE284     -0.1977
    173  CA       -74.8920   18.4980    6.8310 C.3   284  ILE284      0.1596
    174  C        -75.0580   17.3070    5.9160 C.2   284  ILE284      0.2287
    175  O        -74.6660   17.3630    4.7530 O.2   284  ILE284     -0.2864
    176  CB       -75.9460   19.4920    6.3700 C.3   284  ILE284      0.0276
    177  CG1      -75.9230   20.7550    7.2370 C.3   284  ILE284      0.0022
    178  CG2      -77.3120   18.7800    6.3490 C.3   284  ILE284      0.0022
    179  CD1      -76.9920   21.7520    6.8410 C.3   284  ILE284      0.0001
    180  N        -76.1250   16.2100   11.3110 N.3   302  THR302     -0.1218
    181  CA       -75.1660   17.2990   11.3220 C.3   302  THR302      0.1862
    182  C        -73.8870   16.7320   11.9140 C.2   302  THR302      0.2287
    183  O        -73.8960   16.2150   13.0380 O.2   302  THR302     -0.2866
    184  CB       -75.6330   18.4990   12.1810 C.3   302  THR302      0.1770
    185  OG1      -76.6550   19.2280   11.4980 O.3   302  THR302     -0.2211
    186  CG2      -74.4820   19.4590   12.4330 C.3   302  THR302      0.0375
    187  N        -70.0230   17.3340   13.3650 N.3   304  VAL304     -0.1245
    188  CA       -69.4650   18.4420   14.1500 C.3   304  VAL304      0.1561
    189  C        -68.1110   18.1050   14.7640 C.2   304  VAL304      0.2260
    190  O        -67.9860   17.1050   15.4660 O.2   304  VAL304     -0.2867
    191  CB       -70.4180   18.8410   15.3090 C.3   304  VAL304      0.0252
    192  CG1      -69.7930   19.9360   16.1980 C.3   304  VAL304      0.0019
    193  CG2      -71.7850   19.2670   14.7640 C.3   304  VAL304      0.0019
@<TRIPOS>BOND
     1    57    58    2
     2    57    56    1
     3    59    56    1
     4    59    60    1
     5    61    60    1
     6    61    62    1
     7    52    53    2
     8    52    51    1
     9    63    62    1
    10    56    55    1
    11    50    51    1
    12    51    54    1
    13    39    38    1
    14    39    40    1
    15    41    40    2
    16    40    42   am
    17    26    24    1
    18    42    43    1
    19    25    24    1
    20    48    47    2
    21    24    23    2
    22    43    44    1
    23    43    46    1
    24    47    46    1
    25    47    49   am
    26    44    45    2
    27    23    22    1
    28    22    21    1
    29    27    28    1
    30    28    29    1
    31    28    31    1
    32    30    29    2
    33    20    21    1
    34    20    17    1
    35     6     5    1
    36     3     4    2
    37     3     2    1
    38    31    32    1
    39    18    19    2
    40    18    17    1
    41   175   174    2
    42    17    16    1
    43     5     2    1
    44     5     7    1
    45     2     1    1
    46    16    10   am
    47    32    33    1
    48   174   173    1
    49   178   176    1
    50   176   173    1
    51   176   177    1
    52     8     9    1
    53    33    34    1
    54    10    11    2
    55    10     9    1
    56   172   173    1
    57   172   168   am
    58   179   177    1
    59   151   152    1
    60   151   150    1
    61   170   171    1
    62   170   167    1
    63     9    12    1
    64   152   146    1
    65   167   168    1
    66   167   166    1
    67   168   169    2
    68    12    13    1
    69    34    35    2
    70   150   147    1
    71   164   163    2
    72   144   143    1
    73    15    14    1
    74    36    35    1
    75    13    14    1
    76   146   147    1
    77   146   141   am
    78   166   163   am
    79    35    37    1
    80   147   148    1
    81   140   143    1
    82   140   141    1
    83   140   139    1
    84   163   162    1
    85   143   145    1
    86   141   142    2
    87    71    70    2
    88   148   149    2
    89   148   153   am
    90   162   161    1
    91   162   165    1
    92    70    69    1
    93    70    72   am
    94   161   155   am
    95    69    68    1
    96   153   154    1
    97   180   181    1
    98   181   182    1
    99   181   184    1
   100   185   184    1
   101   182   183    2
   102   155   154    1
   103   155   156    2
   104    64    65    1
   105   184   186    1
   106   154   157    1
   107    68    65    1
   108    65    66    1
   109   187   188    1
   110   157   158    1
   111    86    84   am
   112   188   189    1
   113   188   191    1
   114    66    73   am
   115    66    67    2
   116    85    84    2
   117   189   190    2
   118   193   191    1
   119   158   159    2
   120   158   160   am
   121    73    74    1
   122    84    83    1
   123   191   192    1
   124    74    75    1
   125    74    77    1
   126    83    80    1
   127    79    80    1
   128    78    77    1
   129    75    76    2
   130    80    81    1
   131   137   134    1
   132   137   138    1
   133   134   135    1
   134   134   133    1
   135   136   135    2
   136    81    87   am
   137    81    82    2
   138   100    99    1
   139   101    99    1
   140   125   123    1
   141    87    88    1
   142    99    98    1
   143   122   121    2
   144   126   124    1
   145   124   123    1
   146    93    91    1
   147   123   120    1
   148    88    91    1
   149    88    89    1
   150   121   120    1
   151   121   127   am
   152   120   119    1
   153    98    95    1
   154    91    92    1
   155   130   129    2
   156    94    95    1
   157    89    90    2
   158    95    96    1
   159   127   128    1
   160   129   128    1
   161   128   131    1
   162   132   131    1
   163    96    97    2
   164    96   102   am
   165   112   111    2
   166   110   113    1
   167   110   111    1
   168   110   109    1
   169   102   103    1
   170   113   114    1
   171   107   106    1
   172   114   116   ar
   173   114   115   ar
   174   116   118   ar
   175   103   106    1
   176   103   104    1
   177   106   108    1
   178   104   105    2
   179   115   117   ar
   180   118   117   ar
