@<TRIPOS>MOLECULE
tmp/3pcuA01.pdb
 188 179 0 0 0
SMALL
GASTEIGER

@<TRIPOS>ATOM
      1  N        -25.8640    0.6120    7.3400 N.3    18  VAL18      -0.1245
      2  CA       -25.3500    0.0820    6.0740 C.3    18  VAL18       0.1561
      3  C        -26.0900    0.6970    4.8790 C.2    18  VAL18       0.2260
      4  O        -25.4670    1.0690    3.8780 O.2    18  VAL18      -0.2867
      5  CB       -25.4120   -1.4660    6.0230 C.3    18  VAL18       0.0252
      6  CG1      -25.2640   -1.9700    4.5950 C.3    18  VAL18       0.0019
      7  CG2      -24.3380   -2.0750    6.9150 C.3    18  VAL18       0.0019
      8  N        -25.0260    4.2660    4.5200 N.3    21  ILE21      -0.1231
      9  CA       -23.6830    4.2250    3.9600 C.3    21  ILE21       0.1692
     10  C        -23.7130    3.9550    2.4490 C.2    21  ILE21       0.2592
     11  O        -23.0230    4.6310    1.6760 O.2    21  ILE21      -0.2718
     12  CB       -22.8150    3.1790    4.6890 C.3    21  ILE21       0.0266
     13  CG1      -22.3440    3.7230    6.0440 C.3    21  ILE21       0.0019
     14  CG2      -21.6430    2.8170    3.8460 C.3    21  ILE21       0.0020
     15  CD1      -21.9030    2.6440    7.0400 C.3    21  ILE21       0.0001
     16  N        -24.5180    2.9770    2.0360 N.am   22  CYS22      -0.1970
     17  CA       -24.6790    2.6500    0.6210 C.3    22  CYS22       0.1712
     18  C        -25.3300    3.7840   -0.1680 C.2    22  CYS22       0.2296
     19  O        -24.9720    4.0270   -1.3200 O.2    22  CYS22      -0.2864
     20  CB       -25.4680    1.3530    0.4510 C.3    22  CYS22       0.0983
     21  SG       -24.5090   -0.1110    0.9000 S.3    22  CYS22      -0.0798
     22  N        -25.0940    6.9780    0.6840 N.3    24  ALA24      -0.1231
     23  CA       -24.0160    7.9600    0.6450 C.3    24  ALA24       0.1694
     24  C        -22.9900    7.6210   -0.4370 C.2    24  ALA24       0.2591
     25  O        -22.5330    8.5090   -1.1670 O.2    24  ALA24      -0.2718
     26  CB       -23.3460    8.0500    2.0030 C.3    24  ALA24       0.0304
     27  N        -22.6360    6.3380   -0.5330 N.am   25  ALA25      -0.1980
     28  CA       -21.7020    5.8520   -1.5480 C.3    25  ALA25       0.1597
     29  C        -22.1720    6.1950   -2.9600 C.2    25  ALA25       0.2287
     30  O        -21.4080    6.7420   -3.7480 O.2    25  ALA25      -0.2864
     31  CB       -21.5020    4.3510   -1.4180 C.3    25  ALA25       0.0319
     32  N        -21.9610    9.8860   -3.6700 N.3    28  GLN28      -0.1245
     33  CA       -20.5790   10.3300   -3.7920 C.3    28  GLN28       0.1566
     34  C        -19.8910    9.8640   -5.0610 C.2    28  GLN28       0.2260
     35  O        -18.9150   10.4710   -5.4890 O.2    28  GLN28      -0.2867
     36  CB       -19.7630    9.9380   -2.5540 C.3    28  GLN28       0.0367
     37  CG       -20.0640   10.7860   -1.3290 C.3    28  GLN28       0.0905
     38  CD       -20.1570   12.2710   -1.6430 C.2    28  GLN28       0.2608
     39  OE1      -21.2450   12.7940   -1.8540 O.2    28  GLN28      -0.2717
     40  NE2      -19.0160   12.9530   -1.6670 N.am   28  GLN28      -0.0878
     41  N        -12.6580    3.6450   -7.2060 N.3    58  TRP58      -0.1227
     42  CA       -13.7760    4.3090   -6.5320 C.3    58  TRP58       0.1737
     43  C        -13.8810    4.0350   -5.0270 C.2    58  TRP58       0.2595
     44  O        -14.0660    4.9610   -4.2480 O.2    58  TRP58      -0.2718
     45  CB       -15.1100    4.0260   -7.2390 C.3    58  TRP58       0.0564
     46  CG       -15.6560    2.6500   -7.0170 C.ar   58  TRP58       0.0003
     47  CD1      -15.4470    1.5520   -7.7930 C.ar   58  TRP58       0.0946
     48  CD2      -16.5120    2.2320   -5.9500 C.ar   58  TRP58       0.0152
     49  NE1      -16.1160    0.4730   -7.2750 N.ar   58  TRP58      -0.2442
     50  CE2      -16.7760    0.8610   -6.1410 C.ar   58  TRP58       0.0810
     51  CE3      -17.0740    2.8820   -4.8450 C.ar   58  TRP58       0.0012
     52  CZ2      -17.5830    0.1260   -5.2700 C.ar   58  TRP58       0.0191
     53  CZ3      -17.8720    2.1500   -3.9740 C.ar   58  TRP58       0.0001
     54  CH2      -18.1170    0.7860   -4.1950 C.ar   58  TRP58       0.0015
     55  N        -13.7570    2.7750   -4.6170 N.am   59  ASN59      -0.1974
     56  CA       -13.9580    2.4480   -3.2010 C.3    59  ASN59       0.1688
     57  C        -12.8820    3.0370   -2.2970 C.2    59  ASN59       0.2292
     58  O        -13.2040    3.6660   -1.2900 O.2    59  ASN59      -0.2864
     59  CB       -14.1760    0.9410   -2.9550 C.3    59  ASN59       0.1181
     60  CG       -13.1700    0.0650   -3.6750 C.2    59  ASN59       0.2629
     61  OD1      -13.0090    0.1510   -4.8920 O.2    59  ASN59      -0.2716
     62  ND2      -12.5100   -0.8180   -2.9260 N.am   59  ASN59      -0.0877
     63  N        -13.3850    6.8370   -2.2170 N.3    62  LEU62      -0.1231
     64  CA       -14.4810    7.2370   -1.3460 C.3    62  LEU62       0.1693
     65  C        -14.1120    7.0290    0.1210 C.2    62  LEU62       0.2591
     66  O        -14.4290    7.8670    0.9720 O.2    62  LEU62      -0.2718
     67  CB       -15.7780    6.4930   -1.7030 C.3    62  LEU62       0.0284
     68  CG       -16.5030    6.7930   -3.0250 C.3    62  LEU62       0.0019
     69  CD1      -17.9300    6.2470   -2.9780 C.3    62  LEU62       0.0001
     70  CD2      -16.5070    8.2760   -3.3700 C.3    62  LEU62       0.0001
     71  N        -13.4310    5.9220    0.4090 N.am   63  ILE63      -0.1980
     72  CA       -12.9970    5.6060    1.7750 C.3    63  ILE63       0.1595
     73  C        -12.0130    6.6440    2.3260 C.2    63  ILE63       0.2287
     74  O        -12.1600    7.0930    3.4570 O.2    63  ILE63      -0.2864
     75  CB       -12.4280    4.1620    1.8920 C.3    63  ILE63       0.0276
     76  CG1      -13.5590    3.1370    1.7290 C.3    63  ILE63       0.0022
     77  CG2      -11.7660    3.9450    3.2470 C.3    63  ILE63       0.0022
     78  CD1      -13.0870    1.7340    1.3790 C.3    63  ILE63       0.0001
     79  N        -11.7560    9.7680    1.4040 N.3    65  SER65      -0.1202
     80  CA       -12.5490   10.9780    1.6070 C.3    65  SER65       0.2020
     81  C        -13.3760   10.9910    2.8870 C.2    65  SER65       0.2618
     82  O        -13.3430   11.9710    3.6240 O.2    65  SER65      -0.2717
     83  CB       -13.4680   11.2180    0.4130 C.3    65  SER65       0.2103
     84  OG       -12.7000   11.5820   -0.7100 O.3    65  SER65      -0.2182
     85  N        -14.1400    9.9310    3.1480 N.am   66  PHE66      -0.1975
     86  CA       -14.9560    9.9320    4.3620 C.3    66  PHE66       0.1639
     87  C        -14.1040    9.7640    5.6190 C.2    66  PHE66       0.2290
     88  O        -14.4660   10.2540    6.6870 O.2    66  PHE66      -0.2864
     89  CB       -16.1390    8.9500    4.2910 C.3    66  PHE66       0.0560
     90  CG       -15.8060    7.5150    4.6330 C.ar   66  PHE66      -0.0200
     91  CD1      -15.5300    7.1330    5.9370 C.ar   66  PHE66      -0.0042
     92  CD2      -15.8320    6.5370    3.6560 C.ar   66  PHE66      -0.0042
     93  CE1      -15.2460    5.8110    6.2490 C.ar   66  PHE66      -0.0003
     94  CE2      -15.5590    5.1990    3.9660 C.ar   66  PHE66      -0.0003
     95  CZ       -15.2630    4.8450    5.2610 C.ar   66  PHE66      -0.0000
     96  N        -12.7200   13.2270    6.2640 N.3    69  ARG69      -0.1245
     97  CA       -13.8630   14.0250    6.7020 C.3    69  ARG69       0.1563
     98  C        -14.1880   13.7850    8.1810 C.2    69  ARG69       0.2260
     99  O        -14.7330   14.6620    8.8490 O.2    69  ARG69      -0.2867
    100  CB       -15.0920   13.7050    5.8420 C.3    69  ARG69       0.0307
    101  CG       -16.2220   14.7290    5.9330 C.3    69  ARG69       0.0489
    102  CD       -17.4810   14.2590    5.2120 C.3    69  ARG69       0.2205
    103  NE       -17.2500   14.0220    3.7880 N.pl3  69  ARG69      -0.0865
    104  CZ       -17.4370   12.8590    3.1700 C.cat  69  ARG69       0.5346
    105  NH1      -17.8780   11.8000    3.8370 N.pl3  69  ARG69       0.1354
    106  NH2      -17.1910   12.7620    1.8720 N.pl3  69  ARG69       0.1354
    107  N        -18.0110    8.0180   11.8120 N.3    77  ILE77      -0.1245
    108  CA       -17.7180    8.5780   10.5010 C.3    77  ILE77       0.1561
    109  C        -18.7950    9.5650   10.0680 C.2    77  ILE77       0.2260
    110  O        -19.9700    9.4120   10.4080 O.2    77  ILE77      -0.2867
    111  CB       -17.4920    7.4990    9.4070 C.3    77  ILE77       0.0252
    112  CG1      -18.7720    6.6960    9.1530 C.3    77  ILE77       0.0019
    113  CG2      -16.2940    6.6070    9.7760 C.3    77  ILE77       0.0019
    114  CD1      -18.7850    5.9270    7.8440 C.3    77  ILE77       0.0001
    115  N        -20.7440   10.9000    6.9840 N.3    79  LEU79      -0.1231
    116  CA       -21.1380   10.6830    5.6000 C.3    79  LEU79       0.1693
    117  C        -21.3970   12.0340    4.9270 C.2    79  LEU79       0.2591
    118  O        -21.7300   13.0150    5.5980 O.2    79  LEU79      -0.2718
    119  CB       -22.3780    9.7820    5.5200 C.3    79  LEU79       0.0284
    120  CG       -22.3640    8.4220    6.2320 C.3    79  LEU79       0.0019
    121  CD1      -23.7000    7.7070    6.0500 C.3    79  LEU79       0.0001
    122  CD2      -21.2260    7.5360    5.7450 C.3    79  LEU79       0.0001
    123  N        -21.2340   12.0830    3.6080 N.am   80  ALA80      -0.1980
    124  CA       -21.4640   13.3110    2.8320 C.3    80  ALA80       0.1597
    125  C        -22.9360   13.7060    2.7940 C.2    80  ALA80       0.2287
    126  O        -23.2740   14.8280    2.4140 O.2    80  ALA80      -0.2864
    127  CB       -20.9330   13.1530    1.4260 C.3    80  ALA80       0.0319
    128  N        -21.3190   -4.7460   11.1790 N.3    95  VAL95      -0.1245
    129  CA       -20.1680   -4.2910   10.3940 C.3    95  VAL95       0.1561
    130  C        -19.0900   -3.6330   11.2600 C.2    95  VAL95       0.2260
    131  O        -18.3310   -2.7860   10.7890 O.2    95  VAL95      -0.2867
    132  CB       -20.5870   -3.3870    9.1960 C.3    95  VAL95       0.0252
    133  CG1      -21.3990   -4.1990    8.1890 C.3    95  VAL95       0.0019
    134  CG2      -21.3660   -2.1430    9.6650 C.3    95  VAL95       0.0019
    135  N        -14.8870   -4.1000   10.2930 N.3    98  ILE98      -0.1231
    136  CA       -14.3780   -3.2270    9.2250 C.3    98  ILE98       0.1692
    137  C        -14.4810   -1.7430    9.6030 C.2    98  ILE98       0.2592
    138  O        -13.6080   -0.9470    9.2570 O.2    98  ILE98      -0.2718
    139  CB       -15.0290   -3.5350    7.8390 C.3    98  ILE98       0.0266
    140  CG1      -14.3420   -2.7450    6.7130 C.3    98  ILE98       0.0019
    141  CG2      -16.5270   -3.2790    7.8620 C.3    98  ILE98       0.0020
    142  CD1      -12.8390   -3.0210    6.5880 C.3    98  ILE98       0.0001
    143  N        -15.5320   -1.3830   10.3360 N.am   99  PHE99      -0.1976
    144  CA       -15.6800   -0.0200   10.8320 C.3    99  PHE99       0.1639
    145  C        -14.5070    0.3580   11.7320 C.2    99  PHE99       0.2290
    146  O        -13.9370    1.4390   11.5850 O.2    99  PHE99      -0.2864
    147  CB       -17.0000    0.1480   11.5820 C.3    99  PHE99       0.0560
    148  CG       -17.4410    1.5800   11.7160 C.ar   99  PHE99      -0.0200
    149  CD1      -18.1740    2.1930   10.7000 C.ar   99  PHE99      -0.0042
    150  CD2      -17.1260    2.3160   12.8490 C.ar   99  PHE99      -0.0042
    151  CE1      -18.5910    3.5140   10.8230 C.ar   99  PHE99      -0.0003
    152  CE2      -17.5350    3.6420   12.9760 C.ar   99  PHE99      -0.0003
    153  CZ       -18.2680    4.2390   11.9630 C.ar   99  PHE99      -0.0000
    154  N        -14.2870   -3.7020    2.3360 N.3   185  CYS185     -0.1235
    155  CA       -15.5280   -2.9580    2.1100 C.3   185  CYS185      0.1677
    156  C        -16.2700   -3.4600    0.8750 C.2   185  CYS185      0.2270
    157  O        -17.4930   -3.5930    0.8940 O.2   185  CYS185     -0.2867
    158  CB       -15.2540   -1.4600    2.0160 C.3   185  CYS185      0.0956
    159  SG       -14.8740   -0.7340    3.6210 S.3   185  CYS185     -0.0801
    160  N        -18.0070   -6.7780    1.6170 N.3   188  HIS188     -0.1226
    161  CA       -19.2680   -6.5210    2.3090 C.3   188  HIS188      0.1752
    162  C        -20.3510   -6.0640    1.3350 C.2   188  HIS188      0.2595
    163  O        -21.4890   -6.5220    1.4160 O.2   188  HIS188     -0.2718
    164  CB       -19.0960   -5.4720    3.4080 C.3   188  HIS188      0.0759
    165  CG       -18.4500   -5.9940    4.6550 C.ar  188  HIS188      0.0818
    166  ND1      -19.1760   -6.4550    5.7310 N.ar  188  HIS188     -0.2268
    167  CD2      -17.1480   -6.1110    5.0030 C.ar  188  HIS188      0.1154
    168  CE1      -18.3490   -6.8410    6.6860 C.ar  188  HIS188      0.1986
    169  NE2      -17.1120   -6.6420    6.2700 N.ar  188  HIS188     -0.2212
    170  N        -19.9900   -5.1630    0.4220 N.am  189  LEU189     -0.1980
    171  CA       -20.9300   -4.6540   -0.5820 C.3   189  LEU189      0.1596
    172  C        -21.4900   -5.7730   -1.4520 C.2   189  LEU189      0.2287
    173  O        -22.6950   -5.8340   -1.6810 O.2   189  LEU189     -0.2864
    174  CB       -20.2810   -3.5790   -1.4530 C.3   189  LEU189      0.0297
    175  CG       -20.0650   -2.2040   -0.8110 C.3   189  LEU189      0.0022
    176  CD1      -19.1120   -1.3630   -1.6530 C.3   189  LEU189      0.0001
    177  CD2      -21.3920   -1.4670   -0.5850 C.3   189  LEU189      0.0001
    178  N        -23.9820   -7.6480    0.6710 N.3   192  PHE192     -0.1241
    179  CA       -25.2460   -6.9050    0.7980 C.3   192  PHE192      0.1605
    180  C        -26.0880   -7.0570   -0.4690 C.2   192  PHE192      0.2264
    181  O        -27.3120   -7.2140   -0.3980 O.2   192  PHE192     -0.2867
    182  CB       -25.0190   -5.4130    1.0940 C.3   192  PHE192      0.0534
    183  CG       -24.1540   -5.1370    2.3020 C.ar  192  PHE192     -0.0203
    184  CD1      -23.3070   -4.0340    2.3150 C.ar  192  PHE192     -0.0042
    185  CD2      -24.1810   -5.9710    3.4160 C.ar  192  PHE192     -0.0042
    186  CE1      -22.4960   -3.7630    3.4200 C.ar  192  PHE192     -0.0003
    187  CE2      -23.3740   -5.7120    4.5260 C.ar  192  PHE192     -0.0003
    188  CZ       -22.5320   -4.6050    4.5280 C.ar  192  PHE192     -0.0000
@<TRIPOS>BOND
     1    47    49   ar
     2    47    46   ar
     3    49    50   ar
     4    45    46    1
     5    45    42    1
     6    41    42    1
     7    46    48   ar
     8    42    43    1
     9    50    48   ar
    10    50    52   ar
    11    48    51   ar
    12    35    34    2
    13    52    54   ar
    14    34    33    1
    15    43    55   am
    16    43    44    2
    17    61    60    2
    18    51    53   ar
    19    55    56    1
    20    54    53   ar
    21    33    32    1
    22    33    36    1
    23    30    29    2
    24    60    59    1
    25    60    62   am
    26    70    68    1
    27    56    59    1
    28    56    57    1
    29    68    69    1
    30    68    67    1
    31    29    28    1
    32    36    37    1
    33    57    58    2
    34    63    64    1
    35    39    38    2
    36    67    64    1
    37   173   172    2
    38    40    38   am
    39   176   175    1
    40    38    37    1
    41    28    31    1
    42    28    27    1
    43   174   175    1
    44   174   171    1
    45   172   171    1
    46    64    65    1
    47    19    18    2
    48    25    24    2
    49   175   177    1
    50    84    83    1
    51   171   170    1
    52    27    24   am
    53   180   181    2
    54   180   179    1
    55    24    23    1
    56    18    17    1
    57    65    71   am
    58    65    66    2
    59    71    72    1
    60    83    80    1
    61   170   162   am
    62    20    17    1
    63    20    21    1
    64    17    16    1
    65    23    22    1
    66    23    26    1
    67   178   179    1
    68   179   182    1
    69   156   157    2
    70   156   155    1
    71   182   183    1
    72   162   163    2
    73   162   161    1
    74    78    76    1
    75    79    80    1
    76   127   124    1
    77    80    81    1
    78   160   161    1
    79    11    10    2
    80    76    75    1
    81    72    75    1
    82    72    73    1
    83   106   104    1
    84    75    77    1
    85   158   155    1
    86   158   159    1
    87    16    10   am
    88   155   154    1
    89   183   184   ar
    90   183   185   ar
    91   161   164    1
    92   184   186   ar
    93    73    74    2
    94   126   125    2
    95    10     9    1
    96   125   124    1
    97   124   123    1
    98    81    85   am
    99    81    82    2
   100    85    86    1
   101   104   103    2
   102   104   105    1
   103   164   165    1
   104   185   187   ar
   105   186   188   ar
   106   123   117   am
   107    92    94   ar
   108    92    90   ar
   109   103   102    1
   110    14    12    1
   111     4     3    2
   112     9     8    1
   113     9    12    1
   114    94    95   ar
   115    89    86    1
   116    89    90    1
   117    86    87    1
   118   187   188   ar
   119     6     5    1
   120    90    91   ar
   121   165   167   ar
   122   165   166   ar
   123    12    13    1
   124     3     2    1
   125   117   118    2
   126   117   116    1
   127   167   169   ar
   128   102   101    1
   129    95    93   ar
   130   119   116    1
   131   119   120    1
   132   116   115    1
   133    87    88    2
   134   166   168   ar
   135   122   120    1
   136   100   101    1
   137   100    97    1
   138    91    93   ar
   139     5     2    1
   140     5     7    1
   141    13    15    1
   142   121   120    1
   143     2     1    1
   144    96    97    1
   145   169   168   ar
   146   142   140    1
   147    97    98    1
   148   140   139    1
   149   139   141    1
   150   139   136    1
   151   114   112    1
   152    98    99    2
   153   133   132    1
   154   112   111    1
   155   132   134    1
   156   132   129    1
   157   136   137    1
   158   136   135    1
   159   138   137    2
   160   111   113    1
   161   111   108    1
   162   137   143   am
   163   109   110    2
   164   109   108    1
   165   143   144    1
   166   129   128    1
   167   129   130    1
   168   108   107    1
   169   149   151   ar
   170   149   148   ar
   171   131   130    2
   172   151   153   ar
   173   144   147    1
   174   144   145    1
   175   147   148    1
   176   146   145    2
   177   148   150   ar
   178   153   152   ar
   179   150   152   ar
