@<TRIPOS>MOLECULE
tmp/3pcvA03.pdb
 79 72 0 0 0
SMALL
GASTEIGER

@<TRIPOS>ATOM
      1  N         13.8600   63.1930    3.2210 N.3     7  LEU7       -0.1245
      2  CA        15.0180   62.3080    3.0670 C.3     7  LEU7        0.1561
      3  C         15.8550   62.3310    4.3580 C.2     7  LEU7        0.2260
      4  O         16.4200   61.3050    4.7430 O.2     7  LEU7       -0.2867
      5  CB        15.9440   62.7650    1.9320 C.3     7  LEU7        0.0270
      6  CG        15.3840   62.7570    0.5020 C.3     7  LEU7        0.0019
      7  CD1       16.4150   63.3970   -0.4370 C.3     7  LEU7        0.0001
      8  CD2       15.0690   61.3320    0.1000 C.3     7  LEU7        0.0001
      9  N         14.0360   60.1170    6.7320 N.3    10  ALA10      -0.1231
     10  CA        14.2340   58.7080    6.3920 C.3    10  ALA10       0.1694
     11  C         15.6310   58.1960    6.8390 C.2    10  ALA10       0.2591
     12  O         15.7460   57.0880    7.3900 O.2    10  ALA10      -0.2718
     13  CB        14.0540   58.4830    4.8580 C.3    10  ALA10       0.0304
     14  N         16.6750   58.9900    6.5980 N.am   11  VAL11      -0.1980
     15  CA        18.0160   58.6040    7.0500 C.3    11  VAL11       0.1595
     16  C         18.0580   58.5860    8.6010 C.2    11  VAL11       0.2287
     17  O         18.7290   57.7330    9.2190 O.2    11  VAL11      -0.2864
     18  CB        19.0920   59.5150    6.4540 C.3    11  VAL11       0.0276
     19  CG1       20.5050   59.2410    7.1000 C.3    11  VAL11       0.0022
     20  CG2       19.1470   59.3390    4.9150 C.3    11  VAL11       0.0022
     21  N         15.5190   57.8280   10.5950 N.3    13  LEU13      -0.1231
     22  CA        14.8530   56.6050   11.0330 C.3    13  LEU13       0.1693
     23  C         15.7410   55.3710   10.8090 C.2    13  LEU13       0.2591
     24  O         15.7710   54.4510   11.6460 O.2    13  LEU13      -0.2718
     25  CB        13.5020   56.4190   10.3290 C.3    13  LEU13       0.0284
     26  CG        12.6670   55.2270   10.8530 C.3    13  LEU13       0.0019
     27  CD1       12.3230   55.3930   12.3370 C.3    13  LEU13       0.0001
     28  CD2       11.3810   55.0740   10.0210 C.3    13  LEU13       0.0001
     29  N         16.4470   55.3370    9.6880 N.am   14  LEU14      -0.1980
     30  CA        17.3620   54.2440    9.4330 C.3    14  LEU14       0.1596
     31  C         18.4230   54.1890   10.5380 C.2    14  LEU14       0.2287
     32  O         18.8080   53.0980   10.9830 O.2    14  LEU14      -0.2864
     33  CB        18.0540   54.4480    8.0860 C.3    14  LEU14       0.0297
     34  CG        19.0290   53.3310    7.7020 C.3    14  LEU14       0.0022
     35  CD1       18.3090   51.9780    7.6430 C.3    14  LEU14       0.0001
     36  CD2       19.6950   53.6400    6.3620 C.3    14  LEU14       0.0001
     37  N         16.9260   52.6470   13.6270 N.3    17  LEU17      -0.1245
     38  CA        16.8160   51.1930   13.4760 C.3    17  LEU17       0.1561
     39  C         18.1690   50.5140   13.6660 C.2    17  LEU17       0.2260
     40  O         18.2530   49.4340   14.2610 O.2    17  LEU17      -0.2867
     41  CB        16.2690   50.8320   12.0910 C.3    17  LEU17       0.0270
     42  CG        14.7910   51.2150   11.9330 C.3    17  LEU17       0.0019
     43  CD1       14.3580   51.0630   10.4430 C.3    17  LEU17       0.0001
     44  CD2       13.9190   50.3740   12.8360 C.3    17  LEU17       0.0001
     45  N         22.2990   71.1550    1.3310 N.3    75  HIS75      -0.1241
     46  CA        21.5610   70.4500    0.3000 C.3    75  HIS75       0.1621
     47  C         21.0140   69.1580    0.8940 C.2    75  HIS75       0.2264
     48  O         21.7830   68.3750    1.4710 O.2    75  HIS75      -0.2867
     49  CB        22.5080   70.0970   -0.8620 C.3    75  HIS75       0.0745
     50  CG        21.8580   69.3490   -1.9930 C.ar   75  HIS75       0.0817
     51  ND1       21.3000   69.9870   -3.0920 N.ar   75  HIS75      -0.2268
     52  CD2       21.7220   68.0190   -2.2250 C.ar   75  HIS75       0.1154
     53  CE1       20.8190   69.0790   -3.9270 C.ar   75  HIS75       0.1986
     54  NE2       21.0630   67.8780   -3.4270 N.ar   75  HIS75      -0.2212
     55  N         19.6860   66.2640   -0.4450 N.3    77  GLY77      -0.1225
     56  CA        20.1480   65.0230   -1.0610 C.3    77  GLY77       0.1811
     57  C         21.5730   64.6820   -0.6900 C.2    77  GLY77       0.2280
     58  O         21.8740   63.5170   -0.3580 O.2    77  GLY77      -0.2866
     59  N         21.7530   63.6360    3.0160 N.3    80  ALA80      -0.1231
     60  CA        21.1960   62.3000    3.1200 C.3    80  ALA80       0.1694
     61  C         22.1460   61.2130    2.6460 C.2    80  ALA80       0.2591
     62  O         22.2480   60.1600    3.3020 O.2    80  ALA80      -0.2718
     63  CB        19.8190   62.1930    2.3890 C.3    80  ALA80       0.0304
     64  N         22.8230   61.4470    1.5180 N.am   81  LEU81      -0.1980
     65  CA        23.7860   60.4920    0.9910 C.3    81  LEU81       0.1596
     66  C         24.9760   60.3220    1.9250 C.2    81  LEU81       0.2287
     67  O         25.4080   59.2010    2.1800 O.2    81  LEU81      -0.2864
     68  CB        24.2900   60.9140   -0.4030 C.3    81  LEU81       0.0297
     69  CG        23.3160   60.6730   -1.5600 C.3    81  LEU81       0.0022
     70  CD1       23.9410   61.0800   -2.8910 C.3    81  LEU81       0.0001
     71  CD2       22.8790   59.2170   -1.5940 C.3    81  LEU81       0.0001
     72  N         23.8370   58.2580    4.8150 N.3    84  LEU84      -0.1245
     73  CA        23.7730   56.8340    4.4910 C.3    84  LEU84       0.1561
     74  C         25.1540   56.2020    4.5220 C.2    84  LEU84       0.2260
     75  O         25.3130   55.0880    5.0400 O.2    84  LEU84      -0.2867
     76  CB        23.1560   56.5870    3.0990 C.3    84  LEU84       0.0270
     77  CG        21.6560   56.8010    2.9280 C.3    84  LEU84       0.0019
     78  CD1       21.2830   56.5290    1.4620 C.3    84  LEU84       0.0001
     79  CD2       20.8950   55.8790    3.8550 C.3    84  LEU84       0.0001
@<TRIPOS>BOND
     1    53    54   ar
     2    53    51   ar
     3    54    52   ar
     4    51    50   ar
     5    70    69    1
     6    52    50   ar
     7    50    49    1
     8    71    69    1
     9    69    68    1
    10    56    57    1
    11    56    55    1
    12    49    46    1
    13    57    58    2
    14     7     6    1
    15    68    65    1
    16     8     6    1
    17    46    47    1
    18    46    45    1
    19     6     5    1
    20    47    48    2
    21    65    64    1
    22    65    66    1
    23    78    77    1
    24    64    61   am
    25    66    67    2
    26     5     2    1
    27    63    60    1
    28    61    60    1
    29    61    62    2
    30    77    76    1
    31    77    79    1
    32    59    60    1
    33     2     1    1
    34     2     3    1
    35    76    73    1
    36     3     4    2
    37    73    74    1
    38    73    72    1
    39    74    75    2
    40    13    10    1
    41    20    18    1
    42    36    34    1
    43    10     9    1
    44    10    11    1
    45    18    15    1
    46    18    19    1
    47    14    11   am
    48    14    15    1
    49    11    12    2
    50    15    16    1
    51    35    34    1
    52    34    33    1
    53    33    30    1
    54    16    17    2
    55    30    29    1
    56    30    31    1
    57    29    23   am
    58    28    26    1
    59    25    26    1
    60    25    22    1
    61    43    42    1
    62    31    32    2
    63    21    22    1
    64    23    22    1
    65    23    24    2
    66    26    27    1
    67    42    41    1
    68    42    44    1
    69    41    38    1
    70    38    37    1
    71    38    39    1
    72    39    40    2
