@<TRIPOS>MOLECULE
tmp/3pcwA00.pdb
 102 94 0 0 0
SMALL
GASTEIGER

@<TRIPOS>ATOM
      1  N          5.3060   -1.9550    9.8220 N.3    35  ASP35      -0.1239
      2  CA         4.9810   -0.5680    9.5340 C.3    35  ASP35       0.1674
      3  C          6.2280    0.3080    9.5780 C.2    35  ASP35       0.2266
      4  O          6.6760    0.6860   10.6350 O.2    35  ASP35      -0.2867
      5  CB         3.9590   -0.0700   10.5570 C.3    35  ASP35       0.1410
      6  CG         3.5170    1.3620   10.3910 C.2    35  ASP35       0.3668
      7  OD1        3.8290    1.9490    9.3230 O.co2  35  ASP35      -0.2456
      8  OD2        2.8450    1.9040   11.3150 O.co2  35  ASP35      -0.2456
      9  N          6.3990    3.2970    8.9650 N.3    37  GLY37      -0.1210
     10  CA         6.0020    4.6050    9.4330 C.3    37  GLY37       0.1956
     11  C          5.7080    4.7300   10.9110 C.2    37  GLY37       0.2612
     12  O          5.2430    5.8160   11.3050 O.2    37  GLY37      -0.2717
     13  N          5.9910    3.7280   11.7160 N.am   38  SER38      -0.1952
     14  CA         5.8800    3.8750   13.1730 C.3    38  SER38       0.1924
     15  C          6.9220    2.9820   13.8270 C.2    38  SER38       0.2314
     16  O          7.6260    2.2370   13.1380 O.2    38  SER38      -0.2863
     17  CB         4.4880    3.5330   13.6400 C.3    38  SER38       0.2116
     18  OG         4.2160    2.1570   13.5020 O.3    38  SER38      -0.2180
     19  N         -1.5130    6.8330   18.1490 N.3    78  SER78      -0.1202
     20  CA        -2.5370    7.2050   17.1790 C.3    78  SER78       0.2020
     21  C         -1.9940    7.0170   15.7600 C.2    78  SER78       0.2619
     22  O         -0.7880    7.2530   15.5420 O.2    78  SER78      -0.2717
     23  CB        -2.9560    8.6620   17.2680 C.3    78  SER78       0.2103
     24  OG        -3.6450    9.0110   18.4540 O.3    78  SER78      -0.2182
     25  N         -2.8600    6.6110   14.8430 N.am   79  TYR79      -0.1961
     26  CA        -2.4170    6.3670   13.4750 C.3    79  TYR79       0.1771
     27  C         -3.1540    7.2940   12.5260 C.2    79  TYR79       0.2620
     28  O         -4.0410    8.0190   12.9880 O.2    79  TYR79      -0.2715
     29  CB        -2.6460    4.8950   13.1510 C.3    79  TYR79       0.0574
     30  CG        -1.7650    3.9460   13.9150 C.ar   79  TYR79      -0.0198
     31  CD1       -2.2330    3.2710   15.0310 C.ar   79  TYR79      -0.0009
     32  CD2       -0.4560    3.6880   13.5420 C.ar   79  TYR79      -0.0009
     33  CE1       -1.4510    2.3870   15.7480 C.ar   79  TYR79       0.0417
     34  CE2        0.3870    2.8160   14.2300 C.ar   79  TYR79       0.0417
     35  CZ        -0.1660    2.1830   15.3430 C.ar   79  TYR79       0.1957
     36  OH         0.5680    1.3130   16.0820 O.3    79  TYR79      -0.2866
     37  N         -2.7670    7.2740   11.2580 N.am   80  GLY80      -0.1954
     38  CA        -3.3290    8.2500   10.3140 C.3    80  GLY80       0.1869
     39  C         -4.8430    8.2400   10.3190 C.2    80  GLY80       0.2309
     40  O         -5.5180    9.2840   10.2410 O.2    80  GLY80      -0.2863
     41  N         11.0220    9.3320   10.3730 N.3   194  PHE194     -0.1241
     42  CA        10.5770    8.4950    9.2590 C.3   194  PHE194      0.1605
     43  C         11.7080    8.2080    8.2750 C.2   194  PHE194      0.2264
     44  O         12.7650    8.8720    8.2980 O.2   194  PHE194     -0.2867
     45  CB         9.4990    9.2380    8.4930 C.3   194  PHE194      0.0534
     46  CG         8.2250    9.5640    9.2520 C.ar  194  PHE194     -0.0203
     47  CD1        7.8590   10.8920    9.3530 C.ar  194  PHE194     -0.0042
     48  CD2        7.4370    8.5790    9.7750 C.ar  194  PHE194     -0.0042
     49  CE1        6.6620   11.2120    9.9680 C.ar  194  PHE194     -0.0003
     50  CE2        6.2560    8.8760   10.4310 C.ar  194  PHE194     -0.0003
     51  CZ         5.8980   10.2160   10.5000 C.ar  194  PHE194     -0.0000
     52  N          7.5890   10.0190    2.6890 N.3   217  ILE217     -0.1245
     53  CA         8.0930    8.9090    3.4900 C.3   217  ILE217      0.1561
     54  C          7.7960    7.5670    2.8130 C.2   217  ILE217      0.2260
     55  O          6.7670    7.3950    2.1610 O.2   217  ILE217     -0.2867
     56  CB         7.5160    8.9560    4.9120 C.3   217  ILE217      0.0252
     57  CG1        6.0180    8.7270    4.9990 C.3   217  ILE217      0.0019
     58  CG2        7.9190   10.2780    5.5780 C.3   217  ILE217      0.0019
     59  CD1        5.4730    8.5540    6.4240 C.3   217  ILE217      0.0001
     60  N          6.5400    4.2060    3.4580 N.3   219  ASP219     -0.1239
     61  CA         5.6380    3.7680    4.5380 C.3   219  ASP219      0.1674
     62  C          4.8750    2.5040    4.2000 C.2   219  ASP219      0.2266
     63  O          3.8170    2.5600    3.5630 O.2   219  ASP219     -0.2867
     64  CB         4.7260    4.8950    4.9270 C.3   219  ASP219      0.1410
     65  CG         3.8690    4.5310    6.1390 C.2   219  ASP219      0.3668
     66  OD1        3.0220    5.3980    6.4560 O.co2 219  ASP219     -0.2456
     67  OD2        4.0730    3.4390    6.7200 O.co2 219  ASP219     -0.2456
     68  N          3.1690    0.7760    6.1770 N.3   221  GLY221     -0.1210
     69  CA         1.9630    0.7510    6.9510 C.3   221  GLY221      0.1956
     70  C          0.8210    1.6080    6.4420 C.2   221  GLY221      0.2612
     71  O         -0.2430    1.6450    7.0810 O.2   221  GLY221     -0.2717
     72  N          1.0060    2.2990    5.3430 N.am  222  THR222     -0.1952
     73  CA        -0.0320    3.0860    4.6720 C.3   222  THR222      0.1897
     74  C         -0.3770    2.3750    3.3760 C.2   222  THR222      0.2313
     75  O          0.5200    2.0020    2.6180 O.2   222  THR222     -0.2863
     76  CB         0.4510    4.5230    4.4170 C.3   222  THR222      0.1794
     77  OG1        0.5720    5.2230    5.6790 O.3   222  THR222     -0.2208
     78  CG2       -0.5490    5.3250    3.6110 C.3   222  THR222      0.0378
     79  N         -2.6600   16.2380    5.2490 N.3   300  ILE300     -0.1245
     80  CA        -1.8450   15.3260    6.0340 C.3   300  ILE300      0.1561
     81  C         -0.5790   15.9830    6.5530 C.2   300  ILE300      0.2260
     82  O         -0.1430   15.7650    7.6960 O.2   300  ILE300     -0.2867
     83  CB        -1.4500   14.0590    5.2440 C.3   300  ILE300      0.0252
     84  CG1       -2.6190   13.1720    4.8170 C.3   300  ILE300      0.0019
     85  CG2       -0.4250   13.2220    6.0300 C.3   300  ILE300      0.0019
     86  CD1       -2.1590   12.1070    3.8510 C.3   300  ILE300      0.0001
     87  N          2.3360   15.6840    5.0650 N.3   302  ILE302     -0.1245
     88  CA         3.4940   14.9710    4.5150 C.3   302  ILE302      0.1561
     89  C          3.0130   14.1260    3.3460 C.2   302  ILE302      0.2260
     90  O          1.8820   13.6530    3.3580 O.2   302  ILE302     -0.2867
     91  CB         4.2390   14.1440    5.5970 C.3   302  ILE302      0.0252
     92  CG1        5.6930   13.8150    5.2100 C.3   302  ILE302      0.0019
     93  CG2        3.4060   12.9570    6.0330 C.3   302  ILE302      0.0019
     94  CD1        6.5680   13.5620    6.4410 C.3   302  ILE302      0.0001
     95  N          3.1910   10.5690    1.3250 N.3   304  ILE304     -0.1245
     96  CA         3.3790    9.1890    1.7970 C.3   304  ILE304      0.1561
     97  C          3.4470    8.2300    0.6060 C.2   304  ILE304      0.2260
     98  O          2.4610    8.0360   -0.1110 O.2   304  ILE304     -0.2867
     99  CB         2.2770    8.7600    2.7780 C.3   304  ILE304      0.0252
    100  CG1        2.0700    9.7060    3.9330 C.3   304  ILE304      0.0019
    101  CG2        2.5990    7.3430    3.2710 C.3   304  ILE304      0.0019
    102  CD1        0.9260    9.3280    4.8860 C.3   304  ILE304      0.0001
@<TRIPOS>BOND
     1    98    97    2
     2    97    96    1
     3    95    96    1
     4    96    99    1
     5    55    54    2
     6    75    74    2
     7    52    53    1
     8    99   101    1
     9    99   100    1
    10    54    53    1
    11    89    90    2
    12    89    88    1
    13    74    73    1
    14    60    61    1
    15    53    56    1
    16    63    62    2
    17    78    76    1
    18    86    84    1
    19   100   102    1
    20    62    61    1
    21    76    73    1
    22    76    77    1
    23    88    87    1
    24    88    91    1
    25    61    64    1
    26    73    72    1
    27    84    83    1
    28    56    57    1
    29    56    58    1
    30    64    65    1
    31    57    59    1
    32    92    91    1
    33    92    94    1
    34    83    85    1
    35    83    80    1
    36    79    80    1
    37    72    70   am
    38    91    93    1
    39    80    81    1
    40    65    66   ar
    41    65    67   ar
    42    68    69    1
    43    70    69    1
    44    70    71    2
    45    81    82    2
    46    43    44    2
    47    43    42    1
    48    45    46    1
    49    45    42    1
    50     9    10    1
    51    46    47   ar
    52    46    48   ar
    53    42    41    1
    54     7     6   ar
    55    47    49   ar
    56    10    11    1
    57     2     3    1
    58     2     1    1
    59     2     5    1
    60     3     4    2
    61    48    50   ar
    62    49    51   ar
    63    40    39    2
    64    38    39    1
    65    38    37    1
    66     6     5    1
    67     6     8   ar
    68    50    51   ar
    69    11    12    2
    70    11    13   am
    71    37    27   am
    72    13    14    1
    73    27    28    2
    74    27    26    1
    75    16    15    2
    76    29    26    1
    77    29    30    1
    78    14    17    1
    79    14    15    1
    80    26    25    1
    81    18    17    1
    82    32    30   ar
    83    32    34   ar
    84    30    31   ar
    85    34    35   ar
    86    25    21   am
    87    31    33   ar
    88    35    33   ar
    89    35    36    1
    90    22    21    2
    91    21    20    1
    92    20    23    1
    93    20    19    1
    94    23    24    1
