@<TRIPOS>MOLECULE
tmp/3pczA00.pdb
 102 94 0 0 0
SMALL
GASTEIGER

@<TRIPOS>ATOM
      1  N          5.2360   -1.8430    9.7370 N.3    35  ASP35      -0.1239
      2  CA         4.9350   -0.4500    9.4590 C.3    35  ASP35       0.1674
      3  C          6.1930    0.4140    9.4570 C.2    35  ASP35       0.2266
      4  O          6.6420    0.7950   10.5450 O.2    35  ASP35      -0.2867
      5  CB         3.9450    0.0740   10.4990 C.3    35  ASP35       0.1410
      6  CG         3.4660    1.4810   10.2130 C.2    35  ASP35       0.3668
      7  OD1        3.8570    2.0720    9.1780 O.co2  35  ASP35      -0.2456
      8  OD2        2.6850    2.0060   11.0480 O.co2  35  ASP35      -0.2456
      9  N          6.4520    3.3770    8.8210 N.3    37  GLY37      -0.1210
     10  CA         6.0280    4.6890    9.2470 C.3    37  GLY37       0.1956
     11  C          5.7040    4.8430   10.7230 C.2    37  GLY37       0.2612
     12  O          5.2200    5.9240   11.1450 O.2    37  GLY37      -0.2717
     13  N          5.9800    3.8330   11.5710 N.am   38  SER38      -0.1952
     14  CA         5.8540    3.9900   13.0190 C.3    38  SER38       0.1924
     15  C          6.8970    3.0950   13.6860 C.2    38  SER38       0.2314
     16  O          7.6000    2.3380   12.9850 O.2    38  SER38      -0.2863
     17  CB         4.4490    3.6840   13.5090 C.3    38  SER38       0.2116
     18  OG         4.1190    2.3330   13.2830 O.3    38  SER38      -0.2180
     19  N         -1.6050    6.6580   17.7520 N.3    78  SER78      -0.1202
     20  CA        -2.7150    6.7620   16.8140 C.3    78  SER78       0.2020
     21  C         -2.1630    6.6850   15.3990 C.2    78  SER78       0.2619
     22  O         -0.9710    6.9680   15.2270 O.2    78  SER78      -0.2717
     23  CB        -3.4820    8.0560   16.9860 C.3    78  SER78       0.2103
     24  OG        -2.6590    9.0760   16.4580 O.3    78  SER78      -0.2182
     25  N         -2.9900    6.3110   14.4370 N.am   79  TYR79      -0.1961
     26  CA        -2.5290    6.0740   13.0770 C.3    79  TYR79       0.1771
     27  C         -3.2570    6.9920   12.1130 C.2    79  TYR79       0.2620
     28  O         -4.1170    7.7730   12.5100 O.2    79  TYR79      -0.2715
     29  CB        -2.7230    4.5980   12.7080 C.3    79  TYR79       0.0574
     30  CG        -1.8190    3.7200   13.5510 C.ar   79  TYR79      -0.0198
     31  CD1       -2.2940    3.1550   14.7260 C.ar   79  TYR79      -0.0009
     32  CD2       -0.5210    3.4790   13.1720 C.ar   79  TYR79      -0.0009
     33  CE1       -1.4980    2.3560   15.5200 C.ar   79  TYR79       0.0417
     34  CE2        0.3070    2.6770   13.9530 C.ar   79  TYR79       0.0417
     35  CZ        -0.1900    2.1240   15.1140 C.ar   79  TYR79       0.1957
     36  OH         0.6130    1.3280   15.8970 O.3    79  TYR79      -0.2866
     37  N         -2.8720    6.8810   10.8560 N.am   80  GLY80      -0.1954
     38  CA        -3.2550    7.7910    9.7970 C.3    80  GLY80       0.1869
     39  C         -4.7460    7.9080    9.5890 C.2    80  GLY80       0.2309
     40  O         -5.2040    8.9410    9.1000 O.2    80  GLY80      -0.2863
     41  N         11.0910    9.3630   10.2600 N.3   194  PHE194     -0.1241
     42  CA        10.6630    8.5830    9.1010 C.3   194  PHE194      0.1605
     43  C         11.8000    8.2640    8.1410 C.2   194  PHE194      0.2264
     44  O         12.8620    8.8730    8.1570 O.2   194  PHE194     -0.2867
     45  CB         9.6020    9.3340    8.3030 C.3   194  PHE194      0.0534
     46  CG         8.3370    9.6710    9.0710 C.ar  194  PHE194     -0.0203
     47  CD1        8.0020   11.0100    9.2130 C.ar  194  PHE194     -0.0042
     48  CD2        7.4950    8.7200    9.6190 C.ar  194  PHE194     -0.0042
     49  CE1        6.8570   11.3860    9.8840 C.ar  194  PHE194     -0.0003
     50  CE2        6.3450    9.0790   10.3050 C.ar  194  PHE194     -0.0003
     51  CZ         6.0330   10.4300   10.4370 C.ar  194  PHE194     -0.0000
     52  N          7.6610   10.0230    2.5220 N.3   217  ILE217     -0.1245
     53  CA         8.1940    8.9180    3.3090 C.3   217  ILE217      0.1561
     54  C          7.8770    7.5820    2.6520 C.2   217  ILE217      0.2260
     55  O          6.8700    7.4080    1.9660 O.2   217  ILE217     -0.2867
     56  CB         7.6290    8.9640    4.7380 C.3   217  ILE217      0.0252
     57  CG1        6.1060    8.7720    4.7840 C.3   217  ILE217      0.0019
     58  CG2        8.0410   10.2740    5.4050 C.3   217  ILE217      0.0019
     59  CD1        5.5630    8.4150    6.1720 C.3   217  ILE217      0.0001
     60  N          6.5610    4.2260    3.3960 N.3   219  ASP219     -0.1239
     61  CA         5.6300    3.7850    4.4320 C.3   219  ASP219      0.1674
     62  C          4.8630    2.4940    4.1370 C.2   219  ASP219      0.2266
     63  O          3.7970    2.5110    3.5210 O.2   219  ASP219     -0.2867
     64  CB         4.6720    4.8800    4.8050 C.3   219  ASP219      0.1410
     65  CG         3.8940    4.5600    6.0620 C.2   219  ASP219      0.3668
     66  OD1        3.0860    5.4820    6.3270 O.co2 219  ASP219     -0.2456
     67  OD2        4.1060    3.4770    6.6600 O.co2 219  ASP219     -0.2456
     68  N          3.2110    0.7240    6.1260 N.3   221  GLY221     -0.1210
     69  CA         1.9810    0.6350    6.8790 C.3   221  GLY221      0.1956
     70  C          0.8750    1.5760    6.4010 C.2   221  GLY221      0.2612
     71  O         -0.1550    1.6530    7.1100 O.2   221  GLY221     -0.2717
     72  N          1.0540    2.2520    5.2750 N.am  222  THR222     -0.1952
     73  CA        -0.0020    3.0410    4.6180 C.3   222  THR222      0.1897
     74  C         -0.4070    2.3340    3.3330 C.2   222  THR222      0.2313
     75  O          0.4450    1.9430    2.5420 O.2   222  THR222     -0.2863
     76  CB         0.4840    4.4770    4.3440 C.3   222  THR222      0.1794
     77  OG1        0.5970    5.1550    5.6100 O.3   222  THR222     -0.2208
     78  CG2       -0.5030    5.2790    3.4970 C.3   222  THR222      0.0378
     79  N         -2.5140   16.1470    5.3480 N.3   300  ILE300     -0.1245
     80  CA        -1.6860   15.1910    6.0420 C.3   300  ILE300      0.1561
     81  C         -0.4140   15.8620    6.5490 C.2   300  ILE300      0.2260
     82  O          0.0350   15.5710    7.6390 O.2   300  ILE300     -0.2867
     83  CB        -1.2290   14.0440    5.1250 C.3   300  ILE300      0.0252
     84  CG1       -2.3990   13.1870    4.6560 C.3   300  ILE300      0.0019
     85  CG2       -0.1350   13.2230    5.8040 C.3   300  ILE300      0.0019
     86  CD1       -1.9420   12.0590    3.7610 C.3   300  ILE300      0.0001
     87  N          2.3320   15.6360    4.9440 N.3   302  ILE302     -0.1245
     88  CA         3.4690   14.8810    4.4230 C.3   302  ILE302      0.1561
     89  C          3.0430   14.0180    3.2340 C.2   302  ILE302      0.2260
     90  O          1.9070   13.5420    3.2370 O.2   302  ILE302     -0.2867
     91  CB         4.1310   14.0300    5.5300 C.3   302  ILE302      0.0252
     92  CG1        5.6140   13.7390    5.2600 C.3   302  ILE302      0.0019
     93  CG2        3.4050   12.7430    5.8070 C.3   302  ILE302      0.0019
     94  CD1        6.4330   13.4230    6.4980 C.3   302  ILE302      0.0001
     95  N          3.2160   10.5130    1.2410 N.3   304  ILE304     -0.1245
     96  CA         3.4400    9.1370    1.6650 C.3   304  ILE304      0.1561
     97  C          3.4790    8.1730    0.4840 C.2   304  ILE304      0.2260
     98  O          2.4990    7.9660   -0.2360 O.2   304  ILE304     -0.2867
     99  CB         2.3380    8.6650    2.6290 C.3   304  ILE304      0.0252
    100  CG1        2.1150    9.6310    3.7850 C.3   304  ILE304      0.0019
    101  CG2        2.6570    7.2630    3.1370 C.3   304  ILE304      0.0019
    102  CD1        1.0450    9.2270    4.7680 C.3   304  ILE304      0.0001
@<TRIPOS>BOND
     1    98    97    2
     2    97    96    1
     3    95    96    1
     4    96    99    1
     5    55    54    2
     6    52    53    1
     7    75    74    2
     8    99   101    1
     9    99   100    1
    10    54    53    1
    11    89    90    2
    12    89    88    1
    13    53    56    1
    14    74    73    1
    15    60    61    1
    16    78    76    1
    17    63    62    2
    18    86    84    1
    19   100   102    1
    20    62    61    1
    21    76    73    1
    22    76    77    1
    23    88    87    1
    24    88    91    1
    25    61    64    1
    26    73    72    1
    27    84    83    1
    28    56    57    1
    29    56    58    1
    30    57    59    1
    31    64    65    1
    32    83    85    1
    33    83    80    1
    34    92    91    1
    35    92    94    1
    36    72    70   am
    37    79    80    1
    38    91    93    1
    39    80    81    1
    40    65    66   ar
    41    65    67   ar
    42    68    69    1
    43    70    69    1
    44    70    71    2
    45    81    82    2
    46    43    44    2
    47    43    42    1
    48    45    46    1
    49    45    42    1
    50     9    10    1
    51    46    47   ar
    52    46    48   ar
    53    40    39    2
    54    42    41    1
    55     7     6   ar
    56    47    49   ar
    57    10    11    1
    58     3     2    1
    59     3     4    2
    60     2     1    1
    61     2     5    1
    62    39    38    1
    63    48    50   ar
    64    38    37    1
    65    49    51   ar
    66     6     5    1
    67     6     8   ar
    68    50    51   ar
    69    11    12    2
    70    11    13   am
    71    37    27   am
    72    13    14    1
    73    27    28    2
    74    27    26    1
    75    29    26    1
    76    29    30    1
    77    16    15    2
    78    14    17    1
    79    14    15    1
    80    26    25    1
    81    32    30   ar
    82    32    34   ar
    83    18    17    1
    84    30    31   ar
    85    34    35   ar
    86    25    21   am
    87    31    33   ar
    88    35    33   ar
    89    35    36    1
    90    22    21    2
    91    21    20    1
    92    24    23    1
    93    20    23    1
    94    20    19    1
