@<TRIPOS>MOLECULE
tmp/3pczA01.pdb
 92 83 0 0 0
SMALL
GASTEIGER

@<TRIPOS>ATOM
      1  N         -3.6710   -4.1310    3.6480 N.3    16  ALA16      -0.1245
      2  CA        -2.4690   -4.2340    4.4660 C.3    16  ALA16       0.1562
      3  C         -1.8480   -5.6080    4.2390 C.2    16  ALA16       0.2260
      4  O         -2.4820   -6.4430    3.6070 O.2    16  ALA16      -0.2867
      5  CB        -2.7720   -4.0600    5.9330 C.3    16  ALA16       0.0290
      6  N          1.3460   -6.3570   11.2960 N.3    33  ASP33      -0.1239
      7  CA         1.4730   -5.4520   10.1580 C.3    33  ASP33       0.1674
      8  C          2.7810   -4.6880   10.3090 C.2    33  ASP33       0.2266
      9  O          2.8490   -3.8730   11.2440 O.2    33  ASP33      -0.2867
     10  CB         0.2610   -4.5380   10.1780 C.3    33  ASP33       0.1410
     11  CG         0.1580   -3.5270    9.0510 C.2    33  ASP33       0.3668
     12  OD1        1.1290   -3.5030    8.2600 O.co2  33  ASP33      -0.2456
     13  OD2       -0.8550   -2.7770    8.9590 O.co2  33  ASP33      -0.2456
     14  N          5.2360   -1.8430    9.7370 N.3    35  ASP35      -0.1239
     15  CA         4.9350   -0.4500    9.4590 C.3    35  ASP35       0.1674
     16  C          6.1930    0.4140    9.4570 C.2    35  ASP35       0.2266
     17  O          6.6420    0.7950   10.5450 O.2    35  ASP35      -0.2867
     18  CB         3.9450    0.0740   10.4990 C.3    35  ASP35       0.1410
     19  CG         3.4660    1.4810   10.2130 C.2    35  ASP35       0.3668
     20  OD1        3.8570    2.0720    9.1780 O.co2  35  ASP35      -0.2456
     21  OD2        2.6850    2.0060   11.0480 O.co2  35  ASP35      -0.2456
     22  N         -2.9900    6.3110   14.4370 N.3    79  TYR79      -0.1241
     23  CA        -2.5290    6.0740   13.0770 C.3    79  TYR79       0.1605
     24  C         -3.2570    6.9920   12.1130 C.2    79  TYR79       0.2264
     25  O         -4.1170    7.7730   12.5100 O.2    79  TYR79      -0.2867
     26  CB        -2.7230    4.5980   12.7080 C.3    79  TYR79       0.0534
     27  CG        -1.8190    3.7200   13.5510 C.ar   79  TYR79      -0.0201
     28  CD1       -2.2940    3.1550   14.7260 C.ar   79  TYR79      -0.0009
     29  CD2       -0.5210    3.4790   13.1720 C.ar   79  TYR79      -0.0009
     30  CE1       -1.4980    2.3560   15.5200 C.ar   79  TYR79       0.0417
     31  CE2        0.3070    2.6770   13.9530 C.ar   79  TYR79       0.0417
     32  CZ        -0.1900    2.1240   15.1140 C.ar   79  TYR79       0.1957
     33  OH         0.6130    1.3280   15.8970 O.3    79  TYR79      -0.2866
     34  N         -5.4830    6.8630    9.9530 N.3    81  ASP81      -0.1239
     35  CA        -6.9270    6.9030    9.7540 C.3    81  ASP81       0.1674
     36  C         -7.6350    7.3020   11.0270 C.2    81  ASP81       0.2266
     37  O         -8.8560    7.2460   11.1020 O.2    81  ASP81      -0.2867
     38  CB        -7.3550    5.5170    9.2650 C.3    81  ASP81       0.1410
     39  CG        -6.8270    4.4410   10.2080 C.2    81  ASP81       0.3668
     40  OD1       -6.1420    4.7970   11.1840 O.co2  81  ASP81      -0.2456
     41  OD2       -7.0940    3.2440    9.9590 O.co2  81  ASP81      -0.2456
     42  N         -7.3570    5.6810   13.9120 N.3    83  SER83      -0.1217
     43  CA        -7.3980    4.5650   14.8390 C.3    83  SER83       0.1889
     44  C         -6.3030    4.7130   15.8860 C.2    83  SER83       0.2288
     45  O         -5.3300    5.4660   15.7710 O.2    83  SER83      -0.2866
     46  CB        -7.2460    3.2430   14.0880 C.3    83  SER83       0.2089
     47  OG        -5.9850    3.1380   13.4580 O.3    83  SER83      -0.2183
     48  N        -11.8040    0.1990   14.8360 N.3   115  SER115     -0.1202
     49  CA       -11.4480   -0.4250   13.5600 C.3   115  SER115      0.2020
     50  C        -10.3820   -1.4940   13.7370 C.2   115  SER115      0.2618
     51  O        -10.2070   -2.3020   12.8230 O.2   115  SER115     -0.2717
     52  CB       -11.0160    0.5770   12.4910 C.3   115  SER115      0.2103
     53  OG        -9.9380    1.3650   12.9030 O.3   115  SER115     -0.2182
     54  N         -9.6830   -1.5140   14.8700 N.am  116  PHE116     -0.1975
     55  CA        -8.7790   -2.6440   15.1170 C.3   116  PHE116      0.1639
     56  C         -9.6350   -3.8660   15.4740 C.2   116  PHE116      0.2290
     57  O         -9.4420   -4.9630   14.9220 O.2   116  PHE116     -0.2864
     58  CB        -7.7600   -2.2970   16.1930 C.3   116  PHE116      0.0560
     59  CG        -6.6150   -1.4470   15.6650 C.ar  116  PHE116     -0.0200
     60  CD1       -5.7400   -1.9820   14.7310 C.ar  116  PHE116     -0.0042
     61  CD2       -6.4310   -0.1570   16.1100 C.ar  116  PHE116     -0.0042
     62  CE1       -4.6860   -1.2370   14.2370 C.ar  116  PHE116     -0.0003
     63  CE2       -5.3970    0.6120   15.6050 C.ar  116  PHE116     -0.0003
     64  CZ        -4.5360    0.0750   14.6690 C.ar  116  PHE116     -0.0000
     65  N        -11.2040   -5.6900   12.6700 N.3   119  ASP119     -0.1239
     66  CA       -10.3600   -6.3530   11.6770 C.3   119  ASP119      0.1674
     67  C         -9.6620   -7.5470   12.3320 C.2   119  ASP119      0.2266
     68  O         -8.6350   -7.3460   13.0080 O.2   119  ASP119     -0.2867
     69  CB        -9.3060   -5.4140   11.1000 C.3   119  ASP119      0.1410
     70  CG        -8.3590   -6.0840   10.1260 C.2   119  ASP119      0.3668
     71  OD1       -8.5830   -7.2720    9.7720 O.co2 119  ASP119     -0.2456
     72  OD2       -7.3800   -5.3990    9.7150 O.co2 119  ASP119     -0.2456
     73  N         -5.4820   -8.7060   11.7080 N.3   122  ILE122     -0.1245
     74  CA        -4.2840   -8.0420   12.1960 C.3   122  ILE122      0.1561
     75  C         -4.2210   -8.1100   13.7380 C.2   122  ILE122      0.2260
     76  O         -5.1130   -7.6330   14.4030 O.2   122  ILE122     -0.2867
     77  CB        -4.2310   -6.5890   11.7190 C.3   122  ILE122      0.0252
     78  CG1       -3.9910   -6.4890   10.2140 C.3   122  ILE122      0.0019
     79  CG2       -3.1590   -5.8190   12.4750 C.3   122  ILE122      0.0019
     80  CD1       -4.2400   -5.0990    9.6670 C.3   122  ILE122      0.0001
     81  N          0.9520   -4.4670   15.3390 N.3   125  LEU125     -0.1245
     82  CA         1.8500   -3.7740   14.4230 C.3   125  LEU125      0.1561
     83  C          3.2980   -3.9580   14.8800 C.2   125  LEU125      0.2260
     84  O          3.5720   -4.0960   16.0710 O.2   125  LEU125     -0.2867
     85  CB         1.5520   -2.2660   14.3010 C.3   125  LEU125      0.0270
     86  CG         0.6410   -1.8810   13.1200 C.3   125  LEU125      0.0019
     87  CD1       -0.7800   -2.2930   13.4860 C.3   125  LEU125      0.0001
     88  CD2        0.7710   -0.4260   12.7570 C.3   125  LEU125      0.0001
     89  N          3.2110    0.7240    6.1260 N.3   221  GLY221     -0.1225
     90  CA         1.9810    0.6350    6.8790 C.3   221  GLY221      0.1811
     91  C          0.8750    1.5760    6.4010 C.2   221  GLY221      0.2280
     92  O         -0.1550    1.6530    7.1100 O.2   221  GLY221     -0.2866
@<TRIPOS>BOND
     1     4     3    2
     2     1     2    1
     3     3     2    1
     4     2     5    1
     5    89    90    1
     6    91    90    1
     7    91    92    2
     8    12    11   ar
     9    13    11   ar
    10    11    10    1
    11    20    19   ar
    12    38    35    1
    13    38    39    1
    14    16    15    1
    15    16    17    2
    16    15    14    1
    17    15    18    1
    18    80    78    1
    19    72    70   ar
    20    35    34    1
    21    35    36    1
    22    71    70   ar
    23    41    39   ar
    24    70    69    1
    25     7    10    1
    26     7     8    1
    27     7     6    1
    28    39    40   ar
    29    19    18    1
    30    19    21   ar
    31    78    77    1
    32     8     9    2
    33    36    37    2
    34    69    66    1
    35    66    67    1
    36    66    65    1
    37    73    74    1
    38    77    74    1
    39    77    79    1
    40    24    25    2
    41    24    23    1
    42    74    75    1
    43    67    68    2
    44    52    53    1
    45    52    49    1
    46    26    23    1
    47    26    27    1
    48    88    86    1
    49    51    50    2
    50    23    22    1
    51    86    87    1
    52    86    85    1
    53    29    27   ar
    54    29    31   ar
    55    47    46    1
    56    27    28   ar
    57    49    50    1
    58    49    48    1
    59    50    54   am
    60    75    76    2
    61    42    43    1
    62    31    32   ar
    63    46    43    1
    64    62    64   ar
    65    62    60   ar
    66    85    82    1
    67    82    83    1
    68    82    81    1
    69    64    63   ar
    70    28    30   ar
    71    60    59   ar
    72    43    44    1
    73    54    55    1
    74    83    84    2
    75    57    56    2
    76    32    30   ar
    77    32    33    1
    78    55    56    1
    79    55    58    1
    80    63    61   ar
    81    59    61   ar
    82    59    58    1
    83    45    44    2
