@<TRIPOS>MOLECULE
tmp/3pd2A00.pdb
 178 179 0 0 0
SMALL
GASTEIGER

@<TRIPOS>ATOM
      1  N          1.5560    7.1820  -17.8630 N.3    19  ALA19      -0.1231
      2  CA         2.1530    8.2350  -17.0520 C.3    19  ALA19       0.1694
      3  C          2.5610    9.4430  -17.8780 C.2    19  ALA19       0.2591
      4  O          2.9230   10.4870  -17.3310 O.2    19  ALA19      -0.2718
      5  CB         3.3640    7.6820  -16.3160 C.3    19  ALA19       0.0304
      6  N          2.5030    9.2940  -19.1970 N.am   20  LEU20      -0.1980
      7  CA         2.8660   10.3620  -20.1210 C.3    20  LEU20       0.1596
      8  C          1.7630   10.5180  -21.1650 C.2    20  LEU20       0.2287
      9  O          0.9610    9.6080  -21.3740 O.2    20  LEU20      -0.2864
     10  CB         4.1800   10.0200  -20.8340 C.3    20  LEU20       0.0297
     11  CG         5.4050    9.6420  -19.9980 C.3    20  LEU20       0.0022
     12  CD1        6.5360    9.2420  -20.9290 C.3    20  LEU20       0.0001
     13  CD2        5.8310   10.8050  -19.1180 C.3    20  LEU20       0.0001
     14  N         16.0060    0.8950  -14.2540 N.3    43  ILE43      -0.1231
     15  CA        16.8410    1.9980  -14.7030 C.3    43  ILE43       0.1692
     16  C         16.1910    3.3740  -14.7130 C.2    43  ILE43       0.2593
     17  O         15.0850    3.5500  -15.2190 O.2    43  ILE43      -0.2718
     18  CB        17.3590    1.7180  -16.1340 C.3    43  ILE43       0.0266
     19  CG1       18.1730    0.4190  -16.1490 C.3    43  ILE43       0.0019
     20  CG2       18.2020    2.8960  -16.6380 C.3    43  ILE43       0.0020
     21  CD1       18.6150   -0.0060  -17.5330 C.3    43  ILE43       0.0001
     22  N         16.8970    4.3430  -14.1460 N.am   44  SER44      -0.1938
     23  CA        16.4480    5.7230  -14.1420 C.3    44  SER44       0.2055
     24  C         17.4790    6.4920  -14.9570 C.2    44  SER44       0.2642
     25  O         18.6630    6.5190  -14.6080 O.2    44  SER44      -0.2714
     26  CB        16.3960    6.2930  -12.7240 C.3    44  SER44       0.2130
     27  OG        16.0950    7.6800  -12.7700 O.3    44  SER44      -0.2179
     28  N         17.0360    7.0930  -16.0530 N.am   45  VAL45      -0.1977
     29  CA        17.9230    7.8740  -16.9080 C.3    45  VAL45       0.1596
     30  C         17.9810    9.2720  -16.3080 C.2    45  VAL45       0.2287
     31  O         16.9450    9.9030  -16.1020 O.2    45  VAL45      -0.2864
     32  CB        17.3850    7.9460  -18.3480 C.3    45  VAL45       0.0276
     33  CG1       18.3710    8.7100  -19.2350 C.3    45  VAL45       0.0022
     34  CG2       17.1680    6.5340  -18.8850 C.3    45  VAL45       0.0022
     35  N         13.7970   -2.6410  -17.1140 N.3    79  TYR79      -0.1228
     36  CA        12.5980   -2.0750  -16.5010 C.3    79  TYR79       0.1721
     37  C         12.7300   -0.5730  -16.2480 C.2    79  TYR79       0.2437
     38  O         13.4160   -0.1620  -15.3160 O.2    79  TYR79      -0.2733
     39  CB        12.3420   -2.7940  -15.1710 C.3    79  TYR79       0.0547
     40  CG        10.9290   -2.6830  -14.6450 C.ar   79  TYR79      -0.0200
     41  CD1       10.1400   -3.8230  -14.4810 C.ar   79  TYR79      -0.0009
     42  CD2       10.3720   -1.4470  -14.3330 C.ar   79  TYR79      -0.0009
     43  CE1        8.8300   -3.7320  -14.0200 C.ar   79  TYR79       0.0417
     44  CE2        9.0600   -1.3450  -13.8710 C.ar   79  TYR79       0.0417
     45  CZ         8.2960   -2.4940  -13.7200 C.ar   79  TYR79       0.1957
     46  OH         6.9990   -2.4070  -13.2750 O.3    79  TYR79      -0.2866
     47  N         12.0800    0.2630  -17.0750 N.am   80  PRO80      -0.2718
     48  CA        12.1960    1.7060  -16.8350 C.3    80  PRO80       0.1535
     49  C         11.6700    2.0050  -15.4340 C.2    80  PRO80       0.2599
     50  O         10.5520    1.6160  -15.0930 O.2    80  PRO80      -0.2715
     51  CB        11.3260    2.3170  -17.9370 C.3    80  PRO80       0.0310
     52  CG        11.4150    1.3020  -19.0490 C.3    80  PRO80       0.0237
     53  CD        11.2980   -0.0130  -18.2940 C.3    80  PRO80       0.0939
     54  N         12.4810    2.6820  -14.6230 N.am   81  PHE81      -0.1960
     55  CA        12.1050    3.0060  -13.2470 C.3    81  PHE81       0.1771
     56  C         12.5690    4.4280  -12.9470 C.2    81  PHE81       0.2619
     57  O         13.6080    4.6370  -12.3190 O.2    81  PHE81      -0.2715
     58  CB        12.7840    2.0260  -12.2880 C.3    81  PHE81       0.0574
     59  CG        12.0350    1.8120  -11.0070 C.ar   81  PHE81      -0.0200
     60  CD1       11.0830    0.8020  -10.9050 C.ar   81  PHE81      -0.0042
     61  CD2       12.2770    2.6190   -9.9020 C.ar   81  PHE81      -0.0042
     62  CE1       10.3820    0.5990   -9.7190 C.ar   81  PHE81      -0.0003
     63  CE2       11.5810    2.4250   -8.7080 C.ar   81  PHE81      -0.0003
     64  CZ        10.6330    1.4120   -8.6190 C.ar   81  PHE81      -0.0000
     65  N         11.7820    5.4010  -13.3860 N.am   82  ALA82      -0.1963
     66  CA        12.1330    6.8050  -13.2230 C.3    82  ALA82       0.1728
     67  C         12.5330    7.2570  -11.8340 C.2    82  ALA82       0.2616
     68  O         13.5540    7.9260  -11.6690 O.2    82  ALA82      -0.2715
     69  CB        10.9910    7.6900  -13.7350 C.3    82  ALA82       0.0334
     70  N         11.7450    6.8900  -10.8300 N.am   83  HIS83      -0.1973
     71  CA        12.0290    7.3480   -9.4780 C.3    83  HIS83       0.1656
     72  C         13.1660    6.6950   -8.7210 C.2    83  HIS83       0.2291
     73  O         13.2070    6.7280   -7.4970 O.2    83  HIS83      -0.2864
     74  CB        10.7470    7.3250   -8.6480 C.3    83  HIS83       0.0771
     75  CG         9.7040    8.2720   -9.1540 C.ar   83  HIS83       0.0820
     76  ND1        8.7400    7.9000  -10.0660 N.ar   83  HIS83      -0.2267
     77  CD2        9.5150    9.5930   -8.9260 C.ar   83  HIS83       0.1154
     78  CE1        8.0010    8.9510  -10.3760 C.ar   83  HIS83       0.1986
     79  NE2        8.4510    9.9910   -9.6980 N.ar   83  HIS83      -0.2212
     80  N         15.9350   13.5960  -13.1220 N.3    88  LEU88      -0.1231
     81  CA        15.5940   12.8650  -14.3360 C.3    88  LEU88       0.1693
     82  C         15.8950   13.5110  -15.6790 C.2    88  LEU88       0.2591
     83  O         15.8440   14.7310  -15.8370 O.2    88  LEU88      -0.2718
     84  CB        14.1100   12.4880  -14.2990 C.3    88  LEU88       0.0284
     85  CG        13.6350   11.8400  -12.9980 C.3    88  LEU88       0.0019
     86  CD1       12.1710   11.4410  -13.1190 C.3    88  LEU88       0.0001
     87  CD2       14.4950   10.6280  -12.6890 C.3    88  LEU88       0.0001
     88  N         16.1990   12.6600  -16.6540 N.am   89  ALA89      -0.1980
     89  CA        16.4710   13.1050  -18.0080 C.3    89  ALA89       0.1597
     90  C         15.1290   13.2560  -18.7130 C.2    89  ALA89       0.2287
     91  O         14.1300   12.6670  -18.2980 O.2    89  ALA89      -0.2864
     92  CB        17.3250   12.0760  -18.7340 C.3    89  ALA89       0.0319
     93  N         12.0010   12.7320  -20.8690 N.3    91  PRO91      -0.2116
     94  CA        11.3690   11.4630  -21.2480 C.3    91  PRO91       0.1372
     95  C         11.7850   10.9120  -22.6130 C.2    91  PRO91       0.2244
     96  O         12.1290    9.7350  -22.7360 O.2    91  PRO91      -0.2868
     97  CB         9.8840   11.7920  -21.1810 C.3    91  PRO91       0.0268
     98  CG         9.8270   12.7530  -20.0160 C.3    91  PRO91       0.0207
     99  CD        11.0090   13.6620  -20.2950 C.3    91  PRO91       0.0892
    100  N         15.1530    9.5810  -22.3770 N.3    94  ALA94      -0.1245
    101  CA        15.1840    8.3730  -21.5640 C.3    94  ALA94       0.1562
    102  C         14.7780    7.1920  -22.4430 C.2    94  ALA94       0.2260
    103  O         15.4490    6.1590  -22.4700 O.2    94  ALA94      -0.2867
    104  CB        14.2310    8.5060  -20.3790 C.3    94  ALA94       0.0290
    105  N         17.0610    3.8370  -23.2600 N.3    98  LEU98      -0.1245
    106  CA        16.5950    2.5090  -22.8640 C.3    98  LEU98       0.1561
    107  C         16.4870    1.5870  -24.0750 C.2    98  LEU98       0.2260
    108  O         16.7090    0.3790  -23.9700 O.2    98  LEU98      -0.2867
    109  CB        15.2520    2.6320  -22.1420 C.3    98  LEU98       0.0270
    110  CG        15.4450    3.3720  -20.8170 C.3    98  LEU98       0.0019
    111  CD1       14.1120    3.7750  -20.2350 C.3    98  LEU98       0.0001
    112  CD2       16.2240    2.4820  -19.8540 C.3    98  LEU98       0.0001
    113  N          7.1130   -1.8280  -20.9150 N.3   116  PRO116     -0.2102
    114  CA         6.7900   -0.6550  -21.7410 C.3   116  PRO116      0.1504
    115  C          7.1020    0.6810  -21.0830 C.2   116  PRO116      0.2576
    116  O          6.8160    0.8860  -19.9120 O.2   116  PRO116     -0.2718
    117  CB         5.3000   -0.8320  -22.0360 C.3   116  PRO116      0.0282
    118  CG         4.8050   -1.6380  -20.8880 C.3   116  PRO116      0.0208
    119  CD         5.9110   -2.6470  -20.6800 C.3   116  PRO116      0.0893
    120  N          7.6730    1.5920  -21.8630 N.am  117  PHE117     -0.1963
    121  CA         8.0630    2.9090  -21.3780 C.3   117  PHE117      0.1771
    122  C          6.9090    3.9230  -21.3630 C.2   117  PHE117      0.2620
    123  O          6.1200    3.9850  -22.3030 O.2   117  PHE117     -0.2715
    124  CB         9.1930    3.4410  -22.2630 C.3   117  PHE117      0.0574
    125  CG         9.7370    4.7730  -21.8320 C.ar  117  PHE117     -0.0200
    126  CD1       10.8580    4.8470  -21.0140 C.ar  117  PHE117     -0.0042
    127  CD2        9.1350    5.9540  -22.2560 C.ar  117  PHE117     -0.0042
    128  CE1       11.3760    6.0840  -20.6240 C.ar  117  PHE117     -0.0003
    129  CE2        9.6420    7.1890  -21.8730 C.ar  117  PHE117     -0.0003
    130  CZ        10.7670    7.2550  -21.0550 C.ar  117  PHE117     -0.0000
    131  N          6.8250    4.7050  -20.2890 N.am  118  GLY118     -0.1940
    132  CA         5.8070    5.7390  -20.1820 C.3   118  GLY118      0.2014
    133  C          4.5260    5.3930  -19.4490 C.2   118  GLY118      0.2639
    134  O          3.5660    6.1650  -19.4780 O.2   118  GLY118     -0.2714
    135  N          4.5080    4.2540  -18.7710 N.am  119  TYR119     -0.1959
    136  CA         3.3130    3.8310  -18.0610 C.3   119  TYR119      0.1771
    137  C          3.5460    3.6600  -16.5720 C.2   119  TYR119      0.2620
    138  O          4.6840    3.5940  -16.1070 O.2   119  TYR119     -0.2715
    139  CB         2.8260    2.4920  -18.6190 C.3   119  TYR119      0.0574
    140  CG         2.4820    2.5050  -20.0910 C.ar  119  TYR119     -0.0198
    141  CD1        1.1940    2.8220  -20.5240 C.ar  119  TYR119     -0.0009
    142  CD2        3.4430    2.1960  -21.0520 C.ar  119  TYR119     -0.0009
    143  CE1        0.8710    2.8310  -21.8820 C.ar  119  TYR119      0.0417
    144  CE2        3.1300    2.2010  -22.4100 C.ar  119  TYR119      0.0417
    145  CZ         1.8450    2.5190  -22.8170 C.ar  119  TYR119      0.1957
    146  OH         1.5440    2.5450  -24.1580 O.3   119  TYR119     -0.2866
    147  N          2.4480    3.6130  -15.8280 N.am  120  TYR120     -0.1960
    148  CA         2.5140    3.3550  -14.4020 C.3   120  TYR120      0.1771
    149  C          2.1990    1.8690  -14.3810 C.2   120  TYR120      0.2619
    150  O          1.2110    1.4280  -14.9680 O.2   120  TYR120     -0.2715
    151  CB         1.4580    4.1500  -13.6350 C.3   120  TYR120      0.0574
    152  CG         1.8880    5.5710  -13.3430 C.ar  120  TYR120     -0.0198
    153  CD1        3.0150    5.8360  -12.5720 C.ar  120  TYR120     -0.0009
    154  CD2        1.1770    6.6500  -13.8470 C.ar  120  TYR120     -0.0009
    155  CE1        3.4230    7.1480  -12.3120 C.ar  120  TYR120      0.0417
    156  CE2        1.5720    7.9630  -13.5930 C.ar  120  TYR120      0.0417
    157  CZ         2.6930    8.2050  -12.8290 C.ar  120  TYR120      0.1957
    158  OH         3.0830    9.5040  -12.5890 O.3   120  TYR120     -0.2866
    159  N          3.0520    1.0950  -13.7320 N.am  121  LYS121     -0.1977
    160  CA         2.8630   -0.3440  -13.6980 C.3   121  LYS121      0.1596
    161  C          3.0380   -0.9460  -12.3280 C.2   121  LYS121      0.2287
    162  O          3.9350   -0.5610  -11.5780 O.2   121  LYS121     -0.2864
    163  CB         3.8630   -1.0220  -14.6390 C.3   121  LYS121      0.0298
    164  CG         3.7530   -0.6000  -16.0940 C.3   121  LYS121      0.0038
    165  CD         4.7910   -1.3140  -16.9500 C.3   121  LYS121      0.0206
    166  CE         6.2030   -0.9620  -16.5180 C.3   121  LYS121      0.1093
    167  NZ         6.4860    0.4900  -16.6570 N.3   121  LYS121     -0.1314
    168  N          3.9370   -4.3210  -10.1710 N.3   123  PHE123     -0.1241
    169  CA         4.8540   -5.3990  -10.5060 C.3   123  PHE123      0.1605
    170  C          5.1050   -6.2880   -9.3100 C.2   123  PHE123      0.2264
    171  O          4.9080   -5.8770   -8.1660 O.2   123  PHE123     -0.2867
    172  CB         6.1860   -4.8500  -11.0520 C.3   123  PHE123      0.0534
    173  CG         7.0680   -4.2200  -10.0110 C.ar  123  PHE123     -0.0203
    174  CD1        7.8750   -5.0020   -9.1910 C.ar  123  PHE123     -0.0042
    175  CD2        7.0950   -2.8400   -9.8540 C.ar  123  PHE123     -0.0042
    176  CE1        8.6950   -4.4190   -8.2310 C.ar  123  PHE123     -0.0003
    177  CE2        7.9130   -2.2470   -8.8950 C.ar  123  PHE123     -0.0003
    178  CZ         8.7130   -3.0370   -8.0830 C.ar  123  PHE123     -0.0000
@<TRIPOS>BOND
     1   146   145    1
     2   107   108    2
     3   107   106    1
     4   105   106    1
     5   106   109    1
     6   145   144   ar
     7   145   143   ar
     8    96    95    2
     9    95    94    1
    10   103   102    2
    11   102   101    1
    12   144   142   ar
    13   100   101    1
    14   123   122    2
    15   124   125    1
    16   124   121    1
    17   127   129   ar
    18   127   125   ar
    19   109   110    1
    20   117   114    1
    21   117   118    1
    22   143   141   ar
    23   129   130   ar
    24   120   121    1
    25   120   115   am
    26   125   126   ar
    27   114   115    1
    28   114   113    1
    29   101   104    1
    30   121   122    1
    31     9     8    2
    32   122   131   am
    33    94    97    1
    34    94    93    1
    35    97    98    1
    36     8     7    1
    37   115   116    2
    38   130   128   ar
    39   142   140   ar
    40   126   128   ar
    41    12    11    1
    42   113   119    1
    43   118   119    1
    44    93    99    1
    45    10     7    1
    46    10    11    1
    47   110   111    1
    48   110   112    1
    49   141   140   ar
    50    99    98    1
    51   131   132    1
    52   132   133    1
    53     7     6    1
    54   140   139    1
    55    11    13    1
    56   134   133    2
    57   133   135   am
    58    33    32    1
    59     6     3   am
    60    52    53    1
    61    52    51    1
    62    34    32    1
    63   135   136    1
    64    92    89    1
    65    90    91    2
    66    90    89    1
    67   139   136    1
    68    32    29    1
    69    53    47    1
    70   136   137    1
    71    89    88    1
    72    51    48    1
    73     3     4    2
    74     3     2    1
    75     1     2    1
    76    21    19    1
    77    35    36    1
    78    47    48    1
    79    47    37   am
    80     2     5    1
    81   165   166    1
    82   165   164    1
    83    29    30    1
    84    29    28    1
    85    48    49    1
    86   167   166    1
    87    88    82   am
    88    20    18    1
    89   137   138    2
    90   137   147   am
    91    36    37    1
    92    36    39    1
    93    30    31    2
    94    37    38    2
    95    19    18    1
    96    18    15    1
    97   164   163    1
    98    28    24   am
    99    83    82    2
   100   147   148    1
   101    82    81    1
   102    49    50    2
   103    49    54   am
   104    17    16    2
   105    39    40    1
   106   150   149    2
   107    24    25    2
   108    24    23    1
   109    16    15    1
   110    16    22   am
   111    15    14    1
   112    40    41   ar
   113    40    42   ar
   114   163   160    1
   115    54    55    1
   116    41    43   ar
   117   148   149    1
   118   148   151    1
   119   149   159   am
   120    81    84    1
   121    81    80    1
   122    42    44   ar
   123    84    85    1
   124    22    23    1
   125    23    26    1
   126    43    45   ar
   127    44    45   ar
   128   154   156   ar
   129   154   152   ar
   130    69    66    1
   131   159   160    1
   132    45    46    1
   133   160   161    1
   134   151   152    1
   135   156   157   ar
   136    65    66    1
   137    65    56   am
   138   152   153   ar
   139    55    56    1
   140    55    58    1
   141    66    67    1
   142    86    85    1
   143    85    87    1
   144    56    57    2
   145   157   158    1
   146   157   155   ar
   147    27    26    1
   148   153   155   ar
   149   161   162    2
   150    58    59    1
   151    67    68    2
   152    67    70   am
   153   172   169    1
   154   172   173    1
   155    59    60   ar
   156    59    61   ar
   157    60    62   ar
   158    70    71    1
   159   169   168    1
   160   169   170    1
   161    78    76   ar
   162    78    79   ar
   163    76    75   ar
   164   173   175   ar
   165   173   174   ar
   166    61    63   ar
   167   175   177   ar
   168    62    64   ar
   169    79    77   ar
   170    71    72    1
   171    71    74    1
   172   170   171    2
   173   174   176   ar
   174    75    77   ar
   175    75    74    1
   176   177   178   ar
   177    72    73    2
   178    63    64   ar
   179   176   178   ar
