@<TRIPOS>MOLECULE
tmp/3pd6A01.pdb
 95 89 0 0 0
SMALL
GASTEIGER

@<TRIPOS>ATOM
      1  N         14.5350   24.8130   52.0950 N.3    15  ILE15      -0.1245
      2  CA        14.0180   23.4590   52.3360 C.3    15  ILE15       0.1561
      3  C         14.7090   22.8240   53.5440 C.2    15  ILE15       0.2260
      4  O         14.0610   22.2260   54.3940 O.2    15  ILE15      -0.2867
      5  CB        14.1000   22.5530   51.0840 C.3    15  ILE15       0.0252
      6  CG1       13.2860   23.1750   49.9350 C.3    15  ILE15       0.0019
      7  CG2       13.6110   21.1090   51.3930 C.3    15  ILE15       0.0019
      8  CD1       13.3800   22.4160   48.5810 C.3    15  ILE15       0.0001
      9  N         12.3670   15.6160   50.1670 N.3    36  GLY36      -0.1225
     10  CA        12.7070   15.6450   48.7480 C.3    36  GLY36       0.1811
     11  C         12.9510   14.2500   48.1950 C.2    36  GLY36       0.2280
     12  O         13.6830   14.0760   47.2100 O.2    36  GLY36      -0.2866
     13  N         21.2440   16.0970   37.9700 N.3   106  THR106     -0.1218
     14  CA        21.9110   17.3590   38.0280 C.3   106  THR106      0.1862
     15  C         23.1280   17.3710   37.1460 C.2   106  THR106      0.2287
     16  O         23.2910   18.3210   36.3310 O.2   106  THR106     -0.2866
     17  CB        22.3080   17.7710   39.4540 C.3   106  THR106      0.1770
     18  OG1       21.1500   17.7240   40.2990 O.3   106  THR106     -0.2211
     19  CG2       22.8440   19.1740   39.4260 C.3   106  THR106      0.0375
     20  N         12.1150   23.8310   38.4220 N.3   133  TRP133     -0.1241
     21  CA        13.1140   23.4640   39.4360 C.3   133  TRP133      0.1605
     22  C         14.1310   24.5690   39.7920 C.2   133  TRP133      0.2264
     23  O         14.8570   25.1010   38.8970 O.2   133  TRP133     -0.2867
     24  CB        13.8680   22.2080   38.9980 C.3   133  TRP133      0.0550
     25  CG        14.6520   21.5710   40.0970 C.ar  133  TRP133      0.0003
     26  CD1       14.2740   21.4240   41.4410 C.ar  133  TRP133      0.0946
     27  CD2       15.9410   20.9540   39.9790 C.ar  133  TRP133      0.0152
     28  NE1       15.2890   20.7800   42.1300 N.ar  133  TRP133     -0.2442
     29  CE2       16.2960   20.4630   41.2590 C.ar  133  TRP133      0.0810
     30  CE3       16.8200   20.7490   38.9120 C.ar  133  TRP133      0.0012
     31  CZ2       17.4800   19.8130   41.4860 C.ar  133  TRP133      0.0191
     32  CZ3       18.0030   20.1160   39.1460 C.ar  133  TRP133      0.0001
     33  CH2       18.3310   19.6590   40.4220 C.ar  133  TRP133      0.0015
     34  N          8.2250   19.7080   38.4840 N.3   186  ASN186     -0.1240
     35  CA         8.7390   20.1080   39.7730 C.3   186  ASN186      0.1653
     36  C          8.9180   21.6310   39.7000 C.2   186  ASN186      0.2266
     37  O          9.7070   22.1090   38.8810 O.2   186  ASN186     -0.2867
     38  CB        10.1010   19.4290   39.9810 C.3   186  ASN186      0.1155
     39  CG        10.7120   19.6640   41.3970 C.2   186  ASN186      0.2627
     40  OD1       10.0860   20.2300   42.2980 O.2   186  ASN186     -0.2716
     41  ND2       11.9370   19.1950   41.5830 N.am  186  ASN186     -0.0877
     42  N         11.7620   11.5440   36.2210 N.3   217  TYR217     -0.1241
     43  CA        10.6980   10.7670   36.8570 C.3   217  TYR217      0.1605
     44  C         10.0210    9.7230   35.9790 C.2   217  TYR217      0.2264
     45  O          8.8660    9.3240   36.2440 O.2   217  TYR217     -0.2867
     46  CB         9.6380   11.7350   37.4390 C.3   217  TYR217      0.0534
     47  CG        10.1880   12.6970   38.4450 C.ar  217  TYR217     -0.0201
     48  CD1       10.5500   12.2550   39.7430 C.ar  217  TYR217     -0.0009
     49  CD2       10.3560   14.0440   38.1270 C.ar  217  TYR217     -0.0009
     50  CE1       11.0450   13.1410   40.6930 C.ar  217  TYR217      0.0417
     51  CE2       10.8790   14.9400   39.0630 C.ar  217  TYR217      0.0417
     52  CZ        11.2120   14.4750   40.3510 C.ar  217  TYR217      0.1957
     53  OH        11.7440   15.3510   41.2620 O.3   217  TYR217     -0.2866
     54  N         14.8960    8.8080   41.8480 N.3   250  LYS250     -0.1245
     55  CA        13.5570    8.4510   42.3260 C.3   250  LYS250      0.1561
     56  C         13.1040    7.0960   41.7880 C.2   250  LYS250      0.2260
     57  O         12.7120    6.2250   42.5600 O.2   250  LYS250     -0.2867
     58  CB        12.4910    9.5140   41.9850 C.3   250  LYS250      0.0271
     59  CG        12.9870   10.9630   42.1110 C.3   250  LYS250      0.0035
     60  CD        13.1520   11.4190   43.5140 C.3   250  LYS250      0.0206
     61  CE        13.2000   12.9490   43.6480 C.3   250  LYS250      0.1093
     62  NZ        14.4220   13.6050   43.2150 N.3   250  LYS250     -0.1314
     63  N         23.9770    8.5760   42.9070 N.3   258  ARG258     -0.1245
     64  CA        24.1420    9.5520   41.8380 C.3   258  ARG258      0.1563
     65  C         24.2080    8.8880   40.4890 C.2   258  ARG258      0.2260
     66  O         25.2750    8.8740   39.8860 O.2   258  ARG258     -0.2867
     67  CB        25.4260   10.3880   42.0000 C.3   258  ARG258      0.0307
     68  CG        25.6840   10.9750   43.3530 C.3   258  ARG258      0.0489
     69  CD        24.4950   11.6820   44.0090 C.3   258  ARG258      0.2205
     70  NE        24.1850   12.9110   43.3150 N.pl3 258  ARG258     -0.0865
     71  CZ        22.9460   13.2850   42.9370 C.cat 258  ARG258      0.5346
     72  NH1       21.8890   12.5180   43.2200 N.pl3 258  ARG258      0.1354
     73  NH2       22.7610   14.4420   42.2960 N.pl3 258  ARG258      0.1354
     74  N          5.4240   15.9680   43.8160 N.3   352  PHE352     -0.1241
     75  CA         5.2940   17.4030   44.2030 C.3   352  PHE352      0.1605
     76  C          3.9510   17.9690   43.8260 C.2   352  PHE352      0.2264
     77  O          3.4630   17.7000   42.7360 O.2   352  PHE352     -0.2867
     78  CB         6.4600   18.2450   43.6270 C.3   352  PHE352      0.0534
     79  CG         7.7830   17.8220   44.1910 C.ar  352  PHE352     -0.0203
     80  CD1        8.0010   17.8690   45.5420 C.ar  352  PHE352     -0.0042
     81  CD2        8.7520   17.2400   43.3920 C.ar  352  PHE352     -0.0042
     82  CE1        9.2170   17.4210   46.0730 C.ar  352  PHE352     -0.0003
     83  CE2        9.9590   16.7790   43.9100 C.ar  352  PHE352     -0.0003
     84  CZ        10.1920   16.8860   45.2530 C.ar  352  PHE352     -0.0000
     85  N          3.9190   24.3450   48.0360 N.3   378  ARG378     -0.1245
     86  CA         4.3600   23.0250   47.5860 C.3   378  ARG378      0.1563
     87  C          4.4290   22.0350   48.7370 C.2   378  ARG378      0.2260
     88  O          5.1220   22.2700   49.7330 O.2   378  ARG378     -0.2867
     89  CB         5.7120   23.0810   46.8960 C.3   378  ARG378      0.0307
     90  CG         6.1220   21.7970   46.2810 C.3   378  ARG378      0.0489
     91  CD         7.6140   21.7210   46.0060 C.3   378  ARG378      0.2205
     92  NE         8.3730   21.4510   47.2280 N.pl3 378  ARG378     -0.0865
     93  CZ         9.5710   20.8410   47.2730 C.cat 378  ARG378      0.5346
     94  NH1       10.1860   20.4300   46.1500 N.pl3 378  ARG378      0.1354
     95  NH2       10.1590   20.6510   48.4610 N.pl3 378  ARG378      0.1354
@<TRIPOS>BOND
     1    44    45    2
     2    44    43    1
     3    42    43    1
     4    16    15    2
     5    43    46    1
     6    15    14    1
     7    46    47    1
     8    13    14    1
     9    14    17    1
    10    49    47   ar
    11    49    51   ar
    12    20    21    1
    13    47    48   ar
    14    34    35    1
    15    37    36    2
    16    23    22    2
    17    30    32   ar
    18    30    27   ar
    19    24    21    1
    20    24    25    1
    21    51    52   ar
    22    32    33   ar
    23    19    17    1
    24    21    22    1
    25    17    18    1
    26    36    35    1
    27    48    50   ar
    28    35    38    1
    29    66    65    2
    30    27    25   ar
    31    27    29   ar
    32    38    39    1
    33    25    26   ar
    34    52    50   ar
    35    52    53    1
    36    33    31   ar
    37    65    64    1
    38    29    31   ar
    39    29    28   ar
    40    39    41   am
    41    39    40    2
    42    26    28   ar
    43    56    55    1
    44    56    57    2
    45    64    67    1
    46    64    63    1
    47    54    55    1
    48    58    59    1
    49    58    55    1
    50    67    68    1
    51    59    60    1
    52    73    71    1
    53    77    76    2
    54    71    72    1
    55    71    70    2
    56    62    61    1
    57    70    69    1
    58    68    69    1
    59    81    83   ar
    60    81    79   ar
    61    60    61    1
    62    78    79    1
    63    78    75    1
    64    74    75    1
    65    76    75    1
    66    83    84   ar
    67    79    80   ar
    68    84    82   ar
    69    80    82   ar
    70    91    90    1
    71    91    92    1
    72    94    93    1
    73    90    89    1
    74    89    86    1
    75    12    11    2
    76    92    93    2
    77    93    95    1
    78    86    85    1
    79    86    87    1
    80    11    10    1
    81     8     6    1
    82    87    88    2
    83    10     9    1
    84     6     5    1
    85     5     7    1
    86     5     2    1
    87     1     2    1
    88     2     3    1
    89     3     4    2
