@<TRIPOS>MOLECULE
tmp/3pd8B00.pdb
 114 108 0 0 0
SMALL
GASTEIGER

@<TRIPOS>ATOM
      1  N         81.8090   28.3800   47.9740 N.3    60  TYR60      -0.1241
      2  CA        80.4120   28.2900   48.3940 C.3    60  TYR60       0.1605
      3  C         80.2710   27.5180   49.7070 C.2    60  TYR60       0.2264
      4  O         79.6770   28.0050   50.6720 O.2    60  TYR60      -0.2867
      5  CB        79.5480   27.6880   47.2770 C.3    60  TYR60       0.0534
      6  CG        79.3630   28.6550   46.1300 C.ar   60  TYR60      -0.0201
      7  CD1       78.3520   29.6080   46.1630 C.ar   60  TYR60      -0.0009
      8  CD2       80.2220   28.6430   45.0310 C.ar   60  TYR60      -0.0009
      9  CE1       78.1840   30.5120   45.1300 C.ar   60  TYR60       0.0417
     10  CE2       80.0630   29.5480   43.9890 C.ar   60  TYR60       0.0417
     11  CZ        79.0390   30.4790   44.0480 C.ar   60  TYR60       0.1957
     12  OH        78.8540   31.3820   43.0310 O.3    60  TYR60      -0.2866
     13  N         74.2330   33.2190   45.2430 N.3    88  PRO88      -0.2102
     14  CA        73.7440   32.0740   44.4670 C.3    88  PRO88       0.1504
     15  C         74.0810   30.7480   45.1560 C.2    88  PRO88       0.2576
     16  O         74.7000   29.8710   44.5510 O.2    88  PRO88      -0.2718
     17  CB        74.5270   32.1990   43.1540 C.3    88  PRO88       0.0282
     18  CG        75.7270   33.0230   43.5160 C.3    88  PRO88       0.0208
     19  CD        75.1620   34.0320   44.4450 C.3    88  PRO88       0.0893
     20  N         73.6710   30.6180   46.4150 N.am   89  LEU89      -0.1966
     21  CA        73.9940   29.4510   47.2260 C.3    89  LEU89       0.1728
     22  C         72.9090   28.3930   47.1210 C.2    89  LEU89       0.2616
     23  O         71.7850   28.5910   47.5760 O.2    89  LEU89      -0.2715
     24  CB        74.1900   29.8620   48.6860 C.3    89  LEU89       0.0311
     25  CG        74.5740   28.7690   49.6840 C.3    89  LEU89       0.0022
     26  CD1       75.9380   28.1660   49.3540 C.3    89  LEU89       0.0001
     27  CD2       74.5590   29.3360   51.0930 C.3    89  LEU89       0.0001
     28  N         73.2530   27.2630   46.5190 N.am   90  THR90      -0.1951
     29  CA        72.2750   26.2140   46.2650 C.3    90  THR90       0.1897
     30  C         71.7650   25.5140   47.5320 C.2    90  THR90       0.2313
     31  O         72.5590   25.0510   48.3580 O.2    90  THR90      -0.2863
     32  CB        72.8310   25.1750   45.2850 C.3    90  THR90       0.1794
     33  OG1       73.1880   25.8340   44.0670 O.3    90  THR90      -0.2208
     34  CG2       71.7880   24.0980   44.9890 C.3    90  THR90       0.0378
     35  N         73.7320   20.7210   53.3130 N.3    95  ARG95      -0.1245
     36  CA        73.8090   22.0940   53.8070 C.3    95  ARG95       0.1563
     37  C         72.6670   22.3870   54.7810 C.2    95  ARG95       0.2260
     38  O         72.8830   22.9350   55.8540 O.2    95  ARG95      -0.2867
     39  CB        73.8030   23.0870   52.6400 C.3    95  ARG95       0.0307
     40  CG        75.1390   23.1700   51.9050 C.3    95  ARG95       0.0489
     41  CD        75.0000   23.8230   50.5390 C.3    95  ARG95       0.2205
     42  NE        76.2930   24.0040   49.8760 N.pl3  95  ARG95      -0.0865
     43  CZ        76.4580   24.6290   48.7110 C.cat  95  ARG95       0.5346
     44  NH1       75.4090   25.1250   48.0680 N.pl3  95  ARG95       0.1354
     45  NH2       77.6710   24.7620   48.1840 N.pl3  95  ARG95       0.1354
     46  N         82.6000   22.9760   38.7750 N.3   137  LEU137     -0.1245
     47  CA        83.1930   23.7710   39.8390 C.3   137  LEU137      0.1561
     48  C         83.5850   22.8940   41.0310 C.2   137  LEU137      0.2260
     49  O         82.8520   21.9820   41.4100 O.2   137  LEU137     -0.2867
     50  CB        82.2180   24.8550   40.3120 C.3   137  LEU137      0.0270
     51  CG        82.6340   25.7040   41.5250 C.3   137  LEU137      0.0019
     52  CD1       83.9530   26.4430   41.2550 C.3   137  LEU137      0.0001
     53  CD2       81.5330   26.6870   41.9180 C.3   137  LEU137      0.0001
     54  N         81.4770   22.8210   45.0730 N.3   140  GLY140     -0.1210
     55  CA        80.1250   23.2510   44.7640 C.3   140  GLY140      0.1956
     56  C         79.1030   22.1290   44.8140 C.2   140  GLY140      0.2613
     57  O         79.4550   20.9600   44.9420 O.2   140  GLY140     -0.2717
     58  N         77.8290   22.4920   44.7140 N.am  141  SER141     -0.1938
     59  CA        76.7490   21.5150   44.6830 C.3   141  SER141      0.2055
     60  C         76.7470   20.6810   43.4000 C.2   141  SER141      0.2643
     61  O         76.2340   19.5630   43.3910 O.2   141  SER141     -0.2714
     62  CB        75.3970   22.2150   44.8450 C.3   141  SER141      0.2130
     63  OG        75.2020   23.1910   43.8300 O.3   141  SER141     -0.2179
     64  N         77.3110   21.2230   42.3190 N.am  142  THR142     -0.1950
     65  CA        77.2900   20.5250   41.0290 C.3   142  THR142      0.1897
     66  C         78.1670   19.2900   41.0870 C.2   142  THR142      0.2313
     67  O         77.7720   18.2040   40.6510 O.2   142  THR142     -0.2863
     68  CB        77.7820   21.4130   39.8670 C.3   142  THR142      0.1794
     69  OG1       76.9460   22.5630   39.7520 O.3   142  THR142     -0.2208
     70  CG2       77.7510   20.6480   38.5450 C.3   142  THR142      0.0378
     71  N         84.0360   29.9190   38.7490 N.3   173  THR173     -0.1218
     72  CA        83.2430   29.9420   37.5290 C.3   173  THR173      0.1862
     73  C         84.0270   30.5950   36.3840 C.2   173  THR173      0.2287
     74  O         84.0620   30.0950   35.2630 O.2   173  THR173     -0.2866
     75  CB        81.9090   30.6720   37.7580 C.3   173  THR173      0.1770
     76  OG1       81.2340   30.0750   38.8720 O.3   173  THR173     -0.2211
     77  CG2       81.0160   30.5570   36.5350 C.3   173  THR173      0.0375
     78  N         81.8580   22.6930   29.9150 N.3   189  TYR189     -0.1241
     79  CA        81.7750   23.0330   31.3340 C.3   189  TYR189      0.1605
     80  C         80.3810   22.8000   31.9220 C.2   189  TYR189      0.2264
     81  O         79.3770   23.1590   31.3140 O.2   189  TYR189     -0.2867
     82  CB        82.2330   24.4790   31.5520 C.3   189  TYR189      0.0534
     83  CG        82.3710   24.8830   33.0010 C.ar  189  TYR189     -0.0201
     84  CD1       83.0110   24.0590   33.9150 C.ar  189  TYR189     -0.0009
     85  CD2       81.8770   26.0980   33.4490 C.ar  189  TYR189     -0.0009
     86  CE1       83.1410   24.4270   35.2420 C.ar  189  TYR189      0.0417
     87  CE2       82.0050   26.4760   34.7650 C.ar  189  TYR189      0.0417
     88  CZ        82.6350   25.6390   35.6600 C.ar  189  TYR189      0.1957
     89  OH        82.7580   26.0220   36.9730 O.3   189  TYR189     -0.2866
     90  N         77.7330   23.5890   34.8450 N.3   191  LEU191     -0.1231
     91  CA        77.4320   24.6530   35.7850 C.3   191  LEU191      0.1693
     92  C         75.9380   24.9290   35.7600 C.2   191  LEU191      0.2591
     93  O         75.1990   24.3740   34.9390 O.2   191  LEU191     -0.2718
     94  CB        78.1970   25.9210   35.4160 C.3   191  LEU191      0.0284
     95  CG        77.6060   26.7500   34.2720 C.3   191  LEU191      0.0019
     96  CD1       78.2110   28.1290   34.2650 C.3   191  LEU191      0.0001
     97  CD2       77.7880   26.0760   32.9060 C.3   191  LEU191      0.0001
     98  N         75.4920   25.8000   36.6510 N.am  192  GLU192     -0.1979
     99  CA        74.0620   26.0480   36.7950 C.3   192  GLU192      0.1602
    100  C         73.5380   26.9620   35.6910 C.2   192  GLU192      0.2287
    101  O         74.2450   27.8470   35.2050 O.2   192  GLU192     -0.2864
    102  CB        73.7450   26.5720   38.2020 C.3   192  GLU192      0.0415
    103  CG        74.0800   25.5350   39.2880 C.3   192  GLU192      0.1163
    104  CD        74.0920   26.0950   40.7000 C.2   192  GLU192      0.3649
    105  OE1       73.8050   25.3180   41.6280 O.co2 192  GLU192     -0.2457
    106  OE2       74.3900   27.2950   40.8900 O.co2 192  GLU192     -0.2457
    107  N         73.9590   30.9550   35.4880 N.3   195  MET195     -0.1245
    108  CA        75.2580   31.4950   35.0950 C.3   195  MET195      0.1570
    109  C         75.5250   31.2140   33.6320 C.2   195  MET195      0.2261
    110  O         76.0490   32.0700   32.9120 O.2   195  MET195     -0.2867
    111  CB        76.3860   30.9080   35.9510 C.3   195  MET195      0.0387
    112  CG        76.9050   31.8380   37.0320 C.3   195  MET195      0.0595
    113  SD        77.1920   30.9830   38.5970 S.3   195  MET195     -0.1393
    114  CE        75.4960   30.6460   39.0260 C.3   195  MET195      0.0692
@<TRIPOS>BOND
     1    78    79    1
     2    81    80    2
     3    79    82    1
     4    79    80    1
     5    82    83    1
     6    97    95    1
     7   110   109    2
     8    83    85   ar
     9    83    84   ar
    10    85    87   ar
    11   109   108    1
    12    84    86   ar
    13    96    95    1
    14    95    94    1
    15    87    88   ar
    16    90    91    1
    17    93    92    2
    18   108   107    1
    19   108   111    1
    20   101   100    2
    21    86    88   ar
    22    74    73    2
    23    94    91    1
    24    88    89    1
    25   100    99    1
    26    92    91    1
    27    92    98   am
    28   111   112    1
    29    73    72    1
    30    77    75    1
    31    98    99    1
    32    99   102    1
    33   112   113    1
    34    72    75    1
    35    72    71    1
    36    75    76    1
    37   102   103    1
    38    70    68    1
    39   113   114    1
    40    46    47    1
    41   103   104    1
    42    69    68    1
    43    47    50    1
    44    47    48    1
    45    68    65    1
    46    50    51    1
    47    67    66    2
    48   104   106   ar
    49   104   105   ar
    50    65    66    1
    51    65    64    1
    52    48    49    2
    53    52    51    1
    54    51    53    1
    55    64    60   am
    56    12    11    1
    57    17    18    1
    58    17    14    1
    59    61    60    2
    60    60    59    1
    61    18    19    1
    62    63    62    1
    63    10    11   ar
    64    10     8   ar
    65    11     9   ar
    66    33    32    1
    67    19    13    1
    68    14    15    1
    69    14    13    1
    70    16    15    2
    71    59    58    1
    72    59    62    1
    73    58    56   am
    74    55    56    1
    75    55    54    1
    76    56    57    2
    77    34    32    1
    78     8     6   ar
    79     9     7   ar
    80    15    20   am
    81    32    29    1
    82     6     7   ar
    83     6     5    1
    84    29    28    1
    85    29    30    1
    86    20    21    1
    87    28    22   am
    88    22    21    1
    89    22    23    2
    90    21    24    1
    91     5     2    1
    92    30    31    2
    93     1     2    1
    94    44    43    1
    95    45    43    1
    96     2     3    1
    97    24    25    1
    98    43    42    2
    99    26    25    1
   100    25    27    1
   101     3     4    2
   102    42    41    1
   103    41    40    1
   104    40    39    1
   105    39    36    1
   106    35    36    1
   107    36    37    1
   108    37    38    2
