@<TRIPOS>MOLECULE
tmp/3pd9A00.pdb
 149 143 0 0 0
SMALL
GASTEIGER

@<TRIPOS>ATOM
      1  N         61.5540   36.5920   44.4490 N.3    10  GLU10      -0.1245
      2  CA        61.4190   35.5240   45.4310 C.3    10  GLU10       0.1567
      3  C         62.6700   35.5120   46.2850 C.2    10  GLU10       0.2260
      4  O         63.7420   35.1420   45.7990 O.2    10  GLU10      -0.2867
      5  CB        61.2850   34.1670   44.7130 C.3    10  GLU10       0.0388
      6  CG        60.9470   32.9870   45.6130 C.3    10  GLU10       0.1160
      7  CD        59.5190   33.0430   46.1350 C.2    10  GLU10       0.3649
      8  OE1       58.5820   32.7490   45.3610 O.co2  10  GLU10      -0.2457
      9  OE2       59.3320   33.3770   47.3230 O.co2  10  GLU10      -0.2457
     10  N         55.3640   30.8070   38.3960 N.3    58  TYR58      -0.1241
     11  CA        56.4310   29.8880   38.0600 C.3    58  TYR58       0.1605
     12  C         56.1090   29.1930   36.7530 C.2    58  TYR58       0.2264
     13  O         56.9420   29.1400   35.8540 O.2    58  TYR58      -0.2867
     14  CB        56.6530   28.8760   39.1930 C.3    58  TYR58       0.0534
     15  CG        57.3720   29.4870   40.3670 C.ar   58  TYR58      -0.0201
     16  CD1       58.7550   29.5940   40.3620 C.ar   58  TYR58      -0.0009
     17  CD2       56.6730   29.9870   41.4650 C.ar   58  TYR58      -0.0009
     18  CE1       59.4310   30.1530   41.4070 C.ar   58  TYR58       0.0417
     19  CE2       57.3500   30.5450   42.5460 C.ar   58  TYR58       0.0417
     20  CZ        58.7310   30.6260   42.4980 C.ar   58  TYR58       0.1957
     21  OH        59.4460   31.1840   43.5180 O.3    58  TYR58      -0.2866
     22  N         64.2430   29.8120   41.1320 N.3    86  PRO86      -0.2102
     23  CA        63.9330   28.5890   41.8890 C.3    86  PRO86       0.1504
     24  C         62.7560   27.8590   41.2410 C.2    86  PRO86       0.2576
     25  O         61.6740   27.7500   41.8220 O.2    86  PRO86      -0.2718
     26  CB        63.5590   29.1180   43.2850 C.3    86  PRO86       0.0282
     27  CG        63.1180   30.5570   43.0500 C.3    86  PRO86       0.0208
     28  CD        64.0030   31.0390   41.9180 C.3    86  PRO86       0.0893
     29  N         62.9800   27.3870   40.0160 N.am   87  LEU87      -0.1966
     30  CA        61.9560   26.7240   39.2180 C.3    87  LEU87       0.1728
     31  C         62.1570   25.2220   39.3190 C.2    87  LEU87       0.2616
     32  O         63.2100   24.6960   38.9320 O.2    87  LEU87      -0.2715
     33  CB        62.0640   27.1570   37.7510 C.3    87  LEU87       0.0311
     34  CG        60.9770   26.6560   36.7870 C.3    87  LEU87       0.0022
     35  CD1       59.6230   27.2620   37.1250 C.3    87  LEU87       0.0001
     36  CD2       61.3520   26.9700   35.3470 C.3    87  LEU87       0.0001
     37  N         61.1510   24.5330   39.8350 N.am   88  THR88      -0.1951
     38  CA        61.2790   23.1120   40.1430 C.3    88  THR88       0.1897
     39  C         61.2230   22.2320   38.8920 C.2    88  THR88       0.2313
     40  O         60.3310   22.3720   38.0550 O.2    88  THR88      -0.2863
     41  CB        60.2170   22.6890   41.1600 C.3    88  THR88       0.1794
     42  OG1       60.3430   23.5160   42.3220 O.3    88  THR88      -0.2208
     43  CG2       60.3660   21.2170   41.5670 C.3    88  THR88       0.0378
     44  N         56.7420   19.7020   33.2380 N.3    93  ARG93      -0.1245
     45  CA        57.5490   20.7650   32.6220 C.3    93  ARG93       0.1563
     46  C         58.6470   20.2400   31.6830 C.2    93  ARG93       0.2260
     47  O         58.9210   20.8270   30.6310 O.2    93  ARG93      -0.2867
     48  CB        58.1560   21.6770   33.6890 C.3    93  ARG93       0.0307
     49  CG        57.1080   22.4480   34.4980 C.3    93  ARG93       0.0489
     50  CD        57.7400   23.1220   35.6980 C.3    93  ARG93       0.2205
     51  NE        56.8100   24.0090   36.3870 N.pl3  93  ARG93      -0.0865
     52  CZ        57.0390   24.5390   37.5810 C.cat  93  ARG93       0.5346
     53  NH1       58.1650   24.2480   38.2430 N.pl3  93  ARG93       0.1354
     54  NH2       56.1330   25.3430   38.1190 N.pl3  93  ARG93       0.1354
     55  N         50.9620   27.8150   47.6230 N.3   135  LEU135     -0.1245
     56  CA        50.8720   28.7820   46.5500 C.3   135  LEU135      0.1561
     57  C         49.7110   28.3690   45.6200 C.2   135  LEU135      0.2260
     58  O         49.5400   27.1850   45.3240 O.2   135  LEU135     -0.2867
     59  CB        52.2050   28.7980   45.8130 C.3   135  LEU135      0.0270
     60  CG        52.7270   30.0430   45.1190 C.3   135  LEU135      0.0019
     61  CD1       52.8150   31.2180   46.0910 C.3   135  LEU135      0.0001
     62  CD2       54.0890   29.7300   44.5040 C.3   135  LEU135      0.0001
     63  N         49.4070   28.4820   42.6860 N.3   137  SER137     -0.1202
     64  CA        49.9240   27.8670   41.4730 C.3   137  SER137      0.2020
     65  C         51.3260   27.3250   41.7600 C.2   137  SER137      0.2619
     66  O         51.9360   27.6810   42.7680 O.2   137  SER137     -0.2717
     67  CB        49.9720   28.8780   40.3370 C.3   137  SER137      0.2103
     68  OG        50.6150   28.3320   39.2060 O.3   137  SER137     -0.2182
     69  N         51.8290   26.4560   40.8880 N.am  138  GLY138     -0.1942
     70  CA        53.1950   25.9730   41.0020 C.3   138  GLY138      0.2014
     71  C         53.2830   24.5150   41.3790 C.2   138  GLY138      0.2640
     72  O         52.2600   23.8450   41.5290 O.2   138  GLY138     -0.2714
     73  N         54.5070   24.0290   41.5670 N.am  139  SER139     -0.1935
     74  CA        54.7240   22.6030   41.7440 C.3   139  SER139      0.2055
     75  C         54.2780   22.0310   43.0850 C.2   139  SER139      0.2643
     76  O         54.0490   20.8330   43.1880 O.2   139  SER139     -0.2714
     77  CB        56.1840   22.2220   41.4420 C.3   139  SER139      0.2130
     78  OG        57.0970   22.8110   42.3460 O.3   139  SER139     -0.2179
     79  N         54.1610   22.8580   44.1210 N.am  140  THR140     -0.1950
     80  CA        53.6890   22.3290   45.4090 C.3   140  THR140      0.1897
     81  C         52.1950   22.0230   45.3180 C.2   140  THR140      0.2313
     82  O         51.7340   20.9540   45.7150 O.2   140  THR140     -0.2863
     83  CB        53.9870   23.2910   46.5900 C.3   140  THR140      0.1794
     84  OG1       55.4030   23.4400   46.7410 O.3   140  THR140     -0.2208
     85  CG2       53.4110   22.7570   47.8860 C.3   140  THR140      0.0378
     86  N         54.6220   33.7100   47.9980 N.3   171  THR171     -0.1218
     87  CA        55.1590   33.1630   49.2350 C.3   171  THR171      0.1862
     88  C         55.0360   34.1830   50.3670 C.2   171  THR171      0.2287
     89  O         54.7580   33.8220   51.5110 O.2   171  THR171     -0.2866
     90  CB        56.6340   32.7560   49.0860 C.3   171  THR171      0.1770
     91  OG1       56.7840   31.9100   47.9440 O.3   171  THR171     -0.2211
     92  CG2       57.0920   32.0070   50.3210 C.3   171  THR171      0.0375
     93  N         51.6810   26.7980   56.4370 N.3   187  TYR187     -0.1227
     94  CA        51.9550   27.0140   55.0240 C.3   187  TYR187      0.1736
     95  C         52.8950   25.9570   54.4420 C.2   187  TYR187      0.2595
     96  O         53.9820   25.7070   54.9820 O.2   187  TYR187     -0.2718
     97  CB        52.5150   28.4320   54.8070 C.3   187  TYR187      0.0548
     98  CG        52.7330   28.8240   53.3560 C.ar  187  TYR187     -0.0200
     99  CD1       51.7140   28.7130   52.4130 C.ar  187  TYR187     -0.0009
    100  CD2       53.9480   29.3370   52.9390 C.ar  187  TYR187     -0.0009
    101  CE1       51.9190   29.0750   51.0810 C.ar  187  TYR187      0.0417
    102  CE2       54.1620   29.6990   51.6200 C.ar  187  TYR187      0.0417
    103  CZ        53.1550   29.5700   50.6970 C.ar  187  TYR187      0.1957
    104  OH        53.4020   29.9450   49.3910 O.3   187  TYR187     -0.2866
    105  N         52.4730   25.3550   53.3330 N.am  188  LEU188     -0.1966
    106  CA        53.2670   24.3550   52.6250 C.3   188  LEU188      0.1728
    107  C         54.0510   25.0350   51.5080 C.2   188  LEU188      0.2616
    108  O         53.4580   25.6300   50.6090 O.2   188  LEU188     -0.2715
    109  CB        52.3440   23.2680   52.0570 C.3   188  LEU188      0.0311
    110  CG        51.4350   22.6420   53.1250 C.3   188  LEU188      0.0022
    111  CD1       50.2200   21.9370   52.5300 C.3   188  LEU188      0.0001
    112  CD2       52.2380   21.7000   54.0140 C.3   188  LEU188      0.0001
    113  N         55.3790   24.9570   51.5790 N.am  189  LEU189     -0.1963
    114  CA        56.2580   25.6270   50.6260 C.3   189  LEU189      0.1728
    115  C         57.6080   24.9070   50.5330 C.2   189  LEU189      0.2616
    116  O         57.9240   24.0460   51.3530 O.2   189  LEU189     -0.2715
    117  CB        56.4580   27.1030   51.0030 C.3   189  LEU189      0.0311
    118  CG        57.4490   27.4310   52.1290 C.3   189  LEU189      0.0022
    119  CD1       57.6960   28.9230   52.2380 C.3   189  LEU189      0.0001
    120  CD2       57.0020   26.8490   53.4820 C.3   189  LEU189      0.0001
    121  N         58.4030   25.2410   49.5260 N.am  190  GLU190     -0.1977
    122  CA        59.6770   24.5490   49.3550 C.3   190  GLU190      0.1602
    123  C         60.6910   24.9310   50.4510 C.2   190  GLU190      0.2287
    124  O         60.6800   26.0500   50.9640 O.2   190  GLU190     -0.2864
    125  CB        60.1980   24.6860   47.9100 C.3   190  GLU190      0.0415
    126  CG        59.2500   23.9890   46.9320 C.3   190  GLU190      0.1163
    127  CD        59.5970   24.1680   45.4690 C.2   190  GLU190      0.3649
    128  OE1       60.3030   25.1340   45.1210 O.co2 190  GLU190     -0.2457
    129  OE2       59.1350   23.3280   44.6650 O.co2 190  GLU190     -0.2457
    130  N         63.0650   28.2560   50.8270 N.3   193  MET193     -0.1245
    131  CA        62.5180   29.5120   51.3330 C.3   193  MET193      0.1570
    132  C         62.1480   29.3850   52.8060 C.2   193  MET193      0.2261
    133  O         62.3180   30.3350   53.5640 O.2   193  MET193     -0.2867
    134  CB        61.3050   29.9760   50.5270 C.3   193  MET193      0.0387
    135  CG        61.5900   30.2280   49.0700 C.3   193  MET193      0.0595
    136  SD        61.4060   28.7240   48.1120 S.3   193  MET193     -0.1393
    137  CE        61.3450   29.4110   46.4570 C.3   193  MET193      0.0692
    138  N         65.9390   22.3410   41.6590 N.3   217  TYR217     -0.1241
    139  CA        65.7530   23.4600   40.7390 C.3   217  TYR217      0.1605
    140  C         66.7450   23.3080   39.6110 C.2   217  TYR217      0.2264
    141  O         67.9160   22.9650   39.8470 O.2   217  TYR217     -0.2867
    142  CB        66.0710   24.7920   41.4240 C.3   217  TYR217      0.0534
    143  CG        65.1600   25.1540   42.5660 C.ar  217  TYR217     -0.0201
    144  CD1       63.8020   24.8800   42.4990 C.ar  217  TYR217     -0.0009
    145  CD2       65.6530   25.8060   43.6990 C.ar  217  TYR217     -0.0009
    146  CE1       62.9520   25.2140   43.5380 C.ar  217  TYR217      0.0417
    147  CE2       64.8050   26.1580   44.7440 C.ar  217  TYR217      0.0417
    148  CZ        63.4560   25.8550   44.6500 C.ar  217  TYR217      0.1957
    149  OH        62.6030   26.1740   45.6690 O.3   217  TYR217     -0.2866
@<TRIPOS>BOND
     1    47    46    2
     2    46    45    1
     3    45    44    1
     4    45    48    1
     5    48    49    1
     6    49    50    1
     7    36    34    1
     8    50    51    1
     9    13    12    2
    10    51    52    2
    11    12    11    1
    12    34    35    1
    13    34    33    1
    14    52    54    1
    15    52    53    1
    16    33    30    1
    17    40    39    2
    18    11    10    1
    19    11    14    1
    20    39    38    1
    21    32    31    2
    22    14    15    1
    23    68    67    1
    24    30    31    1
    25    30    29    1
    26    31    37   am
    27   140   141    2
    28   140   139    1
    29    37    38    1
    30    29    24   am
    31    38    41    1
    32    67    64    1
    33    16    15   ar
    34    16    18   ar
    35    15    17   ar
    36   139   142    1
    37   139   138    1
    38    69    70    1
    39    69    65   am
    40    70    71    1
    41    22    23    1
    42    22    28    1
    43    41    43    1
    44    41    42    1
    45    24    25    2
    46    24    23    1
    47    71    72    2
    48    71    73   am
    49    18    20   ar
    50   142   143    1
    51    77    74    1
    52    77    78    1
    53    17    19   ar
    54    64    65    1
    55    64    63    1
    56    73    74    1
    57    74    75    1
    58    65    66    2
    59    23    26    1
    60    28    27    1
    61    20    19   ar
    62    20    21    1
    63   144   143   ar
    64   144   146   ar
    65   143   145   ar
    66    27    26    1
    67    75    76    2
    68    75    79   am
    69   146   148   ar
    70   145   147   ar
    71    79    80    1
    72     1     2    1
    73    62    60    1
    74   148   147   ar
    75   148   149    1
    76   129   127   ar
    77     5     2    1
    78     5     6    1
    79    60    59    1
    80    60    61    1
    81   128   127   ar
    82    81    80    1
    83    81    82    2
    84    58    57    2
    85     8     7   ar
    86    80    83    1
    87     2     3    1
    88   127   126    1
    89     6     7    1
    90    57    56    1
    91     4     3    2
    92    59    56    1
    93     7     9   ar
    94   137   136    1
    95    56    55    1
    96    83    84    1
    97    83    85    1
    98   126   125    1
    99   125   122    1
   100    91    90    1
   101    86    87    1
   102   136   135    1
   103   135   134    1
   104    90    87    1
   105    90    92    1
   106    87    88    1
   107   122   121    1
   108   122   123    1
   109   104   103    1
   110   121   115   am
   111    88    89    2
   112   123   124    2
   113   134   131    1
   114   115   114    1
   115   115   116    2
   116   108   107    2
   117   114   117    1
   118   114   113    1
   119   103   101   ar
   120   103   102   ar
   121   130   131    1
   122   117   118    1
   123   101    99   ar
   124   131   132    1
   125   107   113   am
   126   107   106    1
   127   102   100   ar
   128   109   106    1
   129   109   110    1
   130   118   119    1
   131   118   120    1
   132    99    98   ar
   133   111   110    1
   134   106   105    1
   135   132   133    2
   136   100    98   ar
   137   110   112    1
   138   105    95   am
   139    98    97    1
   140    95    96    2
   141    95    94    1
   142    97    94    1
   143    94    93    1
