@<TRIPOS>MOLECULE
tmp/3pdbA00.pdb
 94 89 0 0 0
SMALL
GASTEIGER

@<TRIPOS>ATOM
      1  N        -14.4560  -13.7860  -51.5230 N.3    15  ILE15      -0.1245
      2  CA       -14.0250  -15.1800  -51.7060 C.3    15  ILE15       0.1561
      3  C        -14.6750  -15.8450  -52.9450 C.2    15  ILE15       0.2260
      4  O        -13.9880  -16.4790  -53.7340 O.2    15  ILE15      -0.2867
      5  CB       -14.2240  -16.0460  -50.4270 C.3    15  ILE15       0.0252
      6  CG1      -13.5110  -15.3940  -49.2320 C.3    15  ILE15       0.0019
      7  CG2      -13.7180  -17.4490  -50.6660 C.3    15  ILE15       0.0019
      8  CD1      -13.4830  -16.2380  -47.9150 C.3    15  ILE15       0.0001
      9  N        -12.5440  -23.1910  -49.8420 N.3    36  GLY36      -0.1225
     10  CA       -12.8500  -23.1990  -48.4160 C.3    36  GLY36       0.1811
     11  C        -13.1350  -24.5950  -47.8700 C.2    36  GLY36       0.2280
     12  O        -13.9480  -24.7740  -46.9460 O.2    36  GLY36      -0.2866
     13  N        -21.3400  -22.9280  -37.7670 N.3   106  THR106     -0.1218
     14  CA       -21.9370  -21.6000  -37.8420 C.3   106  THR106      0.1862
     15  C        -23.1590  -21.6150  -36.9470 C.2   106  THR106      0.2287
     16  O        -23.3790  -20.6850  -36.1550 O.2   106  THR106     -0.2866
     17  CB       -22.3350  -21.2250  -39.2850 C.3   106  THR106      0.1770
     18  OG1      -21.1870  -21.3010  -40.1140 O.3   106  THR106     -0.2211
     19  CG2      -22.8490  -19.8000  -39.3800 C.3   106  THR106      0.0375
     20  N        -12.2870  -15.1520  -38.1650 N.3   133  TRP133     -0.1241
     21  CA       -13.2040  -15.5490  -39.1910 C.3   133  TRP133      0.1605
     22  C        -14.1960  -14.3940  -39.4630 C.2   133  TRP133      0.2264
     23  O        -14.7990  -13.8220  -38.5280 O.2   133  TRP133     -0.2867
     24  CB       -13.9020  -16.8340  -38.7530 C.3   133  TRP133      0.0550
     25  CG       -14.6920  -17.5020  -39.8470 C.ar  133  TRP133      0.0003
     26  CD1      -14.3120  -17.7090  -41.1490 C.ar  133  TRP133      0.0946
     27  CD2      -15.9900  -18.0770  -39.7160 C.ar  133  TRP133      0.0152
     28  NE1      -15.3000  -18.3790  -41.8300 N.ar  133  TRP133     -0.2442
     29  CE2      -16.3340  -18.6290  -40.9740 C.ar  133  TRP133      0.0810
     30  CE3      -16.8840  -18.2060  -38.6530 C.ar  133  TRP133      0.0012
     31  CZ2      -17.5410  -19.2690  -41.1960 C.ar  133  TRP133      0.0191
     32  CZ3      -18.0760  -18.8560  -38.8720 C.ar  133  TRP133      0.0001
     33  CH2      -18.3990  -19.3780  -40.1360 C.ar  133  TRP133      0.0015
     34  N         -8.3580  -19.2920  -38.0170 N.3   186  ASN186     -0.1240
     35  CA        -8.7890  -18.9200  -39.3650 C.3   186  ASN186      0.1653
     36  C         -9.0410  -17.3990  -39.3650 C.2   186  ASN186      0.2266
     37  O         -9.9320  -16.9490  -38.6400 O.2   186  ASN186     -0.2867
     38  CB       -10.0950  -19.6880  -39.7020 C.3   186  ASN186      0.1155
     39  CG       -10.6730  -19.3140  -41.1020 C.2   186  ASN186      0.2627
     40  OD1      -10.0220  -18.6210  -41.8940 O.2   186  ASN186     -0.2716
     41  ND2      -11.8750  -19.7990  -41.4060 N.am  186  ASN186     -0.0877
     42  N        -11.8070  -27.2950  -36.0120 N.3   217  TYR217     -0.1241
     43  CA       -10.7670  -28.1200  -36.6140 C.3   217  TYR217      0.1605
     44  C        -10.0730  -29.2020  -35.7880 C.2   217  TYR217      0.2264
     45  O         -8.9510  -29.5980  -36.1360 O.2   217  TYR217     -0.2867
     46  CB        -9.7130  -27.2000  -37.2220 C.3   217  TYR217      0.0534
     47  CG       -10.2570  -26.2230  -38.2300 C.ar  217  TYR217     -0.0201
     48  CD1      -10.6850  -26.6620  -39.4900 C.ar  217  TYR217     -0.0009
     49  CD2      -10.3330  -24.8710  -37.9360 C.ar  217  TYR217     -0.0009
     50  CE1      -11.1690  -25.7750  -40.4360 C.ar  217  TYR217      0.0417
     51  CE2      -10.8150  -23.9650  -38.8660 C.ar  217  TYR217      0.0417
     52  CZ       -11.2300  -24.4370  -40.1210 C.ar  217  TYR217      0.1957
     53  OH       -11.7420  -23.5770  -41.0550 O.3   217  TYR217     -0.2866
     54  N        -24.0210  -30.2830  -42.4960 N.3   257  ARG257     -0.1245
     55  CA       -24.2650  -29.3030  -41.4290 C.3   257  ARG257      0.1563
     56  C        -24.3840  -30.0240  -40.1040 C.2   257  ARG257      0.2260
     57  O        -25.4720  -30.1720  -39.5740 O.2   257  ARG257     -0.2867
     58  CB       -25.5320  -28.4580  -41.6670 C.3   257  ARG257      0.0307
     59  CG       -25.7900  -27.9710  -43.1110 C.3   257  ARG257      0.0489
     60  CD       -24.6430  -27.1910  -43.7140 C.3   257  ARG257      0.2205
     61  NE       -24.3760  -25.9170  -43.0470 N.pl3 257  ARG257     -0.0865
     62  CZ       -23.1710  -25.5090  -42.6130 C.cat 257  ARG257      0.5346
     63  NH1      -22.0940  -26.2620  -42.7760 N.pl3 257  ARG257      0.1354
     64  NH2      -23.0230  -24.3190  -42.0360 N.pl3 257  ARG257      0.1354
     65  N         -5.4380  -25.5060  -42.5600 N.3   350  MET350     -0.1230
     66  CA        -5.4830  -25.3620  -44.0050 C.3   350  MET350      0.1702
     67  C         -5.5020  -23.9200  -44.4840 C.2   350  MET350      0.2592
     68  O         -5.5150  -23.7070  -45.6900 O.2   350  MET350     -0.2718
     69  CB        -6.6440  -26.1480  -44.6140 C.3   350  MET350      0.0401
     70  CG        -8.0230  -25.5840  -44.3060 C.3   350  MET350      0.0596
     71  SD        -9.2180  -26.2350  -45.5080 S.3   350  MET350     -0.1393
     72  CE       -10.6070  -26.0750  -44.4270 C.3   350  MET350      0.0692
     73  N         -5.4840  -22.9530  -43.5570 N.am  351  PHE351     -0.1976
     74  CA        -5.3600  -21.5490  -43.9190 C.3   351  PHE351      0.1639
     75  C         -4.0280  -20.9880  -43.4280 C.2   351  PHE351      0.2290
     76  O         -3.5750  -21.3220  -42.3360 O.2   351  PHE351     -0.2864
     77  CB        -6.5490  -20.7300  -43.4050 C.3   351  PHE351      0.0560
     78  CG        -7.8460  -21.1230  -44.0340 C.ar  351  PHE351     -0.0200
     79  CD1       -8.0420  -20.9810  -45.4190 C.ar  351  PHE351     -0.0042
     80  CD2       -8.8580  -21.6820  -43.2730 C.ar  351  PHE351     -0.0042
     81  CE1       -9.2390  -21.3840  -46.0110 C.ar  351  PHE351     -0.0003
     82  CE2      -10.0600  -22.0970  -43.8530 C.ar  351  PHE351     -0.0003
     83  CZ       -10.2600  -21.9290  -45.2200 C.ar  351  PHE351     -0.0000
     84  N         -3.9100  -14.4420  -47.5890 N.3   377  ARG377     -0.1245
     85  CA        -4.3760  -15.7450  -47.1670 C.3   377  ARG377      0.1563
     86  C         -4.4060  -16.7170  -48.3200 C.2   377  ARG377      0.2260
     87  O         -4.9540  -16.4210  -49.3950 O.2   377  ARG377     -0.2867
     88  CB        -5.7680  -15.6620  -46.5570 C.3   377  ARG377      0.0307
     89  CG        -6.2190  -16.9460  -45.8890 C.3   377  ARG377      0.0489
     90  CD        -7.7260  -17.0040  -45.7610 C.3   377  ARG377      0.2205
     91  NE        -8.3750  -17.2730  -47.0460 N.pl3 377  ARG377     -0.0865
     92  CZ        -9.5380  -17.9330  -47.1820 C.cat 377  ARG377      0.5346
     93  NH1      -10.1870  -18.3890  -46.1120 N.pl3 377  ARG377      0.1354
     94  NH2      -10.0590  -18.1350  -48.3890 N.pl3 377  ARG377      0.1354
@<TRIPOS>BOND
     1     4     3    2
     2     3     2    1
     3     2     1    1
     4     2     5    1
     5     7     5    1
     6     5     6    1
     7     9    10    1
     8    87    86    2
     9     6     8    1
    10    10    11    1
    11    94    92    1
    12    86    85    1
    13    11    12    2
    14    84    85    1
    15    92    91    2
    16    92    93    1
    17    85    88    1
    18    91    90    1
    19    88    89    1
    20    81    79   ar
    21    81    83   ar
    22    89    90    1
    23    68    67    2
    24    71    72    1
    25    71    70    1
    26    79    78   ar
    27    83    82   ar
    28    69    70    1
    29    69    66    1
    30    67    66    1
    31    67    73   am
    32    78    77    1
    33    78    80   ar
    34    66    65    1
    35    74    73    1
    36    74    75    1
    37    74    77    1
    38    82    80   ar
    39    60    59    1
    40    60    61    1
    41    75    76    2
    42    59    58    1
    43    61    62    2
    44    63    62    1
    45    62    64    1
    46    54    55    1
    47    40    39    2
    48    28    26   ar
    49    28    29   ar
    50    58    55    1
    51    55    56    1
    52    41    39   am
    53    31    29   ar
    54    31    33   ar
    55    26    25   ar
    56    39    38    1
    57    53    52    1
    58    29    27   ar
    59    50    52   ar
    60    50    48   ar
    61    33    32   ar
    62    52    51   ar
    63    18    17    1
    64    56    57    2
    65    25    27   ar
    66    25    24    1
    67    27    30   ar
    68    38    35    1
    69    48    47   ar
    70    22    21    1
    71    22    23    2
    72    19    17    1
    73    35    36    1
    74    35    34    1
    75    36    37    2
    76    17    14    1
    77    21    24    1
    78    21    20    1
    79    32    30   ar
    80    51    49   ar
    81    47    49   ar
    82    47    46    1
    83    14    13    1
    84    14    15    1
    85    46    43    1
    86    15    16    2
    87    43    42    1
    88    43    44    1
    89    45    44    2
