@<TRIPOS>MOLECULE
tmp/3pdcA00.pdb
 204 200 0 0 0
SMALL
GASTEIGER

@<TRIPOS>ATOM
      1  N         11.6540    1.3580    3.8950 N.3    42  PHE42      -0.1228
      2  CA        13.0550    1.7500    3.8140 C.3    42  PHE42       0.1721
      3  C         13.2700    3.2750    3.8950 C.2    42  PHE42       0.2437
      4  O         12.6330    4.0370    3.1720 O.2    42  PHE42      -0.2733
      5  CB        13.6750    1.2290    2.5020 C.3    42  PHE42       0.0547
      6  CG        14.9930    1.8810    2.1550 C.ar   42  PHE42      -0.0202
      7  CD1       15.0260    3.0740    1.4280 C.ar   42  PHE42      -0.0042
      8  CD2       16.1970    1.3400    2.5960 C.ar   42  PHE42      -0.0042
      9  CE1       16.2340    3.7110    1.1550 C.ar   42  PHE42      -0.0003
     10  CE2       17.4080    1.9750    2.3240 C.ar   42  PHE42      -0.0003
     11  CZ        17.4220    3.1580    1.6060 C.ar   42  PHE42      -0.0000
     12  N         14.1800    3.7370    4.7680 N.am   43  PRO43      -0.2729
     13  CA        14.9970    2.9390    5.6800 C.3    43  PRO43       0.1401
     14  C         14.5570    3.2760    7.0940 C.2    43  PRO43       0.2269
     15  O         15.2070    4.0480    7.8050 O.2    43  PRO43      -0.2865
     16  CB        16.4060    3.4400    5.3910 C.3    43  PRO43       0.0296
     17  CG        16.2140    4.8850    5.1800 C.3    43  PRO43       0.0237
     18  CD        14.8500    5.0220    4.4840 C.3    43  PRO43       0.0939
     19  N          5.4750    1.5750    2.7450 N.3   110  ASP110     -0.1225
     20  CA         6.6180    1.6450    1.8430 C.3   110  ASP110      0.1805
     21  C          6.9930    0.2270    1.4110 C.2   110  ASP110      0.2597
     22  O          6.1690   -0.4640    0.8180 O.2   110  ASP110     -0.2718
     23  CB         7.7960    2.3650    2.5000 C.3   110  ASP110      0.1424
     24  CG         8.9220    2.6170    1.5350 C.2   110  ASP110      0.3668
     25  OD1       10.0950    2.4370    1.9170 O.co2 110  ASP110     -0.2456
     26  OD2        8.6270    2.9820    0.3830 O.co2 110  ASP110     -0.2456
     27  N          8.2130   -0.2200    1.7040 N.am  111  TRP111     -0.1976
     28  CA         8.6200   -1.5690    1.3190 C.3   111  TRP111      0.1640
     29  C          7.7800   -2.6000    2.0600 C.2   111  TRP111      0.2290
     30  O          7.3870   -3.6040    1.4830 O.2   111  TRP111     -0.2864
     31  CB        10.1100   -1.7900    1.5590 C.3   111  TRP111      0.0576
     32  CG        10.9220   -1.6150    0.3220 C.ar  111  TRP111      0.0006
     33  CD1       11.9990   -0.7990    0.1640 C.ar  111  TRP111      0.0946
     34  CD2       10.7280   -2.2770   -0.9390 C.ar  111  TRP111      0.0152
     35  NE1       12.4890   -0.9090   -1.1120 N.ar  111  TRP111     -0.2442
     36  CE2       11.7290   -1.8090   -1.8100 C.ar  111  TRP111      0.0810
     37  CE3        9.8050   -3.2210   -1.4140 C.ar  111  TRP111      0.0012
     38  CZ2       11.8400   -2.2500   -3.1300 C.ar  111  TRP111      0.0191
     39  CZ3        9.9160   -3.6580   -2.7280 C.ar  111  TRP111      0.0001
     40  CH2       10.9260   -3.1720   -3.5690 C.ar  111  TRP111      0.0015
     41  N          4.6660   -3.1580    0.2590 N.3   114  MET114     -0.1245
     42  CA         4.7850   -4.0830   -0.8580 C.3   114  MET114      0.1570
     43  C          4.6960   -5.4770   -0.2350 C.2   114  MET114      0.2261
     44  O          3.9030   -6.3120   -0.6520 O.2   114  MET114     -0.2867
     45  CB         6.1400   -3.8910   -1.5420 C.3   114  MET114      0.0387
     46  CG         6.2230   -4.5110   -2.9150 C.3   114  MET114      0.0595
     47  SD         4.9560   -3.8190   -3.9810 S.3   114  MET114     -0.1393
     48  CE         5.9120   -3.6070   -5.4960 C.3   114  MET114      0.0692
     49  N          2.0180    2.6750   -0.3770 N.3   135  THR135     -0.1204
     50  CA         2.2750    1.6760   -1.4070 C.3   135  THR135      0.1979
     51  C          0.9970    1.0260   -1.9260 C.2   135  THR135      0.2459
     52  O          0.2860    0.3540   -1.1860 O.2   135  THR135     -0.2732
     53  CB         3.2210    0.5810   -0.8920 C.3   135  THR135      0.1783
     54  OG1        4.1630    1.1570    0.0220 O.3   135  THR135     -0.2211
     55  CG2        3.9880   -0.0320   -2.0530 C.3   135  THR135      0.0376
     56  N          0.6690    1.2610   -3.2040 N.am  136  PRO136     -0.2728
     57  CA        -0.5270    0.7050   -3.8460 C.3   136  PRO136      0.1401
     58  C         -0.2700   -0.7300   -4.3210 C.2   136  PRO136      0.2269
     59  O          0.8690   -1.2070   -4.2730 O.2   136  PRO136     -0.2865
     60  CB        -0.7080    1.6340   -5.0400 C.3   136  PRO136      0.0296
     61  CG         0.7090    1.9130   -5.4350 C.3   136  PRO136      0.0237
     62  CD         1.3830    2.1750   -4.1160 C.3   136  PRO136      0.0939
     63  N         11.9910    7.4640  -10.2240 N.3   156  PHE156     -0.1241
     64  CA        12.6160    6.1750   -9.9520 C.3   156  PHE156      0.1605
     65  C         14.0950    6.0020  -10.2980 C.2   156  PHE156      0.2264
     66  O         14.6640    4.9360  -10.0470 O.2   156  PHE156     -0.2867
     67  CB        11.7680    5.0450  -10.5460 C.3   156  PHE156      0.0534
     68  CG        10.4560    4.8440   -9.8360 C.ar  156  PHE156     -0.0203
     69  CD1       10.4170    4.6950   -8.4520 C.ar  156  PHE156     -0.0042
     70  CD2        9.2620    4.8320  -10.5430 C.ar  156  PHE156     -0.0042
     71  CE1        9.2120    4.5410   -7.7810 C.ar  156  PHE156     -0.0003
     72  CE2        8.0470    4.6790   -9.8800 C.ar  156  PHE156     -0.0003
     73  CZ         8.0230    4.5340   -8.4960 C.ar  156  PHE156     -0.0000
     74  N         16.4650    7.0880   -8.7840 N.3   158  TYR158     -0.1227
     75  CA        17.1960    6.9140   -7.5350 C.3   158  TYR158      0.1736
     76  C         17.3990    5.4240   -7.2700 C.2   158  TYR158      0.2595
     77  O         18.3990    5.0200   -6.6720 O.2   158  TYR158     -0.2718
     78  CB        16.4520    7.5640   -6.3610 C.3   158  TYR158      0.0548
     79  CG        15.1940    6.8430   -5.9230 C.ar  158  TYR158     -0.0200
     80  CD1       15.1490    6.1480   -4.7150 C.ar  158  TYR158     -0.0009
     81  CD2       14.0470    6.8640   -6.7110 C.ar  158  TYR158     -0.0009
     82  CE1       13.9850    5.4920   -4.3040 C.ar  158  TYR158      0.0417
     83  CE2       12.8810    6.2150   -6.3110 C.ar  158  TYR158      0.0417
     84  CZ        12.8550    5.5320   -5.1080 C.ar  158  TYR158      0.1957
     85  OH        11.6950    4.9060   -4.7120 O.3   158  TYR158     -0.2866
     86  N         16.4480    4.6140   -7.7310 N.am  159  GLN159     -0.1979
     87  CA        16.5140    3.1690   -7.5530 C.3   159  GLN159      0.1601
     88  C         17.6260    2.5370   -8.3840 C.2   159  GLN159      0.2287
     89  O         18.3140    1.6290   -7.9250 O.2   159  GLN159     -0.2864
     90  CB        15.1670    2.5330   -7.8560 C.3   159  GLN159      0.0394
     91  CG        14.1430    2.8320   -6.7870 C.3   159  GLN159      0.0908
     92  CD        12.7590    2.3200   -7.1240 C.2   159  GLN159      0.2608
     93  OE1       11.8850    2.2570   -6.2550 O.2   159  GLN159     -0.2717
     94  NE2       12.5400    1.9670   -8.3930 N.am  159  GLN159     -0.0878
     95  N         20.5370    2.8350   -6.6430 N.3   162  PHE162     -0.1241
     96  CA        20.6060    1.9060   -5.5180 C.3   162  PHE162      0.1605
     97  C         21.1280    0.5300   -5.9250 C.2   162  PHE162      0.2264
     98  O         21.8390   -0.1120   -5.1510 O.2   162  PHE162     -0.2867
     99  CB        19.2250    1.7370   -4.8790 C.3   162  PHE162      0.0534
    100  CG        18.8230    2.8640   -3.9700 C.ar  162  PHE162     -0.0203
    101  CD1       19.6820    3.9270   -3.7190 C.ar  162  PHE162     -0.0042
    102  CD2       17.5840    2.8480   -3.3460 C.ar  162  PHE162     -0.0042
    103  CE1       19.3120    4.9570   -2.8570 C.ar  162  PHE162     -0.0003
    104  CE2       17.2020    3.8720   -2.4820 C.ar  162  PHE162     -0.0003
    105  CZ        18.0680    4.9290   -2.2360 C.ar  162  PHE162     -0.0000
    106  N         25.0050    6.9070    2.2950 N.3   172  LEU172     -0.1245
    107  CA        24.0050    6.7340    3.3520 C.3   172  LEU172      0.1561
    108  C         24.5830    6.4380    4.7290 C.2   172  LEU172      0.2260
    109  O         23.9690    6.7690    5.7410 O.2   172  LEU172     -0.2867
    110  CB        22.9970    5.6520    2.9600 C.3   172  LEU172      0.0270
    111  CG        21.8800    6.1020    2.0180 C.3   172  LEU172      0.0019
    112  CD1       21.5060    5.0040    1.0270 C.3   172  LEU172      0.0001
    113  CD2       20.6870    6.5150    2.8550 C.3   172  LEU172      0.0001
    114  N         16.4900   13.0200    5.4770 N.3   183  LEU183     -0.1245
    115  CA        15.3790   12.2030    5.0110 C.3   183  LEU183      0.1561
    116  C         14.0500   12.4610    5.7110 C.2   183  LEU183      0.2260
    117  O         13.0890   12.9010    5.0740 O.2   183  LEU183     -0.2867
    118  CB        15.7450   10.7210    5.0690 C.3   183  LEU183      0.0270
    119  CG        16.6440   10.2840    3.9080 C.3   183  LEU183      0.0019
    120  CD1       17.1710    8.8830    4.1360 C.3   183  LEU183      0.0001
    121  CD2       15.8710   10.3600    2.6030 C.3   183  LEU183      0.0001
    122  N         15.9120   16.7460   -0.7230 N.3   192  LEU192     -0.1245
    123  CA        16.2700   15.7030   -1.6900 C.3   192  LEU192      0.1561
    124  C         15.7710   15.9170   -3.1120 C.2   192  LEU192      0.2260
    125  O         14.5680   16.0860   -3.3600 O.2   192  LEU192     -0.2867
    126  CB        15.8420   14.3100   -1.2000 C.3   192  LEU192      0.0270
    127  CG        16.5690   13.6790   -0.0110 C.3   192  LEU192      0.0019
    128  CD1       18.0020   14.1930    0.0430 C.3   192  LEU192      0.0001
    129  CD2       15.8460   14.0110    1.2780 C.3   192  LEU192      0.0001
    130  N         15.0840   14.1250   -6.0000 N.3   194  MET194     -0.1245
    131  CA        14.7660   12.8370   -6.6190 C.3   194  MET194      0.1570
    132  C         14.3870   13.1990   -8.0560 C.2   194  MET194      0.2261
    133  O         13.2520   13.0010   -8.4930 O.2   194  MET194     -0.2867
    134  CB        13.5760   12.1830   -5.9020 C.3   194  MET194      0.0387
    135  CG        13.7360   12.0390   -4.3870 C.3   194  MET194      0.0595
    136  SD        14.7900   10.6860   -3.8520 S.3   194  MET194     -0.1393
    137  CE        13.5710    9.5120   -3.3120 C.3   194  MET194      0.0692
    138  N         22.5790   11.2010   -3.6390 N.3   203  LEU203     -0.1245
    139  CA        21.2400   11.6400   -3.2690 C.3   203  LEU203      0.1561
    140  C         21.2920   12.8020   -2.2740 C.2   203  LEU203      0.2260
    141  O         20.2650   13.4090   -1.9630 O.2   203  LEU203     -0.2867
    142  CB        20.4760   10.4670   -2.6480 C.3   203  LEU203      0.0270
    143  CG        19.0080   10.6690   -2.2750 C.3   203  LEU203      0.0019
    144  CD1       18.1390   10.5490   -3.5180 C.3   203  LEU203      0.0001
    145  CD2       18.6120    9.6470   -1.2340 C.3   203  LEU203      0.0001
    146  N         15.7670   -3.4280   -2.7260 N.3   241  TYR241     -0.1241
    147  CA        15.6760   -2.8210   -4.0540 C.3   241  TYR241      0.1605
    148  C         16.4190   -3.5860   -5.1490 C.2   241  TYR241      0.2264
    149  O         16.1050   -3.4370   -6.3340 O.2   241  TYR241     -0.2867
    150  CB        16.2670   -1.4050   -4.0170 C.3   241  TYR241      0.0534
    151  CG        15.5020   -0.3690   -3.2210 C.ar  241  TYR241     -0.0201
    152  CD1       14.5260    0.4180   -3.8310 C.ar  241  TYR241     -0.0009
    153  CD2       15.8010   -0.1220   -1.8810 C.ar  241  TYR241     -0.0009
    154  CE1       13.8730    1.4290   -3.1310 C.ar  241  TYR241      0.0417
    155  CE2       15.1500    0.8890   -1.1700 C.ar  241  TYR241      0.0417
    156  CZ        14.1870    1.6600   -1.8070 C.ar  241  TYR241      0.1957
    157  OH        13.5350    2.6640   -1.1400 O.3   241  TYR241     -0.2866
    158  N         14.9050   -7.0840   -8.2930 N.3   244  MET244     -0.1245
    159  CA        13.7960   -6.8460   -9.2180 C.3   244  MET244      0.1570
    160  C         13.4280   -7.9570  -10.1920 C.2   244  MET244      0.2261
    161  O         12.2390   -8.1920  -10.4250 O.2   244  MET244     -0.2867
    162  CB        13.9400   -5.4910   -9.9170 C.3   244  MET244      0.0387
    163  CG        13.2120   -4.3730   -9.1740 C.3   244  MET244      0.0595
    164  SD        13.2600   -4.5320   -7.3580 S.3   244  MET244     -0.1393
    165  CE        12.9140   -2.8300   -6.8520 C.3   244  MET244      0.0692
    166  N          7.0550   10.2240   -4.2360 N.3   273  VAL273     -0.1231
    167  CA         7.5990    8.9800   -4.7860 C.3   273  VAL273      0.1692
    168  C          6.4370    7.9900   -4.9610 C.2   273  VAL273      0.2591
    169  O          6.2980    7.3580   -6.0080 O.2   273  VAL273     -0.2718
    170  CB         8.7380    8.3780   -3.9060 C.3   273  VAL273      0.0266
    171  CG1        8.2150    7.9090   -2.5500 C.3   273  VAL273      0.0020
    172  CG2        9.4150    7.2390   -4.6390 C.3   273  VAL273      0.0020
    173  N          5.5720    7.9250   -3.9500 N.am  274  LEU274     -0.1980
    174  CA         4.4070    7.0470   -3.9500 C.3   274  LEU274      0.1596
    175  C          3.1560    7.9250   -4.0030 C.2   274  LEU274      0.2287
    176  O          2.4460    8.1100   -3.0110 O.2   274  LEU274     -0.2864
    177  CB         4.3970    6.1550   -2.7030 C.3   274  LEU274      0.0297
    178  CG         5.6120    5.2370   -2.5180 C.3   274  LEU274      0.0022
    179  CD1        5.4350    4.3700   -1.2750 C.3   274  LEU274      0.0001
    180  CD2        5.8120    4.3710   -3.7570 C.3   274  LEU274      0.0001
    181  N          5.7560   11.4410    2.6910 N.3   299  HIS299     -0.1226
    182  CA         6.0910   10.0210    2.5990 C.3   299  HIS299      0.1752
    183  C          6.1590    9.2740    3.9260 C.2   299  HIS299      0.2596
    184  O          5.7130    8.1340    4.0190 O.2   299  HIS299     -0.2718
    185  CB         7.4100    9.8190    1.8530 C.3   299  HIS299      0.0759
    186  CG         7.8620    8.3940    1.8180 C.ar  299  HIS299      0.0818
    187  ND1        7.0720    7.3790    1.3230 N.ar  299  HIS299     -0.2268
    188  CD2        9.0020    7.8060    2.2520 C.ar  299  HIS299      0.1154
    189  CE1        7.7040    6.2260    1.4550 C.ar  299  HIS299      0.1986
    190  NE2        8.8770    6.4570    2.0170 N.ar  299  HIS299     -0.2212
    191  N          6.7240    9.9210    4.9400 N.am  300  TRP300     -0.1976
    192  CA         6.8740    9.3420    6.2770 C.3   300  TRP300      0.1640
    193  C          5.5710    9.3940    7.0610 C.2   300  TRP300      0.2290
    194  O          5.5510    9.7550    8.2410 O.2   300  TRP300     -0.2864
    195  CB         7.9810   10.0910    7.0100 C.3   300  TRP300      0.0576
    196  CG         9.1330   10.3650    6.0920 C.ar  300  TRP300      0.0006
    197  CD1        9.3910   11.5300    5.4180 C.ar  300  TRP300      0.0946
    198  CD2       10.1360    9.4330    5.6760 C.ar  300  TRP300      0.0152
    199  NE1       10.4860   11.3760    4.6030 N.ar  300  TRP300     -0.2442
    200  CE2       10.9660   10.0990    4.7410 C.ar  300  TRP300      0.0810
    201  CE3       10.4150    8.0980    5.9970 C.ar  300  TRP300      0.0012
    202  CZ2       12.0590    9.4710    4.1260 C.ar  300  TRP300      0.0191
    203  CZ3       11.4990    7.4770    5.3850 C.ar  300  TRP300      0.0001
    204  CH2       12.3070    8.1630    4.4620 C.ar  300  TRP300      0.0015
@<TRIPOS>BOND
     1    67    64    1
     2    67    68    1
     3    70    72   ar
     4    70    68   ar
     5   161   160    2
     6    65    66    2
     7    65    64    1
     8    63    64    1
     9   160   159    1
    10   162   159    1
    11   162   163    1
    12    72    73   ar
    13    68    69   ar
    14   159   158    1
    15   163   164    1
    16    74    75    1
    17    73    71   ar
    18   133   132    2
    19    69    71   ar
    20    94    92   am
    21    88    89    2
    22    88    87    1
    23   132   131    1
    24    90    87    1
    25    90    91    1
    26    86    87    1
    27    86    76   am
    28    75    76    1
    29    75    78    1
    30   164   165    1
    31    76    77    2
    32    92    91    1
    33    92    93    2
    34    81    83   ar
    35    81    79   ar
    36    95    96    1
    37   131   130    1
    38   131   134    1
    39    78    79    1
    40   149   148    2
    41    83    84   ar
    42   169   168    2
    43    97    96    1
    44    97    98    2
    45    79    80   ar
    46   134   135    1
    47    96    99    1
    48    48    47    1
    49    61    60    1
    50    61    62    1
    51   148   147    1
    52    84    85    1
    53    84    82   ar
    54    60    57    1
    55   168   167    1
    56   168   173   am
    57    99   100    1
    58   167   166    1
    59   167   170    1
    60    80    82   ar
    61   172   170    1
    62   135   136    1
    63    58    59    2
    64    58    57    1
    65    62    56    1
    66   147   150    1
    67   147   146    1
    68   150   151    1
    69   175   174    1
    70   175   176    2
    71    47    46    1
    72   100   101   ar
    73   100   102   ar
    74   173   174    1
    75   174   177    1
    76   170   171    1
    77   136   137    1
    78    57    56    1
    79   152   151   ar
    80   152   154   ar
    81   180   178    1
    82   101   103   ar
    83   138   139    1
    84    40    38   ar
    85    40    39   ar
    86   144   143    1
    87   125   124    2
    88   102   104   ar
    89   139   142    1
    90   139   140    1
    91   151   153   ar
    92    56    51   am
    93   154   156   ar
    94    38    36   ar
    95   124   123    1
    96    46    45    1
    97   103   105   ar
    98    39    37   ar
    99   177   178    1
   100   142   143    1
   101   178   179    1
   102   104   105   ar
   103   143   145    1
   104   140   141    2
   105    55    53    1
   106    51    50    1
   107    51    52    2
   108   153   155   ar
   109    36    35   ar
   110    36    34   ar
   111   156   155   ar
   112   156   157    1
   113   123   126    1
   114   123   122    1
   115    45    42    1
   116    37    34   ar
   117    50    53    1
   118    50    49    1
   119   126   127    1
   120    35    33   ar
   121    34    32   ar
   122    53    54    1
   123    42    43    1
   124    42    41    1
   125    44    43    2
   126   127   128    1
   127   127   129    1
   128    33    32   ar
   129    32    31    1
   130    26    24   ar
   131    22    21    2
   132   112   111    1
   133     9     7   ar
   134     9    11   ar
   135    28    31    1
   136    28    27    1
   137    28    29    1
   138   187   189   ar
   139   187   186   ar
   140    21    27   am
   141    21    20    1
   142     7     6   ar
   143   189   190   ar
   144    30    29    2
   145    24    25   ar
   146    24    23    1
   147    11    10   ar
   148   186   185    1
   149   186   188   ar
   150    20    23    1
   151    20    19    1
   152   185   182    1
   153   190   188   ar
   154   111   113    1
   155   111   110    1
   156     6     5    1
   157     6     8   ar
   158   106   107    1
   159    10     8   ar
   160     5     2    1
   161   182   181    1
   162   182   183    1
   163   121   119    1
   164   110   107    1
   165     4     3    2
   166   107   108    1
   167     2     1    1
   168     2     3    1
   169     3    12   am
   170   119   120    1
   171   119   118    1
   172   183   184    2
   173   183   191   am
   174   202   204   ar
   175   202   200   ar
   176   204   203   ar
   177    18    12    1
   178    18    17    1
   179   199   200   ar
   180   199   197   ar
   181   108   109    2
   182   200   198   ar
   183    12    13    1
   184   191   192    1
   185   115   118    1
   186   115   114    1
   187   115   116    1
   188   117   116    2
   189    17    16    1
   190   203   201   ar
   191    16    13    1
   192   197   196   ar
   193   198   201   ar
   194   198   196   ar
   195    13    14    1
   196   196   195    1
   197   192   195    1
   198   192   193    1
   199   193   194    2
   200    14    15    2
