@<TRIPOS>MOLECULE
tmp/3pdeD01.pdb
 133 121 0 0 0
SMALL
GASTEIGER

@<TRIPOS>ATOM
      1  N         24.9770   50.7720   14.1910 N.3    82  HIS82      -0.1241
      2  CA        24.8080   49.4440   14.7490 C.3    82  HIS82       0.1621
      3  C         23.5260   48.8150   14.2040 C.2    82  HIS82       0.2264
      4  O         23.5440   47.6680   13.7520 O.2    82  HIS82      -0.2867
      5  CB        24.7940   49.5080   16.2670 C.3    82  HIS82       0.0745
      6  CG        24.4700   48.2040   16.9270 C.ar   82  HIS82       0.0817
      7  ND1       25.2030   47.0560   16.7090 N.ar   82  HIS82      -0.2268
      8  CD2       23.4610   47.8600   17.7600 C.ar   82  HIS82       0.1154
      9  CE1       24.6590   46.0620   17.3910 C.ar   82  HIS82       0.1986
     10  NE2       23.6190   46.5310   18.0590 N.ar   82  HIS82      -0.2212
     11  N         23.6580   47.6120   10.6460 N.3    85  SER85      -0.1202
     12  CA        24.4660   46.3940   10.4930 C.3    85  SER85       0.2020
     13  C         23.6220   45.1590   10.7720 C.2    85  SER85       0.2618
     14  O         23.7900   44.1410   10.1160 O.2    85  SER85      -0.2717
     15  CB        25.6940   46.4220   11.3870 C.3    85  SER85       0.2103
     16  OG        25.3990   46.1450   12.7440 O.3    85  SER85      -0.2182
     17  N         22.6870   45.2770   11.7160 N.am   86  LEU86      -0.1979
     18  CA        21.7620   44.1800   12.0220 C.3    86  LEU86       0.1596
     19  C         20.7730   43.9140   10.9010 C.2    86  LEU86       0.2287
     20  O         20.5100   42.7450   10.5860 O.2    86  LEU86      -0.2864
     21  CB        20.9960   44.4410   13.3160 C.3    86  LEU86       0.0297
     22  CG        21.7620   44.7970   14.6050 C.3    86  LEU86       0.0022
     23  CD1       20.7890   44.9550   15.7550 C.3    86  LEU86       0.0001
     24  CD2       22.7860   43.7450   14.9340 C.3    86  LEU86       0.0001
     25  N         22.7150   42.2310    8.0930 N.3    89  ASP89      -0.1225
     26  CA        23.0720   40.8980    8.5570 C.3    89  ASP89       0.1805
     27  C         21.8940   39.9050    8.4470 C.2    89  ASP89       0.2597
     28  O         22.1070   38.7420    8.1180 O.2    89  ASP89      -0.2718
     29  CB        23.5300   40.9750    9.9990 C.3    89  ASP89       0.1424
     30  CG        23.9230   39.6370   10.5530 C.2    89  ASP89       0.3668
     31  OD1       23.1700   39.0820   11.3850 O.co2  89  ASP89      -0.2456
     32  OD2       24.9700   39.1120   10.1550 O.co2  89  ASP89      -0.2456
     33  N         20.6760   40.3780    8.6930 N.am   90  ASP90      -0.1974
     34  CA        19.4840   39.5040    8.6730 C.3    90  ASP90       0.1709
     35  C         18.9340   39.1840    7.2820 C.2    90  ASP90       0.2293
     36  O         18.1140   38.2730    7.1500 O.2    90  ASP90      -0.2864
     37  CB        18.3320   40.1030    9.4920 C.3    90  ASP90       0.1436
     38  CG        18.5940   40.0890   10.9890 C.2    90  ASP90       0.3671
     39  OD1       19.3670   39.2390   11.4780 O.co2  90  ASP90      -0.2456
     40  OD2       17.9910   40.9430   11.6780 O.co2  90  ASP90      -0.2456
     41  N         22.1870   36.2990    6.5210 N.3    95  ASP95      -0.1239
     42  CA        21.7900   35.2700    7.4900 C.3    95  ASP95       0.1674
     43  C         20.3630   34.7710    7.3350 C.2    95  ASP95       0.2266
     44  O         20.0040   33.7800    7.9770 O.2    95  ASP95      -0.2867
     45  CB        22.0230   35.7210    8.9320 C.3    95  ASP95       0.1410
     46  CG        23.4820   35.7290    9.3030 C.2    95  ASP95       0.3668
     47  OD1       24.3130   35.2400    8.5110 O.co2  95  ASP95      -0.2456
     48  OD2       23.8140   36.2410   10.3960 O.co2  95  ASP95      -0.2456
     49  N         17.2540   35.7240    8.3600 N.3    97  ASP97      -0.1239
     50  CA        16.6020   35.4920    9.6520 C.3    97  ASP97       0.1674
     51  C         15.1940   36.0670    9.7380 C.2    97  ASP97       0.2266
     52  O         14.8780   37.0540    9.0770 O.2    97  ASP97      -0.2867
     53  CB        17.4720   35.9860   10.8160 C.3    97  ASP97       0.1410
     54  CG        18.3700   34.8840   11.3810 C.2    97  ASP97       0.3668
     55  OD1       17.8780   33.7460   11.5840 O.co2  97  ASP97      -0.2456
     56  OD2       19.5640   35.1570   11.6310 O.co2  97  ASP97      -0.2456
     57  N         14.4320   39.5360   15.0260 N.3   100  ARG100     -0.1245
     58  CA        15.5150   40.4010   15.4970 C.3   100  ARG100      0.1563
     59  C         14.9390   41.3920   16.4860 C.2   100  ARG100      0.2260
     60  O         13.9310   42.0430   16.1890 O.2   100  ARG100     -0.2867
     61  CB        16.1860   41.1490   14.3330 C.3   100  ARG100      0.0307
     62  CG        17.1560   42.2900   14.7480 C.3   100  ARG100      0.0489
     63  CD        18.4130   41.7490   15.3870 C.3   100  ARG100      0.2205
     64  NE        19.2990   41.2100   14.3670 N.pl3 100  ARG100     -0.0865
     65  CZ        20.4810   40.6690   14.6190 C.cat 100  ARG100      0.5346
     66  NH1       21.2160   40.2090   13.6210 N.pl3 100  ARG100      0.1354
     67  NH2       20.9230   40.5850   15.8690 N.pl3 100  ARG100      0.1354
     68  N         34.1700   46.8050   10.7260 N.3   156  MET156     -0.1245
     69  CA        32.9750   45.9480   10.7750 C.3   156  MET156      0.1570
     70  C         32.6140   45.2210    9.4660 C.2   156  MET156      0.2261
     71  O         32.2810   44.0140    9.4790 O.2   156  MET156     -0.2867
     72  CB        31.7780   46.7420   11.2970 C.3   156  MET156      0.0387
     73  CG        30.5470   45.8870   11.5890 C.3   156  MET156      0.0595
     74  SD        29.1350   46.9410   11.8560 S.3   156  MET156     -0.1393
     75  CE        28.9770   47.7620   10.2730 C.3   156  MET156      0.0692
     76  N         32.4250   41.1890    8.6400 N.3   160  GLN160     -0.1245
     77  CA        31.2560   40.5570    8.0080 C.3   160  GLN160      0.1566
     78  C         31.6760   39.7640    6.7730 C.2   160  GLN160      0.2260
     79  O         31.1360   38.6800    6.5200 O.2   160  GLN160     -0.2867
     80  CB        30.1720   41.5910    7.6350 C.3   160  GLN160      0.0367
     81  CG        29.3300   42.1130    8.8320 C.3   160  GLN160      0.0905
     82  CD        28.4210   41.0380    9.4200 C.2   160  GLN160      0.2608
     83  OE1       28.8850   40.1300   10.1150 O.2   160  GLN160     -0.2717
     84  NE2       27.1210   41.1350    9.1400 N.am  160  GLN160     -0.0878
     85  N         33.2530   36.6580    7.9080 N.3   163  ASP163     -0.1239
     86  CA        32.1750   35.7480    8.3180 C.3   163  ASP163      0.1674
     87  C         31.5350   34.9940    7.1340 C.2   163  ASP163      0.2266
     88  O         31.3770   33.7780    7.2190 O.2   163  ASP163     -0.2867
     89  CB        31.1020   36.4850    9.1270 C.3   163  ASP163      0.1410
     90  CG        30.4440   35.6020   10.1800 C.2   163  ASP163      0.3668
     91  OD1       30.6850   34.3740   10.2030 O.co2 163  ASP163     -0.2456
     92  OD2       29.6850   36.1410   11.0030 O.co2 163  ASP163     -0.2456
     93  N         34.6140   42.4560   13.3750 N.3   183  LYS183     -0.1231
     94  CA        33.1630   42.3070   13.2500 C.3   183  LYS183      0.1693
     95  C         32.3970   42.9820   14.3980 C.2   183  LYS183      0.2592
     96  O         31.4450   43.7170   14.1560 O.2   183  LYS183     -0.2718
     97  CB        32.7710   40.8300   13.1440 C.3   183  LYS183      0.0285
     98  CG        31.3180   40.5660   12.7810 C.3   183  LYS183      0.0035
     99  CD        31.0600   39.0500   12.7120 C.3   183  LYS183      0.0206
    100  CE        29.9870   38.6590   13.6760 C.3   183  LYS183      0.1093
    101  NZ        29.5620   37.2330   13.5330 N.3   183  LYS183     -0.1314
    102  N         32.8550   42.7680   15.6270 N.am  184  THR184     -0.1953
    103  CA        32.1500   43.2730   16.8230 C.3   184  THR184      0.1897
    104  C         33.0230   44.1580   17.7090 C.2   184  THR184      0.2313
    105  O         32.5170   45.0930   18.3260 O.2   184  THR184     -0.2863
    106  CB        31.5070   42.1400   17.6420 C.3   184  THR184      0.1794
    107  OG1       32.5080   41.1850   18.0180 O.3   184  THR184     -0.2208
    108  CG2       30.4340   41.4290   16.8090 C.3   184  THR184      0.0378
    109  N         31.6840   39.5810   22.7730 N.3   221  GLN221     -0.1245
    110  CA        31.5720   38.5480   21.7640 C.3   221  GLN221      0.1566
    111  C         31.6870   37.1530   22.3780 C.2   221  GLN221      0.2260
    112  O         30.9400   36.2470   21.9720 O.2   221  GLN221     -0.2867
    113  CB        32.6600   38.7070   20.7270 C.3   221  GLN221      0.0367
    114  CG        32.6430   37.6120   19.7020 C.3   221  GLN221      0.0905
    115  CD        31.5270   37.7590   18.7420 C.2   221  GLN221      0.2608
    116  OE1       31.3940   38.7890   18.0970 O.2   221  GLN221     -0.2717
    117  NE2       30.6820   36.7470   18.6580 N.am  221  GLN221     -0.0878
    118  N         28.3790   36.5410   23.9590 N.3   224  ASP224     -0.1239
    119  CA        27.3970   36.2850   22.8920 C.3   224  ASP224      0.1674
    120  C         27.5250   34.8310   22.4160 C.2   224  ASP224      0.2266
    121  O         26.5030   34.1440   22.2060 O.2   224  ASP224     -0.2867
    122  CB        27.5980   37.2490   21.7270 C.3   224  ASP224      0.1410
    123  CG        26.4970   37.1480   20.6820 C.2   224  ASP224      0.3668
    124  OD1       25.4160   37.7190   20.9050 O.co2 224  ASP224     -0.2456
    125  OD2       26.7230   36.5080   19.6410 O.co2 224  ASP224     -0.2456
    126  N         24.6100   31.7360   23.0770 N.3   228  ASP228     -0.1239
    127  CA        24.0860   30.9890   21.9340 C.3   228  ASP228      0.1674
    128  C         24.1210   29.4700   22.2110 C.2   228  ASP228      0.2266
    129  O         23.3090   28.7310   21.6710 O.2   228  ASP228     -0.2867
    130  CB        24.9340   31.3260   20.6970 C.3   228  ASP228      0.1410
    131  CG        24.1160   31.4830   19.4300 C.2   228  ASP228      0.3668
    132  OD1       23.3770   30.5390   19.0670 O.co2 228  ASP228     -0.2456
    133  OD2       24.2420   32.5490   18.7760 O.co2 228  ASP228     -0.2456
@<TRIPOS>BOND
     1    79    78    2
     2    41    42    1
     3    78    77    1
     4    87    88    2
     5    87    86    1
     6    36    35    2
     7    35    34    1
     8    43    42    1
     9    43    44    2
    10    42    45    1
    11    80    77    1
    12    80    81    1
    13    85    86    1
    14    77    76    1
    15    25    26    1
    16    28    27    2
    17    86    89    1
    18    49    50    1
    19    27    26    1
    20    27    33   am
    21    47    46   ar
    22    26    29    1
    23    34    33    1
    24    34    37    1
    25    81    82    1
    26    45    46    1
    27    52    51    2
    28    89    90    1
    29    84    82   am
    30    46    48   ar
    31    82    83    2
    32    70    71    2
    33    70    69    1
    34    37    38    1
    35    50    51    1
    36    50    53    1
    37    29    30    1
    38    14    13    2
    39    32    30   ar
    40    90    91   ar
    41    90    92   ar
    42    75    74    1
    43    12    11    1
    44    12    13    1
    45    12    15    1
    46    30    31   ar
    47    20    19    2
    48    68    69    1
    49    13    17   am
    50    69    72    1
    51    53    54    1
    52    19    18    1
    53    38    39   ar
    54    38    40   ar
    55    72    73    1
    56    54    55   ar
    57    54    56   ar
    58    15    16    1
    59    73    74    1
    60    17    18    1
    61    18    21    1
    62    99    98    1
    63    99   100    1
    64    98    97    1
    65    97    94    1
    66    94    93    1
    67    94    95    1
    68    21    22    1
    69   101   100    1
    70    66    65    1
    71     4     3    2
    72    96    95    2
    73     1     2    1
    74     3     2    1
    75    61    62    1
    76    61    58    1
    77    64    65    2
    78    64    63    1
    79    95   102   am
    80    22    24    1
    81    22    23    1
    82    65    67    1
    83    62    63    1
    84     2     5    1
    85    57    58    1
    86    58    59    1
    87   102   103    1
    88    60    59    2
    89     5     6    1
    90     7     6   ar
    91     7     9   ar
    92   108   106    1
    93   103   106    1
    94   103   104    1
    95     6     8   ar
    96     9    10   ar
    97   106   107    1
    98   104   105    2
    99     8    10   ar
   100   116   115    2
   101   117   115   am
   102   115   114    1
   103   133   131   ar
   104   132   131   ar
   105   131   130    1
   106   125   123   ar
   107   114   113    1
   108   123   124   ar
   109   123   122    1
   110   130   127    1
   111   113   110    1
   112   129   128    2
   113   122   119    1
   114   110   111    1
   115   110   109    1
   116   127   128    1
   117   127   126    1
   118   112   111    2
   119   121   120    2
   120   120   119    1
   121   119   118    1
