@<TRIPOS>MOLECULE
tmp/3pdeD00.pdb
 154 148 0 0 0
SMALL
GASTEIGER

@<TRIPOS>ATOM
      1  N         16.8610   46.6570   21.7040 N.3    47  GLY47      -0.1210
      2  CA        18.2710   46.9910   21.7030 C.3    47  GLY47       0.1956
      3  C         18.6570   47.4200   23.0960 C.2    47  GLY47       0.2612
      4  O         17.9800   48.2570   23.6950 O.2    47  GLY47      -0.2717
      5  N         19.7370   46.8350   23.5960 N.am   48  LYS48      -0.1965
      6  CA        20.2750   47.1560   24.9200 C.3    48  LYS48       0.1728
      7  C         20.9430   48.5500   24.9670 C.2    48  LYS48       0.2616
      8  O         21.1790   49.0990   26.0540 O.2    48  LYS48      -0.2715
      9  CB        21.2760   46.0760   25.3610 C.3    48  LYS48       0.0311
     10  CG        20.6800   44.6470   25.4450 C.3    48  LYS48       0.0038
     11  CD        21.6990   43.6110   25.9380 C.3    48  LYS48       0.0206
     12  CE        22.7120   43.2160   24.8590 C.3    48  LYS48       0.1093
     13  NZ        22.0480   42.7410   23.6020 N.3    48  LYS48      -0.1314
     14  N         21.2330   49.1050   23.7840 N.am   49  ARG49      -0.1963
     15  CA        21.9340   50.3940   23.6200 C.3    49  ARG49       0.1729
     16  C         23.3020   50.4210   24.2600 C.2    49  ARG49       0.2616
     17  O         23.7440   51.4880   24.6820 O.2    49  ARG49      -0.2715
     18  CB        21.0910   51.5910   24.1160 C.3    49  ARG49       0.0348
     19  CG        19.6670   51.6280   23.5890 C.3    49  ARG49       0.0492
     20  CD        19.6260   51.8520   22.0780 C.3    49  ARG49       0.2205
     21  NE        18.2470   52.0970   21.6710 N.pl3  49  ARG49      -0.0865
     22  CZ        17.6010   51.4860   20.6860 C.cat  49  ARG49       0.5346
     23  NH1       18.2050   50.5740   19.9210 N.pl3  49  ARG49       0.1354
     24  NH2       16.3290   51.8080   20.4700 N.pl3  49  ARG49       0.1354
     25  N         23.9820   49.2630   24.2990 N.am   50  LEU50      -0.1963
     26  CA        25.2950   49.1720   24.9430 C.3    50  LEU50       0.1728
     27  C         26.2970   50.1510   24.3610 C.2    50  LEU50       0.2616
     28  O         27.0930   50.7360   25.1240 O.2    50  LEU50      -0.2715
     29  CB        25.8990   47.7590   24.8660 C.3    50  LEU50       0.0311
     30  CG        26.1000   46.9920   26.1710 C.3    50  LEU50       0.0022
     31  CD1       26.5150   47.9190   27.2810 C.3    50  LEU50       0.0001
     32  CD2       24.8670   46.2640   26.5640 C.3    50  LEU50       0.0001
     33  N         26.2680   50.3300   23.0440 N.am   51  ARG51      -0.1977
     34  CA        27.2440   51.1950   22.3920 C.3    51  ARG51       0.1597
     35  C         27.1390   52.6990   22.7600 C.2    51  ARG51       0.2287
     36  O         28.1230   53.2600   23.2540 O.2    51  ARG51      -0.2864
     37  CB        27.2800   50.9300   20.8760 C.3    51  ARG51       0.0334
     38  CG        27.9390   49.5990   20.5540 C.3    51  ARG51       0.0492
     39  CD        27.3970   49.0230   19.2460 C.3    51  ARG51       0.2205
     40  NE        27.7610   47.6040   19.1310 N.pl3  51  ARG51      -0.0865
     41  CZ        27.0260   46.5950   19.6100 C.cat  51  ARG51       0.5346
     42  NH1       25.8860   46.8250   20.2600 N.pl3  51  ARG51       0.1354
     43  NH2       27.4510   45.3360   19.4570 N.pl3  51  ARG51       0.1354
     44  N         24.4150   54.2410   17.3080 N.3    79  GLU79      -0.1245
     45  CA        23.2800   53.3190   17.3890 C.3    79  GLU79       0.1567
     46  C         22.5650   53.1320   16.0450 C.2    79  GLU79       0.2260
     47  O         22.1090   52.0260   15.7400 O.2    79  GLU79      -0.2867
     48  CB        22.3010   53.7170   18.5050 C.3    79  GLU79       0.0388
     49  CG        21.1920   52.6830   18.7780 C.3    79  GLU79       0.1160
     50  CD        21.7100   51.3280   19.2790 C.2    79  GLU79       0.3649
     51  OE1       22.8230   51.2710   19.7710 O.co2  79  GLU79      -0.2457
     52  OE2       21.0020   50.2950   19.1740 O.co2  79  GLU79      -0.2457
     53  N         24.9770   50.7720   14.1910 N.3    82  HIS82      -0.1241
     54  CA        24.8080   49.4440   14.7490 C.3    82  HIS82       0.1621
     55  C         23.5260   48.8150   14.2040 C.2    82  HIS82       0.2264
     56  O         23.5440   47.6680   13.7520 O.2    82  HIS82      -0.2867
     57  CB        24.7940   49.5080   16.2670 C.3    82  HIS82       0.0745
     58  CG        24.4700   48.2040   16.9270 C.ar   82  HIS82       0.0817
     59  ND1       25.2030   47.0560   16.7090 N.ar   82  HIS82      -0.2268
     60  CD2       23.4610   47.8600   17.7600 C.ar   82  HIS82       0.1154
     61  CE1       24.6590   46.0620   17.3910 C.ar   82  HIS82       0.1986
     62  NE2       23.6190   46.5310   18.0590 N.ar   82  HIS82      -0.2212
     63  N         23.6580   47.6120   10.6460 N.3    85  SER85      -0.1202
     64  CA        24.4660   46.3940   10.4930 C.3    85  SER85       0.2020
     65  C         23.6220   45.1590   10.7720 C.2    85  SER85       0.2618
     66  O         23.7900   44.1410   10.1160 O.2    85  SER85      -0.2717
     67  CB        25.6940   46.4220   11.3870 C.3    85  SER85       0.2103
     68  OG        25.3990   46.1450   12.7440 O.3    85  SER85      -0.2182
     69  N         22.6870   45.2770   11.7160 N.am   86  LEU86      -0.1979
     70  CA        21.7620   44.1800   12.0220 C.3    86  LEU86       0.1596
     71  C         20.7730   43.9140   10.9010 C.2    86  LEU86       0.2287
     72  O         20.5100   42.7450   10.5860 O.2    86  LEU86      -0.2864
     73  CB        20.9960   44.4410   13.3160 C.3    86  LEU86       0.0297
     74  CG        21.7620   44.7970   14.6050 C.3    86  LEU86       0.0022
     75  CD1       20.7890   44.9550   15.7550 C.3    86  LEU86       0.0001
     76  CD2       22.7860   43.7450   14.9340 C.3    86  LEU86       0.0001
     77  N         14.4320   39.5360   15.0260 N.3   100  ARG100     -0.1231
     78  CA        15.5150   40.4010   15.4970 C.3   100  ARG100      0.1694
     79  C         14.9390   41.3920   16.4860 C.2   100  ARG100      0.2591
     80  O         13.9310   42.0430   16.1890 O.2   100  ARG100     -0.2718
     81  CB        16.1860   41.1490   14.3330 C.3   100  ARG100      0.0321
     82  CG        17.1560   42.2900   14.7480 C.3   100  ARG100      0.0489
     83  CD        18.4130   41.7490   15.3870 C.3   100  ARG100      0.2205
     84  NE        19.2990   41.2100   14.3670 N.pl3 100  ARG100     -0.0865
     85  CZ        20.4810   40.6690   14.6190 C.cat 100  ARG100      0.5346
     86  NH1       21.2160   40.2090   13.6210 N.pl3 100  ARG100      0.1354
     87  NH2       20.9230   40.5850   15.8690 N.pl3 100  ARG100      0.1354
     88  N         15.5880   41.5030   17.6550 N.am  101  ARG101     -0.1980
     89  CA        15.1500   42.3690   18.7650 C.3   101  ARG101      0.1597
     90  C         13.6890   42.1060   19.1560 C.2   101  ARG101      0.2287
     91  O         12.9330   43.0450   19.4400 O.2   101  ARG101     -0.2864
     92  CB        15.3800   43.8610   18.4480 C.3   101  ARG101      0.0334
     93  CG        16.8680   44.2310   18.3490 C.3   101  ARG101      0.0492
     94  CD        17.0690   45.6070   17.7430 C.3   101  ARG101      0.2205
     95  NE        18.3990   46.1160   18.0910 N.pl3 101  ARG101     -0.0865
     96  CZ        18.8810   47.3000   17.7240 C.cat 101  ARG101      0.5346
     97  NH1       20.1150   47.6310   18.0940 N.pl3 101  ARG101      0.1354
     98  NH2       18.1630   48.1330   16.9640 N.pl3 101  ARG101      0.1354
     99  N         34.6140   42.4560   13.3750 N.3   183  LYS183     -0.1231
    100  CA        33.1630   42.3070   13.2500 C.3   183  LYS183      0.1693
    101  C         32.3970   42.9820   14.3980 C.2   183  LYS183      0.2592
    102  O         31.4450   43.7170   14.1560 O.2   183  LYS183     -0.2718
    103  CB        32.7710   40.8300   13.1440 C.3   183  LYS183      0.0285
    104  CG        31.3180   40.5660   12.7810 C.3   183  LYS183      0.0035
    105  CD        31.0600   39.0500   12.7120 C.3   183  LYS183      0.0206
    106  CE        29.9870   38.6590   13.6760 C.3   183  LYS183      0.1093
    107  NZ        29.5620   37.2330   13.5330 N.3   183  LYS183     -0.1314
    108  N         32.8550   42.7680   15.6270 N.am  184  THR184     -0.1953
    109  CA        32.1500   43.2730   16.8230 C.3   184  THR184      0.1897
    110  C         33.0230   44.1580   17.7090 C.2   184  THR184      0.2313
    111  O         32.5170   45.0930   18.3260 O.2   184  THR184     -0.2863
    112  CB        31.5070   42.1400   17.6420 C.3   184  THR184      0.1794
    113  OG1       32.5080   41.1850   18.0180 O.3   184  THR184     -0.2208
    114  CG2       30.4340   41.4290   16.8090 C.3   184  THR184      0.0378
    115  N         32.2070   40.9870   25.2650 N.3   220  PHE220     -0.1227
    116  CA        30.9140   41.0220   24.5860 C.3   220  PHE220      0.1736
    117  C         30.6970   39.8310   23.6310 C.2   220  PHE220      0.2595
    118  O         29.6630   39.1660   23.6930 O.2   220  PHE220     -0.2718
    119  CB        30.6590   42.3800   23.8960 C.3   220  PHE220      0.0547
    120  CG        29.4850   42.3650   22.9550 C.ar  220  PHE220     -0.0202
    121  CD1       28.2260   42.7000   23.4120 C.ar  220  PHE220     -0.0042
    122  CD2       29.6410   41.9780   21.6090 C.ar  220  PHE220     -0.0042
    123  CE1       27.1240   42.6600   22.5620 C.ar  220  PHE220     -0.0003
    124  CE2       28.5560   41.9430   20.7570 C.ar  220  PHE220     -0.0003
    125  CZ        27.2860   42.2880   21.2380 C.ar  220  PHE220     -0.0000
    126  N         31.6840   39.5810   22.7730 N.am  221  GLN221     -0.1979
    127  CA        31.5720   38.5480   21.7640 C.3   221  GLN221      0.1601
    128  C         31.6870   37.1530   22.3780 C.2   221  GLN221      0.2287
    129  O         30.9400   36.2470   21.9720 O.2   221  GLN221     -0.2864
    130  CB        32.6600   38.7070   20.7270 C.3   221  GLN221      0.0394
    131  CG        32.6430   37.6120   19.7020 C.3   221  GLN221      0.0908
    132  CD        31.5270   37.7590   18.7420 C.2   221  GLN221      0.2608
    133  OE1       31.3940   38.7890   18.0970 O.2   221  GLN221     -0.2717
    134  NE2       30.6820   36.7470   18.6580 N.am  221  GLN221     -0.0878
    135  N         28.3790   36.5410   23.9590 N.3   224  ASP224     -0.1239
    136  CA        27.3970   36.2850   22.8920 C.3   224  ASP224      0.1674
    137  C         27.5250   34.8310   22.4160 C.2   224  ASP224      0.2266
    138  O         26.5030   34.1440   22.2060 O.2   224  ASP224     -0.2867
    139  CB        27.5980   37.2490   21.7270 C.3   224  ASP224      0.1410
    140  CG        26.4970   37.1480   20.6820 C.2   224  ASP224      0.3668
    141  OD1       25.4160   37.7190   20.9050 O.co2 224  ASP224     -0.2456
    142  OD2       26.7230   36.5080   19.6410 O.co2 224  ASP224     -0.2456
    143  N         27.3810   43.1530   33.1430 N.3   284  TYR284     -0.1241
    144  CA        26.4640   42.6020   32.1490 C.3   284  TYR284      0.1605
    145  C         26.7790   41.1160   31.8590 C.2   284  TYR284      0.2264
    146  O         25.8720   40.3330   31.5420 O.2   284  TYR284     -0.2867
    147  CB        26.4410   43.4830   30.8880 C.3   284  TYR284      0.0534
    148  CG        25.9720   42.7980   29.6290 C.ar  284  TYR284     -0.0201
    149  CD1       26.8690   42.5380   28.6180 C.ar  284  TYR284     -0.0009
    150  CD2       24.6500   42.3920   29.4550 C.ar  284  TYR284     -0.0009
    151  CE1       26.4930   41.9070   27.4620 C.ar  284  TYR284      0.0417
    152  CE2       24.2590   41.7310   28.2780 C.ar  284  TYR284      0.0417
    153  CZ        25.2100   41.5040   27.2900 C.ar  284  TYR284      0.1957
    154  OH        24.9230   40.8780   26.1070 O.3   284  TYR284     -0.2866
@<TRIPOS>BOND
     1    66    65    2
     2    64    63    1
     3    64    65    1
     4    64    67    1
     5    72    71    2
     6    65    69   am
     7    71    70    1
     8    67    68    1
     9    69    70    1
    10    70    73    1
    11   105   104    1
    12   105   106    1
    13   104   103    1
    14   103   100    1
    15   100    99    1
    16   100   101    1
    17    73    74    1
    18   107   106    1
    19    86    85    1
    20    56    55    2
    21   102   101    2
    22    53    54    1
    23    55    54    1
    24    81    82    1
    25    81    78    1
    26    84    85    2
    27    84    83    1
    28   101   108   am
    29    74    76    1
    30    74    75    1
    31    85    87    1
    32    82    83    1
    33    54    57    1
    34    77    78    1
    35    78    79    1
    36   108   109    1
    37    47    46    2
    38    46    45    1
    39    80    79    2
    40    57    58    1
    41    79    88   am
    42    59    58   ar
    43    59    61   ar
    44   114   112    1
    45   109   112    1
    46   109   110    1
    47    58    60   ar
    48    98    96    1
    49    44    45    1
    50    45    48    1
    51    61    62   ar
    52   112   113    1
    53    88    89    1
    54   110   111    2
    55    96    95    2
    56    96    97    1
    57    94    95    1
    58    94    93    1
    59    60    62   ar
    60   133   132    2
    61    93    92    1
    62    92    89    1
    63    48    49    1
    64   134   132   am
    65   132   131    1
    66    89    90    1
    67    49    50    1
    68    40    39    1
    69    40    41    2
    70    90    91    2
    71    52    50   ar
    72    39    38    1
    73    50    51   ar
    74    43    41    1
    75    41    42    1
    76   142   140   ar
    77   131   130    1
    78    23    22    1
    79    24    22    1
    80    38    37    1
    81   140   141   ar
    82   140   139    1
    83    22    21    2
    84   130   127    1
    85   124   125   ar
    86   124   122   ar
    87    37    34    1
    88   125   123   ar
    89   122   120   ar
    90    21    20    1
    91     2     1    1
    92     2     3    1
    93   139   136    1
    94   127   128    1
    95   127   126    1
    96   129   128    2
    97    20    19    1
    98   138   137    2
    99    34    35    1
   100    34    33    1
   101   137   136    1
   102   123   121   ar
   103    35    36    2
   104   126   117   am
   105   136   135    1
   106   120   121   ar
   107   120   119    1
   108    33    27   am
   109     3     5   am
   110     3     4    2
   111    19    18    1
   112     5     6    1
   113    13    12    1
   114    15    14    1
   115    15    18    1
   116    15    16    1
   117   117   118    2
   118   117   116    1
   119    14     7   am
   120   119   116    1
   121    16    25   am
   122    16    17    2
   123    25    26    1
   124    27    26    1
   125    27    28    2
   126   116   115    1
   127    12    11    1
   128    29    26    1
   129    29    30    1
   130     6     7    1
   131     6     9    1
   132     7     8    2
   133     9    10    1
   134    10    11    1
   135   154   153    1
   136    30    32    1
   137    30    31    1
   138   153   151   ar
   139   153   152   ar
   140   151   149   ar
   141   152   150   ar
   142   149   148   ar
   143   150   148   ar
   144   148   147    1
   145   147   144    1
   146   146   145    2
   147   145   144    1
   148   144   143    1
