@<TRIPOS>MOLECULE
tmp/3pdjA00.pdb
 187 180 0 0 0
SMALL
GASTEIGER

@<TRIPOS>ATOM
      1  N        -40.1930   19.2710    0.8340 N.3   102  ILE102     -0.1245
      2  CA       -41.6400   19.5600    0.9220 C.3   102  ILE102      0.1561
      3  C        -41.9740   20.3110    2.2160 C.2   102  ILE102      0.2260
      4  O        -41.1880   20.2950    3.1620 O.2   102  ILE102     -0.2867
      5  CB       -42.5030   18.2860    0.8500 C.3   102  ILE102      0.0252
      6  CG1      -42.0310   17.2650    1.8970 C.3   102  ILE102      0.0019
      7  CG2      -42.4930   17.7270   -0.5930 C.3   102  ILE102      0.0019
      8  CD1      -42.9640   16.1150    2.1550 C.3   102  ILE102      0.0001
      9  N        -44.3660   20.7660    5.5970 N.3   104  ASN104     -0.1225
     10  CA       -44.9560   19.7500    6.4750 C.3   104  ASN104      0.1785
     11  C        -46.3750   19.4570    6.0970 C.2   104  ASN104      0.2598
     12  O        -47.1110   20.3430    5.6480 O.2   104  ASN104     -0.2718
     13  CB       -44.9340   20.1770    7.9470 C.3   104  ASN104      0.1169
     14  CG       -43.5590   20.0200    8.5860 C.2   104  ASN104      0.2627
     15  OD1      -42.5260   19.9990    7.8990 O.2   104  ASN104     -0.2716
     16  ND2      -43.5380   19.9300    9.9150 N.am  104  ASN104     -0.0877
     17  N        -46.7700   18.2090    6.2680 N.am  105  THR105     -0.1939
     18  CA       -48.1630   17.8910    6.1100 C.3   105  THR105      0.2028
     19  C        -48.4160   16.6820    6.9580 C.2   105  THR105      0.2643
     20  O        -47.4760   16.0430    7.4320 O.2   105  THR105     -0.2714
     21  CB       -48.5660   17.6180    4.6160 C.3   105  THR105      0.1808
     22  OG1      -49.9830   17.7230    4.4960 O.3   105  THR105     -0.2208
     23  CG2      -48.1430   16.2430    4.1460 C.3   105  THR105      0.0379
     24  N        -49.6850   16.3530    7.1250 N.am  106  SER106     -0.1935
     25  CA       -50.0490   15.1670    7.8540 C.3   106  SER106      0.2055
     26  C        -51.1280   14.4330    7.0760 C.2   106  SER106      0.2642
     27  O        -51.7600   14.9820    6.1630 O.2   106  SER106     -0.2714
     28  CB       -50.5810   15.5790    9.2310 C.3   106  SER106      0.2130
     29  OG       -51.6850   16.4590    9.0430 O.3   106  SER106     -0.2179
     30  N        -51.3440   13.1930    7.4590 N.am  107  LEU107     -0.1977
     31  CA       -52.3560   12.3590    6.8610 C.3   107  LEU107      0.1596
     32  C        -53.7330   12.6920    7.4430 C.2   107  LEU107      0.2287
     33  O        -54.1250   12.1640    8.4870 O.2   107  LEU107     -0.2864
     34  CB       -51.9800   10.8990    7.0980 C.3   107  LEU107      0.0297
     35  CG       -50.5250   10.6290    6.7030 C.3   107  LEU107      0.0022
     36  CD1      -50.1570    9.1970    7.0040 C.3   107  LEU107      0.0001
     37  CD2      -50.2560   10.9540    5.2050 C.3   107  LEU107      0.0001
     38  N        -43.7980   11.3760   -6.1450 N.3   151  SER151     -0.1202
     39  CA       -44.3520   10.2970   -5.3360 C.3   151  SER151      0.2020
     40  C        -45.3460    9.4760   -6.1350 C.2   151  SER151      0.2619
     41  O        -45.9680   10.0020   -7.0330 O.2   151  SER151     -0.2717
     42  CB       -45.1000   10.9700   -4.1470 C.3   151  SER151      0.2103
     43  OG       -46.0040   10.0720   -3.5450 O.3   151  SER151     -0.2182
     44  N        -45.5840    8.2290   -5.7600 N.am  152  LEU152     -0.1965
     45  CA       -46.7580    7.5380   -6.2700 C.3   152  LEU152      0.1728
     46  C        -48.0000    8.4060   -6.2860 C.2   152  LEU152      0.2616
     47  O        -48.8590    8.2820   -7.1890 O.2   152  LEU152     -0.2715
     48  CB       -47.0590    6.3010   -5.4540 C.3   152  LEU152      0.0311
     49  CG       -46.0490    5.1700   -5.5070 C.3   152  LEU152      0.0022
     50  CD1      -46.5410    4.0180   -4.5640 C.3   152  LEU152      0.0001
     51  CD2      -45.8540    4.6940   -6.9560 C.3   152  LEU152      0.0001
     52  N        -48.1000    9.2900   -5.2980 N.am  153  ALA153     -0.1977
     53  CA       -49.3110   10.0730   -5.0810 C.3   153  ALA153      0.1597
     54  C        -49.3160   11.2910   -5.9720 C.2   153  ALA153      0.2287
     55  O        -50.2650   12.0410   -5.9820 O.2   153  ALA153     -0.2864
     56  CB       -49.4470   10.4860   -3.5940 C.3   153  ALA153      0.0319
     57  N        -54.7020    9.1290   -3.7890 N.3   158  TYR158     -0.1228
     58  CA       -54.8910    8.5700   -2.4300 C.3   158  TYR158      0.1721
     59  C        -55.7130    9.5520   -1.5920 C.2   158  TYR158      0.2437
     60  O        -55.5140   10.7710   -1.6850 O.2   158  TYR158     -0.2733
     61  CB       -53.5560    8.4300   -1.6930 C.3   158  TYR158      0.0547
     62  CG       -52.5380    7.4380   -2.2160 C.ar  158  TYR158     -0.0200
     63  CD1      -51.7210    7.7580   -3.3020 C.ar  158  TYR158     -0.0009
     64  CD2      -52.3620    6.1890   -1.6000 C.ar  158  TYR158     -0.0009
     65  CE1      -50.7480    6.8750   -3.7720 C.ar  158  TYR158      0.0417
     66  CE2      -51.3830    5.2850   -2.0550 C.ar  158  TYR158      0.0417
     67  CZ       -50.5790    5.6500   -3.1550 C.ar  158  TYR158      0.1957
     68  OH       -49.5820    4.8170   -3.6240 O.3   158  TYR158     -0.2866
     69  N        -56.6080    9.0310   -0.7320 N.am  159  PRO159     -0.2718
     70  CA       -57.2120    9.9310    0.2390 C.3   159  PRO159      0.1535
     71  C        -56.1550   10.3950    1.2550 C.2   159  PRO159      0.2598
     72  O        -55.1300    9.7490    1.3860 O.2   159  PRO159     -0.2715
     73  CB       -58.2590    9.0650    0.9270 C.3   159  PRO159      0.0310
     74  CG       -57.7670    7.6680    0.7810 C.3   159  PRO159      0.0237
     75  CD       -57.0550    7.6370   -0.5540 C.3   159  PRO159      0.0939
     76  N        -56.4040   11.5290    1.9090 N.am  160  MET160     -0.1964
     77  CA       -55.6460   11.9780    3.0830 C.3   160  MET160      0.1736
     78  C        -54.4510   12.8170    2.7060 C.2   160  MET160      0.2616
     79  O        -53.7280   13.2960    3.5820 O.2   160  MET160     -0.2715
     80  CB       -55.1330   10.8010    3.9430 C.3   160  MET160      0.0427
     81  CG       -56.1350    9.7360    4.3310 C.3   160  MET160      0.0599
     82  SD       -57.3380   10.4840    5.3880 S.3   160  MET160     -0.1393
     83  CE       -58.7150   10.6320    4.2890 C.3   160  MET160      0.0692
     84  N        -54.1960   12.9520    1.4040 N.am  161  VAL161     -0.1977
     85  CA       -53.0340   13.7190    0.9560 C.3   161  VAL161      0.1596
     86  C        -53.3860   14.6190   -0.2090 C.2   161  VAL161      0.2287
     87  O        -52.6030   14.7490   -1.1540 O.2   161  VAL161     -0.2864
     88  CB       -51.8450   12.8130    0.5600 C.3   161  VAL161      0.0276
     89  CG1      -51.1210   12.2360    1.8050 C.3   161  VAL161      0.0022
     90  CG2      -52.2760   11.6950   -0.4390 C.3   161  VAL161      0.0022
     91  N        -51.1120   17.7760   -0.9440 N.3   164  TYR164     -0.1241
     92  CA       -49.8310   17.2070   -1.2730 C.3   164  TYR164      0.1605
     93  C        -49.8250   16.5640   -2.6720 C.2   164  TYR164      0.2264
     94  O        -48.8900   16.7840   -3.4200 O.2   164  TYR164     -0.2867
     95  CB       -49.4560   16.1850   -0.2290 C.3   164  TYR164      0.0534
     96  CG       -48.2560   15.3110   -0.5330 C.ar  164  TYR164     -0.0201
     97  CD1      -46.9740   15.6840   -0.1200 C.ar  164  TYR164     -0.0009
     98  CD2      -48.4090   14.0830   -1.1700 C.ar  164  TYR164     -0.0009
     99  CE1      -45.8750   14.8610   -0.3430 C.ar  164  TYR164      0.0417
    100  CE2      -47.3160   13.2660   -1.4260 C.ar  164  TYR164      0.0417
    101  CZ       -46.0540   13.6510   -0.9980 C.ar  164  TYR164      0.1957
    102  OH       -44.9730   12.8200   -1.2120 O.3   164  TYR164     -0.2866
    103  N        -41.6710    7.9470   -6.0250 N.3   196  LEU196     -0.1231
    104  CA       -41.4060    7.1400   -4.8170 C.3   196  LEU196      0.1693
    105  C        -42.6420    6.6320   -4.1150 C.2   196  LEU196      0.2593
    106  O        -43.6300    7.3510   -3.9810 O.2   196  LEU196     -0.2718
    107  CB       -40.5960    7.9330   -3.8060 C.3   196  LEU196      0.0284
    108  CG       -39.3980    8.6980   -4.3380 C.3   196  LEU196      0.0019
    109  CD1      -38.6940    9.2530   -3.1360 C.3   196  LEU196      0.0001
    110  CD2      -38.4590    7.8230   -5.1730 C.3   196  LEU196      0.0001
    111  N        -42.5850    5.3790   -3.6830 N.am  197  GLY197     -0.1942
    112  CA       -43.5690    4.8510   -2.7510 C.3   197  GLY197      0.2014
    113  C        -43.2160    5.2330   -1.3040 C.2   197  GLY197      0.2639
    114  O        -42.3740    6.1030   -1.0660 O.2   197  GLY197     -0.2714
    115  N        -43.8470    4.5800   -0.3440 N.am  198  LEU198     -0.1963
    116  CA       -43.5530    4.8770    1.0660 C.3   198  LEU198      0.1728
    117  C        -42.0950    4.5690    1.3940 C.2   198  LEU198      0.2616
    118  O        -41.6220    3.4520    1.1340 O.2   198  LEU198     -0.2715
    119  CB       -44.4880    4.0900    1.9800 C.3   198  LEU198      0.0311
    120  CG       -44.3610    4.3160    3.4910 C.3   198  LEU198      0.0022
    121  CD1      -44.8260    5.7290    3.8690 C.3   198  LEU198      0.0001
    122  CD2      -45.1670    3.2490    4.2000 C.3   198  LEU198      0.0001
    123  N        -41.3890    5.5790    1.9100 N.am  199  ILE199     -0.1977
    124  CA       -39.9790    5.4680    2.3230 C.3   199  ILE199      0.1596
    125  C        -39.8250    5.6250    3.8570 C.2   199  ILE199      0.2287
    126  O        -40.5650    6.4120    4.4780 O.2   199  ILE199     -0.2864
    127  CB       -39.1090    6.5480    1.6290 C.3   199  ILE199      0.0276
    128  CG1      -39.3660    6.5770    0.0980 C.3   199  ILE199      0.0022
    129  CG2      -37.6080    6.3560    1.9370 C.3   199  ILE199      0.0022
    130  CD1      -39.0930    5.2210   -0.5970 C.3   199  ILE199      0.0001
    131  N        -38.3950    7.1580    6.1500 N.3   201  THR201     -0.1218
    132  CA       -37.9070    8.3420    6.8170 C.3   201  THR201      0.1862
    133  C        -38.7280    8.5390    8.1070 C.2   201  THR201      0.2287
    134  O        -39.9080    8.1370    8.1880 O.2   201  THR201     -0.2866
    135  CB       -37.9890    9.5850    5.8930 C.3   201  THR201      0.1770
    136  OG1      -39.3580    9.9340    5.6840 O.3   201  THR201     -0.2211
    137  CG2      -37.3420    9.2650    4.5230 C.3   201  THR201      0.0375
    138  N        -40.0980   11.2170    9.5780 N.3   203  THR203     -0.1203
    139  CA       -41.3780   11.9100    9.3350 C.3   203  THR203      0.1994
    140  C        -42.4740   10.9390    8.8900 C.2   203  THR203      0.2617
    141  O        -43.5430   10.8720    9.4920 O.2   203  THR203     -0.2717
    142  CB       -41.2380   12.9560    8.2680 C.3   203  THR203      0.1784
    143  OG1      -40.1200   13.7820    8.5690 O.3   203  THR203     -0.2211
    144  CG2      -42.4770   13.8180    8.1930 C.3   203  THR203      0.0376
    145  N        -42.1890   10.1560    7.8560 N.am  204  ALA204     -0.1979
    146  CA       -43.1750    9.2210    7.3380 C.3   204  ALA204      0.1597
    147  C        -43.4550    8.1270    8.3530 C.2   204  ALA204      0.2287
    148  O        -44.6000    7.7340    8.5600 O.2   204  ALA204     -0.2864
    149  CB       -42.6980    8.6110    6.0000 C.3   204  ALA204      0.0319
    150  N        -45.7550    9.3510   11.0980 N.3   207  ALA207     -0.1231
    151  CA       -47.1140    9.5980   10.6230 C.3   207  ALA207      0.1694
    152  C        -47.9110    8.3160   10.4180 C.2   207  ALA207      0.2591
    153  O        -49.1470    8.3220   10.5060 O.2   207  ALA207     -0.2718
    154  CB       -47.0970   10.4310    9.3670 C.3   207  ALA207      0.0304
    155  N        -47.2170    7.2080   10.1740 N.am  208  VAL208     -0.1980
    156  CA       -47.9300    5.9490    9.9290 C.3   208  VAL208      0.1595
    157  C        -47.7320    4.8880   11.0210 C.2   208  VAL208      0.2287
    158  O        -48.1870    3.7500   10.8520 O.2   208  VAL208     -0.2864
    159  CB       -47.6050    5.3470    8.5260 C.3   208  VAL208      0.0276
    160  CG1      -47.9010    6.3800    7.4040 C.3   208  VAL208      0.0022
    161  CG2      -46.1480    4.8160    8.4660 C.3   208  VAL208      0.0022
    162  N        -49.9920    1.9270   12.0250 N.3   211  ILE211     -0.1245
    163  CA       -50.8680    1.5630   10.9020 C.3   211  ILE211      0.1561
    164  C        -50.4010    0.2710   10.2070 C.2   211  ILE211      0.2260
    165  O        -49.2090    0.0170   10.0380 O.2   211  ILE211     -0.2867
    166  CB       -51.2230    2.7410    9.9590 C.3   211  ILE211      0.0252
    167  CG1      -51.9840    3.8190   10.7500 C.3   211  ILE211      0.0019
    168  CG2      -52.1010    2.2400    8.8020 C.3   211  ILE211      0.0019
    169  CD1      -51.9720    5.2050   10.1160 C.3   211  ILE211      0.0001
    170  N        -49.9240   -2.6240    7.3130 N.3   213  HIS213     -0.1226
    171  CA       -49.5490   -2.7020    5.8850 C.3   213  HIS213      0.1752
    172  C        -48.6790   -1.5330    5.4140 C.2   213  HIS213      0.2595
    173  O        -48.6810   -1.1670    4.2360 O.2   213  HIS213     -0.2718
    174  CB       -50.7980   -2.8620    4.9990 C.3   213  HIS213      0.0759
    175  CG       -51.5590   -4.1250    5.2610 C.ar  213  HIS213      0.0818
    176  ND1      -52.8810   -4.1320    5.6600 N.ar  213  HIS213     -0.2268
    177  CD2      -51.1780   -5.4240    5.1890 C.ar  213  HIS213      0.1154
    178  CE1      -53.2820   -5.3820    5.8180 C.ar  213  HIS213      0.1986
    179  NE2      -52.2670   -6.1850    5.5410 N.ar  213  HIS213     -0.2212
    180  N        -47.9340   -0.9610    6.3550 N.am  214  MET214     -0.1979
    181  CA       -47.1040    0.2060    6.0840 C.3   214  MET214      0.1605
    182  C        -45.6650   -0.2020    5.7780 C.2   214  MET214      0.2287
    183  O        -44.7260    0.1380    6.5160 O.2   214  MET214     -0.2864
    184  CB       -47.2070    1.2280    7.2300 C.3   214  MET214      0.0413
    185  CG       -48.5940    1.8500    7.3130 C.3   214  MET214      0.0598
    186  SD       -49.0330    2.7870    5.8110 S.3   214  MET214     -0.1393
    187  CE       -50.6500    2.1410    5.3910 C.3   214  MET214      0.0692
@<TRIPOS>BOND
     1    47    46    2
     2    41    40    2
     3    51    49    1
     4    46    45    1
     5    46    52   am
     6    45    44    1
     7    45    48    1
     8    38    39    1
     9    40    44   am
    10    40    39    1
    11   103   104    1
    12    55    54    2
    13    54    53    1
    14    49    48    1
    15    49    50    1
    16    39    42    1
    17    52    53    1
    18   110   108    1
    19    53    56    1
    20   104   105    1
    21   104   107    1
    22   108   107    1
    23   108   109    1
    24    42    43    1
    25   105   106    2
    26   105   111   am
    27    57    58    1
    28    65    63   ar
    29    65    67   ar
    30   111   112    1
    31    68    67    1
    32    94    93    2
    33    63    62   ar
    34    67    66   ar
    35   112   113    1
    36    93    92    1
    37    58    61    1
    38    58    59    1
    39    62    61    1
    40    62    64   ar
    41    66    64   ar
    42    60    59    2
    43    59    69   am
    44   100    98   ar
    45   100   101   ar
    46   113   114    2
    47   113   115   am
    48    92    91    1
    49    92    95    1
    50   102   101    1
    51    98    96   ar
    52    87    86    2
    53   101    99   ar
    54    69    75    1
    55    69    70    1
    56   130   128    1
    57     7     5    1
    58    75    74    1
    59    96    95    1
    60    96    97   ar
    61    90    88    1
    62   115   116    1
    63    99    97   ar
    64    86    85    1
    65   128   127    1
    66    70    73    1
    67    70    71    1
    68    88    85    1
    69    88    89    1
    70    74    73    1
    71     1     2    1
    72     5     2    1
    73     5     6    1
    74     2     3    1
    75    85    84    1
    76   116   117    1
    77   116   119    1
    78   118   117    2
    79    71    72    2
    80    71    76   am
    81   117   123   am
    82    84    78   am
    83   127   129    1
    84   127   124    1
    85     6     8    1
    86    76    77    1
    87   123   124    1
    88   119   120    1
    89     3     4    2
    90   124   125    1
    91    78    77    1
    92    78    79    2
    93    77    80    1
    94   120   121    1
    95   120   122    1
    96   125   126    2
    97    80    81    1
    98    23    21    1
    99   173   172    2
   100    83    82    1
   101    81    82    1
   102    22    21    1
   103   137   135    1
   104    21    18    1
   105   174   175    1
   106   174   171    1
   107   177   175   ar
   108   177   179   ar
   109    37    35    1
   110   175   176   ar
   111   187   186    1
   112   172   171    1
   113   172   180   am
   114   179   178   ar
   115     9    10    1
   116    12    11    2
   117   176   178   ar
   118   136   135    1
   119   182   181    1
   120   182   183    2
   121   186   185    1
   122   171   170    1
   123   135   132    1
   124   149   146    1
   125   181   180    1
   126   181   184    1
   127    11    17   am
   128    11    10    1
   129    18    17    1
   130    18    19    1
   131   131   132    1
   132    27    26    2
   133    10    13    1
   134    35    36    1
   135    35    34    1
   136   132   133    1
   137    31    34    1
   138    31    32    1
   139    31    30    1
   140    19    24   am
   141    19    20    2
   142    26    30   am
   143    26    25    1
   144    24    25    1
   145   184   185    1
   146   146   145    1
   147   146   147    1
   148   160   159    1
   149    32    33    2
   150    25    28    1
   151   145   140   am
   152    15    14    2
   153    13    14    1
   154   133   134    2
   155   144   142    1
   156   142   143    1
   157   142   139    1
   158   147   148    2
   159   161   159    1
   160   159   156    1
   161    14    16   am
   162   168   166    1
   163   140   139    1
   164   140   141    2
   165    29    28    1
   166   139   138    1
   167   154   151    1
   168   156   155    1
   169   156   157    1
   170   166   167    1
   171   166   163    1
   172   165   164    2
   173   169   167    1
   174   155   152   am
   175   164   163    1
   176   152   153    2
   177   152   151    1
   178   151   150    1
   179   158   157    2
   180   163   162    1
