@<TRIPOS>MOLECULE
tmp/3pdqB00.pdb
 176 166 0 0 0
SMALL
GASTEIGER

@<TRIPOS>ATOM
      1  N        -54.2820  -55.8630   11.6700 N.3    80  ASN80      -0.1240
      2  CA       -54.6070  -56.7510   10.5740 C.3    80  ASN80       0.1653
      3  C        -55.8510  -57.5490   10.8690 C.2    80  ASN80       0.2266
      4  O        -56.0040  -58.0870   11.9560 O.2    80  ASN80      -0.2867
      5  CB       -53.4450  -57.7030   10.3110 C.3    80  ASN80       0.1155
      6  CG       -52.2130  -56.9870    9.8180 C.2    80  ASN80       0.2627
      7  OD1      -52.2810  -55.8530    9.3460 O.2    80  ASN80      -0.2716
      8  ND2      -51.0730  -57.6510    9.9200 N.am   80  ASN80      -0.0877
      9  N        -54.8540  -56.3070    1.6670 N.3   126  TYR126     -0.1241
     10  CA       -53.5310  -56.6280    1.1270 C.3   126  TYR126      0.1605
     11  C        -53.4000  -58.1500    0.9640 C.2   126  TYR126      0.2264
     12  O        -53.5360  -58.9060    1.9260 O.2   126  TYR126     -0.2867
     13  CB       -52.4440  -56.1200    2.0970 C.3   126  TYR126      0.0534
     14  CG       -51.0670  -55.9040    1.5060 C.ar  126  TYR126     -0.0201
     15  CD1      -50.8550  -55.9570    0.1430 C.ar  126  TYR126     -0.0009
     16  CD2      -49.9720  -55.6140    2.3260 C.ar  126  TYR126     -0.0009
     17  CE1      -49.5860  -55.7290   -0.4090 C.ar  126  TYR126      0.0417
     18  CE2      -48.6960  -55.3890    1.7850 C.ar  126  TYR126      0.0417
     19  CZ       -48.5160  -55.4510    0.4170 C.ar  126  TYR126      0.1957
     20  OH       -47.2730  -55.2140   -0.1520 O.3   126  TYR126     -0.2866
     21  N        -48.0000  -61.9880    2.0100 N.3   129  ASP129     -0.1239
     22  CA       -47.3590  -63.1860    2.5420 C.3   129  ASP129      0.1674
     23  C        -47.7940  -64.4730    1.8610 C.2   129  ASP129      0.2266
     24  O        -47.9440  -65.5050    2.5270 O.2   129  ASP129     -0.2867
     25  CB       -47.6320  -63.3120    4.0350 C.3   129  ASP129      0.1410
     26  CG       -46.9860  -62.2020    4.8380 C.2   129  ASP129      0.3668
     27  OD1      -46.2310  -61.3980    4.2510 O.co2 129  ASP129     -0.2456
     28  OD2      -47.2380  -62.1440    6.0610 O.co2 129  ASP129     -0.2456
     29  N        -40.4490  -69.5270    5.9140 N.3   163  GLU163     -0.1245
     30  CA       -41.2220  -69.0080    4.7850 C.3   163  GLU163      0.1567
     31  C        -41.0980  -67.4950    4.6470 C.2   163  GLU163      0.2260
     32  O        -41.2010  -66.7610    5.6320 O.2   163  GLU163     -0.2867
     33  CB       -42.6820  -69.4430    4.8860 C.3   163  GLU163      0.0388
     34  CG       -42.8350  -70.9610    4.9280 C.3   163  GLU163      0.1160
     35  CD       -44.2690  -71.4030    4.7450 C.2   163  GLU163      0.3649
     36  OE1      -45.1720  -70.5580    4.9310 O.co2 163  GLU163     -0.2457
     37  OE2      -44.4940  -72.5900    4.4130 O.co2 163  GLU163     -0.2457
     38  N        -42.0280  -65.0120   -1.1060 N.3   169  TYR169     -0.1241
     39  CA       -43.3880  -64.5930   -0.7850 C.3   169  TYR169      0.1605
     40  C        -43.8910  -63.7070   -1.9100 C.2   169  TYR169      0.2264
     41  O        -43.1160  -62.9380   -2.4850 O.2   169  TYR169     -0.2867
     42  CB       -43.3820  -63.7300    0.4760 C.3   169  TYR169      0.0534
     43  CG       -43.6880  -64.4270    1.7930 C.ar  169  TYR169     -0.0201
     44  CD1      -43.9700  -65.7820    1.8460 C.ar  169  TYR169     -0.0009
     45  CD2      -43.7160  -63.6980    2.9890 C.ar  169  TYR169     -0.0009
     46  CE1      -44.2640  -66.4050    3.0490 C.ar  169  TYR169      0.0417
     47  CE2      -44.0130  -64.3100    4.2010 C.ar  169  TYR169      0.0417
     48  CZ       -44.2840  -65.6620    4.2270 C.ar  169  TYR169      0.1957
     49  OH       -44.5820  -66.2770    5.4320 O.3   169  TYR169     -0.2866
     50  N        -46.7980  -60.6650   -2.8220 N.3   171  TYR171     -0.1241
     51  CA       -47.6240  -59.6140   -2.2490 C.3   171  TYR171      0.1605
     52  C        -48.4860  -58.9940   -3.3380 C.2   171  TYR171      0.2264
     53  O        -47.9770  -58.3060   -4.2350 O.2   171  TYR171     -0.2867
     54  CB       -46.7340  -58.5120   -1.6510 C.3   171  TYR171      0.0534
     55  CG       -45.9360  -59.0010   -0.4570 C.ar  171  TYR171     -0.0201
     56  CD1      -44.7350  -59.6930   -0.6260 C.ar  171  TYR171     -0.0009
     57  CD2      -46.3930  -58.7790    0.8430 C.ar  171  TYR171     -0.0009
     58  CE1      -44.0100  -60.1570    0.4790 C.ar  171  TYR171      0.0417
     59  CE2      -45.6720  -59.2350    1.9550 C.ar  171  TYR171      0.0417
     60  CZ       -44.4910  -59.9270    1.7590 C.ar  171  TYR171      0.1957
     61  OH       -43.7730  -60.3760    2.8510 O.3   171  TYR171     -0.2866
     62  N        -46.8190  -51.0760    4.0670 N.3   179  PHE179     -0.1241
     63  CA       -45.8860  -51.8040    4.9090 C.3   179  PHE179      0.1605
     64  C        -45.2320  -50.8460    5.9210 C.2   179  PHE179      0.2264
     65  O        -44.7120  -49.7810    5.5600 O.2   179  PHE179     -0.2867
     66  CB       -44.8820  -52.6580    4.1120 C.3   179  PHE179      0.0534
     67  CG       -44.0880  -51.9020    3.0560 C.ar  179  PHE179     -0.0203
     68  CD1      -42.7640  -51.5580    3.2870 C.ar  179  PHE179     -0.0042
     69  CD2      -44.6520  -51.5870    1.8320 C.ar  179  PHE179     -0.0042
     70  CE1      -42.0210  -50.8960    2.3290 C.ar  179  PHE179     -0.0003
     71  CE2      -43.9060  -50.9140    0.8580 C.ar  179  PHE179     -0.0003
     72  CZ       -42.5880  -50.5710    1.1140 C.ar  179  PHE179     -0.0000
     73  N        -39.8390  -51.0600    9.4740 N.3   182  HIS182     -0.1241
     74  CA       -39.1590  -52.2100   10.0630 C.3   182  HIS182      0.1621
     75  C        -37.8030  -52.4020    9.4160 C.2   182  HIS182      0.2264
     76  O        -37.5600  -51.8970    8.3190 O.2   182  HIS182     -0.2867
     77  CB       -39.9830  -53.4830    9.8300 C.3   182  HIS182      0.0745
     78  CG       -40.1330  -53.8350    8.3760 C.ar  182  HIS182      0.0817
     79  ND1      -40.9790  -53.1480    7.5300 N.ar  182  HIS182     -0.2268
     80  CD2      -39.5290  -54.7820    7.6170 C.ar  182  HIS182      0.1154
     81  CE1      -40.8810  -53.6460    6.3080 C.ar  182  HIS182      0.1986
     82  NE2      -40.0220  -54.6500    6.3360 N.ar  182  HIS182     -0.2212
     83  N        -35.4600  -56.0320    8.3290 N.3   184  GLU184     -0.1231
     84  CA       -35.7320  -57.4500    8.0750 C.3   184  GLU184      0.1699
     85  C        -35.4840  -58.2980    9.3200 C.2   184  GLU184      0.2592
     86  O        -34.7170  -57.9030   10.2080 O.2   184  GLU184     -0.2718
     87  CB       -34.8370  -57.9750    6.9390 C.3   184  GLU184      0.0402
     88  CG       -35.0920  -57.2970    5.6110 C.3   184  GLU184      0.1161
     89  CD       -36.5760  -57.2890    5.2660 C.2   184  GLU184      0.3649
     90  OE1      -37.1340  -58.3450    4.8980 O.co2 184  GLU184     -0.2457
     91  OE2      -37.1850  -56.2270    5.4110 O.co2 184  GLU184     -0.2457
     92  N        -36.1040  -59.4790    9.3830 N.am  185  ASP185     -0.1974
     93  CA       -35.7590  -60.4210   10.4410 C.3   185  ASP185      0.1709
     94  C        -34.2360  -60.6190   10.4830 C.2   185  ASP185      0.2293
     95  O        -33.5920  -60.6760    9.4370 O.2   185  ASP185     -0.2864
     96  CB       -36.4450  -61.7690   10.2050 C.3   185  ASP185      0.1436
     97  CG       -37.9480  -61.6900   10.4040 C.2   185  ASP185      0.3671
     98  OD1      -38.3700  -61.0830   11.4070 O.co2 185  ASP185     -0.2456
     99  OD2      -38.6940  -62.2170    9.5550 O.co2 185  ASP185     -0.2456
    100  N        -32.9960  -57.7190    2.1010 N.3   190  SER190     -0.1217
    101  CA       -34.1010  -58.2820    1.3370 C.3   190  SER190      0.1889
    102  C        -34.0100  -57.8790   -0.1320 C.2   190  SER190      0.2288
    103  O        -33.3750  -56.8840   -0.4820 O.2   190  SER190     -0.2866
    104  CB       -35.4530  -57.8710    1.9100 C.3   190  SER190      0.2089
    105  OG       -35.6320  -56.4760    1.8130 O.3   190  SER190     -0.2183
    106  N        -36.6900  -57.2850   -3.4980 N.3   192  ASN192     -0.1240
    107  CA       -38.1150  -57.1240   -3.8220 C.3   192  ASN192      0.1653
    108  C        -38.2610  -56.8150   -5.3000 C.2   192  ASN192      0.2266
    109  O        -37.7310  -55.8210   -5.7780 O.2   192  ASN192     -0.2867
    110  CB       -38.7270  -55.9540   -3.0030 C.3   192  ASN192      0.1155
    111  CG       -40.2620  -55.7850   -3.2180 C.2   192  ASN192      0.2627
    112  OD1      -40.7260  -55.4200   -4.3140 O.2   192  ASN192     -0.2716
    113  ND2      -41.0400  -55.9990   -2.1460 N.am  192  ASN192     -0.0877
    114  N        -44.9730  -49.1010   -6.3170 N.3   200  LYS200     -0.1245
    115  CA       -44.8380  -49.2480   -4.8730 C.3   200  LYS200      0.1561
    116  C        -43.8590  -48.1600   -4.4270 C.2   200  LYS200      0.2260
    117  O        -42.7480  -48.0800   -4.9470 O.2   200  LYS200     -0.2867
    118  CB       -44.2890  -50.6450   -4.5470 C.3   200  LYS200      0.0271
    119  CG       -44.0980  -50.9060   -3.0460 C.3   200  LYS200      0.0035
    120  CD       -43.3630  -52.2310   -2.7620 C.3   200  LYS200      0.0206
    121  CE       -44.0770  -53.4520   -3.3710 C.3   200  LYS200      0.1093
    122  NZ       -45.3050  -53.8650   -2.6080 N.3   200  LYS200     -0.1314
    123  N        -41.5380  -46.1680   -1.4640 N.3   202  TRP202     -0.1241
    124  CA       -40.7140  -46.6160   -0.3560 C.3   202  TRP202      0.1605
    125  C        -40.1670  -45.4140    0.3990 C.2   202  TRP202      0.2264
    126  O        -39.9040  -44.3770   -0.2110 O.2   202  TRP202     -0.2867
    127  CB       -39.5050  -47.3690   -0.9060 C.3   202  TRP202      0.0550
    128  CG       -39.8100  -48.6680   -1.5440 C.ar  202  TRP202      0.0003
    129  CD1      -40.4140  -48.8730   -2.7500 C.ar  202  TRP202      0.0946
    130  CD2      -39.4910  -49.9550   -1.0290 C.ar  202  TRP202      0.0152
    131  NE1      -40.4970  -50.2100   -3.0140 N.ar  202  TRP202     -0.2442
    132  CE2      -39.9350  -50.9010   -1.9730 C.ar  202  TRP202      0.0810
    133  CE3      -38.8630  -50.4040    0.1410 C.ar  202  TRP202      0.0012
    134  CZ2      -39.7850  -52.2630   -1.7860 C.ar  202  TRP202      0.0191
    135  CZ3      -38.7190  -51.7680    0.3280 C.ar  202  TRP202      0.0001
    136  CH2      -39.1710  -52.6750   -0.6330 C.ar  202  TRP202      0.0015
    137  N        -44.1710  -54.8160   12.9340 N.3   235  LYS235     -0.1245
    138  CA       -44.5920  -54.2400   11.6540 C.3   235  LYS235      0.1561
    139  C        -45.9920  -53.6490   11.7310 C.2   235  LYS235      0.2260
    140  O        -46.8290  -53.8590   10.8370 O.2   235  LYS235     -0.2867
    141  CB       -44.4980  -55.2920   10.5420 C.3   235  LYS235      0.0271
    142  CG       -43.0580  -55.8160   10.3480 C.3   235  LYS235      0.0035
    143  CD       -42.9550  -56.7890    9.1840 C.3   235  LYS235      0.0206
    144  CE       -42.3300  -58.1190    9.6140 C.3   235  LYS235      0.1093
    145  NZ       -41.0200  -58.0010   10.3610 N.3   235  LYS235     -0.1314
    146  N        -33.0300  -53.9940    0.0560 N.3   264  THR264     -0.1218
    147  CA       -32.8450  -53.3460    1.3490 C.3   264  THR264      0.1862
    148  C        -31.6440  -53.9820    2.0380 C.2   264  THR264      0.2287
    149  O        -31.3670  -55.1670    1.8480 O.2   264  THR264     -0.2866
    150  CB       -34.1080  -53.4530    2.2710 C.3   264  THR264      0.1770
    151  OG1      -34.1000  -54.7000    2.9590 O.3   264  THR264     -0.2211
    152  CG2      -35.4070  -53.3160    1.4690 C.3   264  THR264      0.0375
    153  N        -37.2960  -49.4370    6.6190 N.3   270  HIS270     -0.1241
    154  CA       -38.0950  -49.0120    5.4820 C.3   270  HIS270      0.1621
    155  C        -39.5890  -49.1680    5.7400 C.2   270  HIS270      0.2264
    156  O        -40.0150  -49.9100    6.6240 O.2   270  HIS270     -0.2867
    157  CB       -37.7010  -49.7470    4.1820 C.3   270  HIS270      0.0745
    158  CG       -37.6470  -51.2340    4.3160 C.ar  270  HIS270      0.0817
    159  ND1      -36.6170  -51.8790    4.9720 N.ar  270  HIS270     -0.2268
    160  CD2      -38.4990  -52.2070    3.8960 C.ar  270  HIS270      0.1154
    161  CE1      -36.8310  -53.1860    4.9410 C.ar  270  HIS270      0.1986
    162  NE2      -37.9580  -53.4080    4.2870 N.ar  270  HIS270     -0.2212
    163  N        -40.7410  -61.2850   -2.9710 N.3   282  SER282     -0.1217
    164  CA       -39.5470  -61.0020   -2.1850 C.3   282  SER282      0.1889
    165  C        -39.0830  -62.1480   -1.2990 C.2   282  SER282      0.2288
    166  O        -39.8070  -63.1250   -1.0620 O.2   282  SER282     -0.2866
    167  CB       -39.7560  -59.7560   -1.3130 C.3   282  SER282      0.2089
    168  OG       -40.7220  -60.0180   -0.3170 O.3   282  SER282     -0.2183
    169  N        -35.4430  -62.9160    1.6990 N.3   284  ASN284     -0.1240
    170  CA       -34.2360  -62.3710    2.2920 C.3   284  ASN284      0.1653
    171  C        -32.9940  -63.0210    1.7160 C.2   284  ASN284      0.2266
    172  O        -33.0800  -64.0570    1.0480 O.2   284  ASN284     -0.2867
    173  CB       -34.2640  -62.5840    3.7960 C.3   284  ASN284      0.1155
    174  CG       -35.3220  -61.7720    4.4460 C.2   284  ASN284      0.2627
    175  OD1      -36.2960  -62.3030    4.9550 O.2   284  ASN284     -0.2716
    176  ND2      -35.1630  -60.4510    4.3950 N.am  284  ASN284     -0.0877
@<TRIPOS>BOND
     1   114   115    1
     2   109   108    2
     3   108   107    1
     4   117   116    2
     5   115   118    1
     6   115   116    1
     7   118   119    1
     8   112   111    2
     9    53    52    2
    10   107   106    1
    11   107   110    1
    12   121   120    1
    13   121   122    1
    14    52    51    1
    15   111   110    1
    16   111   113   am
    17   119   120    1
    18   131   129   ar
    19   131   132   ar
    20   163   164    1
    21    50    51    1
    22   129   128   ar
    23    41    40    2
    24    51    54    1
    25   164   167    1
    26   164   165    1
    27   132   134   ar
    28   132   130   ar
    29    40    39    1
    30   134   136   ar
    31    54    55    1
    32   128   130   ar
    33   128   127    1
    34   123   124    1
    35   167   168    1
    36   165   166    2
    37    38    39    1
    38   130   133   ar
    39   127   124    1
    40    39    42    1
    41   136   135   ar
    42    56    55   ar
    43    56    58   ar
    44   103   102    2
    45    55    57   ar
    46    17    15   ar
    47    17    19   ar
    48   124   125    1
    49   126   125    2
    50    20    19    1
    51   102   101    1
    52   146   147    1
    53   133   135   ar
    54    15    14   ar
    55    19    18   ar
    56    42    43    1
    57    58    60   ar
    58    57    59   ar
    59    71    72   ar
    60    71    69   ar
    61    11    10    1
    62    11    12    2
    63   172   171    2
    64    72    70   ar
    65    10     9    1
    66    10    13    1
    67   101   104    1
    68   101   100    1
    69   147   148    1
    70   147   150    1
    71   152   150    1
    72    14    13    1
    73    14    16   ar
    74   169   170    1
    75   171   170    1
    76    60    59   ar
    77    60    61    1
    78    18    16   ar
    79    43    44   ar
    80    43    45   ar
    81   105   104    1
    82    69    67   ar
    83    44    46   ar
    84   149   148    2
    85    23    24    2
    86    23    22    1
    87    21    22    1
    88   150   151    1
    89   170   173    1
    90    70    68   ar
    91    22    25    1
    92    45    47   ar
    93    46    48   ar
    94    67    68   ar
    95    67    66    1
    96   173   174    1
    97   160   162   ar
    98   160   158   ar
    99    25    26    1
   100    62    63    1
   101    66    63    1
   102   157   158    1
   103   157   154    1
   104    47    48   ar
   105    48    49    1
   106    27    26   ar
   107   162   161   ar
   108   158   159   ar
   109   176   174   am
   110    37    35   ar
   111   174   175    2
   112    31    30    1
   113    31    32    2
   114    35    34    1
   115    35    36   ar
   116    30    33    1
   117    30    29    1
   118    26    28   ar
   119    33    34    1
   120    90    89   ar
   121    63    64    1
   122   161   159   ar
   123    89    91   ar
   124    89    88    1
   125   154   155    1
   126   154   153    1
   127    65    64    2
   128    88    87    1
   129   155   156    2
   130    81    82   ar
   131    81    79   ar
   132    82    80   ar
   133    87    84    1
   134    79    78   ar
   135    80    78   ar
   136    84    83    1
   137    84    85    1
   138    76    75    2
   139    78    77    1
   140   143   144    1
   141   143   142    1
   142    85    92   am
   143    85    86    2
   144     7     6    2
   145    92    93    1
   146    75    74    1
   147    95    94    2
   148    73    74    1
   149    99    97   ar
   150   144   145    1
   151     6     8   am
   152     6     5    1
   153    77    74    1
   154    96    97    1
   155    96    93    1
   156     5     2    1
   157   142   141    1
   158    97    98   ar
   159    93    94    1
   160   141   138    1
   161     2     3    1
   162     2     1    1
   163   140   139    2
   164     3     4    2
   165   138   139    1
   166   138   137    1
