@<TRIPOS>MOLECULE
tmp/3pdsA00.pdb
 258 253 0 0 0
SMALL
GASTEIGER

@<TRIPOS>ATOM
      1  N         16.0540    9.8270   -1.7380 N.3    62  GLY62      -0.1225
      2  CA        15.7680   10.7300   -0.6290 C.3    62  GLY62       0.1811
      3  C         15.4410   12.1350   -1.0960 C.2    62  GLY62       0.2280
      4  O         14.5490   12.7800   -0.5370 O.2    62  GLY62      -0.2866
      5  N         11.9440   12.4510   -2.6550 N.3    65  CYS65      -0.1221
      6  CA        10.8930   12.4500   -1.6370 C.3    65  CYS65       0.1808
      7  C         10.5050   13.8600   -1.1760 C.2    65  CYS65       0.2601
      8  O          9.4630   14.0180   -0.5400 O.2    65  CYS65      -0.2717
      9  CB        11.3500   11.6350   -0.4330 C.3    65  CYS65       0.0970
     10  SG         9.9440   11.1230    0.4980 S.3    65  CYS65      -0.0800
     11  N         11.3440   14.8710   -1.4780 N.am   66  ILE66      -0.1979
     12  CA        11.1120   16.2770   -1.1290 C.3    66  ILE66       0.1595
     13  C         10.5620   17.0270   -2.3550 C.2    66  ILE66       0.2287
     14  O          9.7080   17.9030   -2.1990 O.2    66  ILE66      -0.2864
     15  CB        12.3840   16.9610   -0.5430 C.3    66  ILE66       0.0276
     16  CG1       13.1550   16.0250    0.4160 C.3    66  ILE66       0.0022
     17  CG2       12.0360   18.2880    0.1520 C.3    66  ILE66       0.0022
     18  CD1       14.6530   16.1040    0.2850 C.3    66  ILE66       0.0001
     19  N          7.1240   15.6670   -2.5450 N.3    69  LYS69      -0.1245
     20  CA         6.5910   15.6660   -1.1710 C.3    69  LYS69       0.1561
     21  C          5.9030   14.3400   -0.7770 C.2    69  LYS69       0.2260
     22  O          5.2250   14.2720    0.2520 O.2    69  LYS69      -0.2867
     23  CB         5.7150   16.9050   -0.8770 C.3    69  LYS69       0.0271
     24  CG         6.5120   18.1900   -0.6930 C.3    69  LYS69       0.0035
     25  CD         5.6050   19.3740   -0.3970 C.3    69  LYS69       0.0206
     26  CE         6.3860   20.6530   -0.2280 C.3    69  LYS69       0.1093
     27  NZ         5.4940   21.8100    0.0430 N.3    69  LYS69      -0.1314
     28  N          6.1970    9.5720   -1.6370 N.3    71  TRP71      -0.1241
     29  CA         6.9410    8.4040   -2.1070 C.3    71  TRP71       0.1605
     30  C          6.3070    7.8260   -3.3760 C.2    71  TRP71       0.2264
     31  O          5.1050    7.5550   -3.3950 O.2    71  TRP71      -0.2867
     32  CB         7.0080    7.3430   -0.9970 C.3    71  TRP71       0.0550
     33  CG         8.0620    6.3010   -1.2130 C.ar   71  TRP71       0.0003
     34  CD1        7.8690    5.0080   -1.6020 C.ar   71  TRP71       0.0946
     35  CD2        9.4750    6.4650   -1.0460 C.ar   71  TRP71       0.0152
     36  NE1        9.0760    4.3530   -1.6830 N.ar   71  TRP71      -0.2442
     37  CE2       10.0800    5.2250   -1.3510 C.ar   71  TRP71       0.0810
     38  CE3       10.2950    7.5440   -0.6720 C.ar   71  TRP71       0.0012
     39  CZ2       11.4640    5.0320   -1.2860 C.ar   71  TRP71       0.0191
     40  CZ3       11.6670    7.3510   -0.6100 C.ar   71  TRP71       0.0001
     41  CH2       12.2380    6.1100   -0.9200 C.ar   71  TRP71       0.0015
     42  N         15.1460    1.0130    1.3550 N.3    81  TRP81      -0.1227
     43  CA        15.8570    2.2980    1.2850 C.3    81  TRP81       0.1737
     44  C         16.2210    2.8040    2.6870 C.2    81  TRP81       0.2596
     45  O         17.3030    3.3650    2.8720 O.2    81  TRP81      -0.2718
     46  CB        15.0060    3.3250    0.5100 C.3    81  TRP81       0.0564
     47  CG        15.4020    4.7640    0.6570 C.ar   81  TRP81       0.0003
     48  CD1       16.3760    5.4210   -0.0330 C.ar   81  TRP81       0.0946
     49  CD2       14.7610    5.7460    1.4810 C.ar   81  TRP81       0.0152
     50  NE1       16.4090    6.7450    0.3390 N.ar   81  TRP81      -0.2442
     51  CE2       15.4260    6.9730    1.2660 C.ar   81  TRP81       0.0810
     52  CE3       13.6920    5.7070    2.3930 C.ar   81  TRP81       0.0012
     53  CZ2       15.0660    8.1480    1.9350 C.ar   81  TRP81       0.0191
     54  CZ3       13.3360    6.8720    3.0550 C.ar   81  TRP81       0.0001
     55  CH2       14.0140    8.0760    2.8190 C.ar   81  TRP81       0.0015
     56  N         15.3250    2.5800    3.6690 N.am   82  THR82      -0.1953
     57  CA        15.5160    2.9510    5.0730 C.3    82  THR82       0.1897
     58  C         16.5670    2.0270    5.7140 C.2    82  THR82       0.2313
     59  O         17.3870    2.4960    6.5060 O.2    82  THR82      -0.2863
     60  CB        14.1650    2.9440    5.8140 C.3    82  THR82       0.1794
     61  OG1       13.2260    3.7390    5.0880 O.3    82  THR82      -0.2208
     62  CG2       14.2700    3.4750    7.2340 C.3    82  THR82       0.0378
     63  N         20.0510    3.0970    4.4910 N.3    85  ASP85      -0.1225
     64  CA        20.3330    4.3880    5.1280 C.3    85  ASP85       0.1805
     65  C         20.9610    4.2350    6.5130 C.2    85  ASP85       0.2597
     66  O         21.9500    4.9070    6.7990 O.2    85  ASP85      -0.2718
     67  CB        19.0610    5.2590    5.1930 C.3    85  ASP85       0.1424
     68  CG        19.2690    6.6840    5.6880 C.2    85  ASP85       0.3668
     69  OD1       18.3370    7.2350    6.3100 O.co2  85  ASP85      -0.2456
     70  OD2       20.3560    7.2530    5.4360 O.co2  85  ASP85      -0.2456
     71  N         20.4110    3.3350    7.3530 N.am   86  VAL86      -0.1980
     72  CA        20.9240    3.0630    8.7010 C.3    86  VAL86       0.1595
     73  C         22.2200    2.2340    8.6100 C.2    86  VAL86       0.2287
     74  O         23.1680    2.5190    9.3430 O.2    86  VAL86      -0.2864
     75  CB        19.8520    2.4360    9.6430 C.3    86  VAL86       0.0276
     76  CG1       20.3710    2.3080   11.0760 C.3    86  VAL86       0.0022
     77  CG2       18.5620    3.2540    9.6290 C.3    86  VAL86       0.0022
     78  N         25.3650    4.3410    7.8230 N.3    89  VAL89      -0.1245
     79  CA        25.7560    5.1630    8.9760 C.3    89  VAL89       0.1561
     80  C         26.4340    4.2720   10.0280 C.2    89  VAL89       0.2260
     81  O         27.5000    4.6350   10.5310 O.2    89  VAL89      -0.2867
     82  CB        24.5650    5.9750    9.5640 C.3    89  VAL89       0.0252
     83  CG1       25.0070    6.8530   10.7340 C.3    89  VAL89       0.0019
     84  CG2       23.8990    6.8260    8.4910 C.3    89  VAL89       0.0019
     85  N          6.7300    7.6320    3.4930 N.3   163  CYS163     -0.1221
     86  CA         7.9570    6.9230    3.8640 C.3   163  CYS163      0.1808
     87  C          8.6980    7.6450    5.0150 C.2   163  CYS163      0.2601
     88  O          9.9300    7.6020    5.0970 O.2   163  CYS163     -0.2717
     89  CB         8.8470    6.7180    2.6370 C.3   163  CYS163      0.0970
     90  SG        10.0120    5.3320    2.7740 S.3   163  CYS163     -0.0800
     91  N          7.9290    8.2900    5.9190 N.am  164  ASP164     -0.1959
     92  CA         8.4640    9.0010    7.0840 C.3   164  ASP164      0.1840
     93  C          8.8920    7.9960    8.1520 C.2   164  ASP164      0.2622
     94  O          8.1290    7.0830    8.4780 O.2   164  ASP164     -0.2715
     95  CB         7.4360   10.0010    7.6490 C.3   164  ASP164      0.1450
     96  CG         6.9810   11.0830    6.6820 C.2   164  ASP164      0.3671
     97  OD1        7.8150   11.5500    5.8730 O.co2 164  ASP164     -0.2456
     98  OD2        5.8060   11.4970    6.7680 O.co2 164  ASP164     -0.2456
     99  N         10.1180    8.1530    8.6770 N.am  165  PHE165     -0.1974
    100  CA        10.6850    7.2490    9.6760 C.3   165  PHE165      0.1639
    101  C         10.1430    7.4720   11.0930 C.2   165  PHE165      0.2290
    102  O         10.8080    8.0800   11.9380 O.2   165  PHE165     -0.2864
    103  CB        12.2270    7.2500    9.6130 C.3   165  PHE165      0.0560
    104  CG        12.9390    6.0940   10.2860 C.ar  165  PHE165     -0.0200
    105  CD1       12.4870    4.7870   10.1280 C.ar  165  PHE165     -0.0042
    106  CD2       14.1060    6.3030   11.0100 C.ar  165  PHE165     -0.0042
    107  CE1       13.1620    3.7180   10.7270 C.ar  165  PHE165     -0.0003
    108  CE2       14.7850    5.2320   11.6020 C.ar  165  PHE165     -0.0003
    109  CZ        14.3120    3.9470   11.4500 C.ar  165  PHE165     -0.0000
    110  N          9.3870    6.1780   14.6310 N.3   167  THR167     -0.1218
    111  CA         9.9720    5.1620   15.5130 C.3   167  THR167      0.1862
    112  C          9.4500    5.2200   16.9430 C.2   167  THR167      0.2287
    113  O          9.1840    6.3060   17.4610 O.2   167  THR167     -0.2866
    114  CB        11.5080    5.2400   15.4940 C.3   167  THR167      0.1770
    115  OG1       11.9250    6.5650   15.8300 O.3   167  THR167     -0.2211
    116  CG2       12.1020    4.8250   14.1590 C.3   167  THR167      0.0375
    117  N         13.0580    1.7010   20.3680 N.3   171  TYR171     -0.1227
    118  CA        13.9740    1.6190   19.2270 C.3   171  TYR171      0.1736
    119  C         14.8150    2.8880   19.0910 C.2   171  TYR171      0.2595
    120  O         16.0030    2.7860   18.7900 O.2   171  TYR171     -0.2718
    121  CB        13.2150    1.3090   17.9190 C.3   171  TYR171      0.0548
    122  CG        14.0950    1.2400   16.6860 C.ar  171  TYR171     -0.0200
    123  CD1       14.8320    0.0970   16.3930 C.ar  171  TYR171     -0.0009
    124  CD2       14.1730    2.3120   15.8020 C.ar  171  TYR171     -0.0009
    125  CE1       15.6440    0.0290   15.2620 C.ar  171  TYR171      0.0417
    126  CE2       14.9810    2.2560   14.6660 C.ar  171  TYR171      0.0417
    127  CZ        15.7130    1.1110   14.3980 C.ar  171  TYR171      0.1957
    128  OH        16.5060    1.0500   13.2780 O.3   171  TYR171     -0.2866
    129  N         14.2020    4.0740   19.3070 N.am  172  ALA172     -0.1980
    130  CA        14.8550    5.3870   19.2160 C.3   172  ALA172      0.1597
    131  C         16.0670    5.5260   20.1470 C.2   172  ALA172      0.2287
    132  O         17.0240    6.2160   19.7960 O.2   172  ALA172     -0.2864
    133  CB        13.8510    6.4940   19.4880 C.3   172  ALA172      0.0319
    134  N         18.7010    2.3370   18.6890 N.3   175  SER175     -0.1202
    135  CA        19.3160    2.6710   17.3980 C.3   175  SER175      0.2020
    136  C         20.3000    3.8420   17.4800 C.2   175  SER175      0.2619
    137  O         21.2200    3.9130   16.6680 O.2   175  SER175     -0.2717
    138  CB        18.2520    2.9350   16.3360 C.3   175  SER175      0.2103
    139  OG        17.3970    4.0040   16.7090 O.3   175  SER175     -0.2182
    140  N         20.1140    4.7520   18.4550 N.am  176  SER176     -0.1951
    141  CA        20.9980    5.9030   18.6490 C.3   176  SER176      0.1924
    142  C         22.2340    5.5330   19.4720 C.2   176  SER176      0.2314
    143  O         23.3380    5.9500   19.1230 O.2   176  SER176     -0.2863
    144  CB        20.2480    7.0610   19.2980 C.3   176  SER176      0.2116
    145  OG        19.1920    7.5150   18.4670 O.3   176  SER176     -0.2180
    146  N         24.0850    2.0280   17.3730 N.3   179  SER179     -0.1217
    147  CA        24.5690    2.4000   16.0410 C.3   179  SER179      0.1889
    148  C         25.2230    3.7930   15.8870 C.2   179  SER179      0.2288
    149  O         25.6030    4.1500   14.7690 O.2   179  SER179     -0.2866
    150  CB        23.5070    2.1310   14.9750 C.3   179  SER179      0.2089
    151  OG        22.7280    3.2730   14.6600 O.3   179  SER179     -0.2183
    152  N         26.5950   14.4120   11.9500 N.3   386  TRP386     -0.1241
    153  CA        25.6110   13.4560   12.4610 C.3   386  TRP386      0.1605
    154  C         25.1040   13.7350   13.8740 C.2   386  TRP386      0.2264
    155  O         23.9300   13.4700   14.1380 O.2   386  TRP386     -0.2867
    156  CB        26.0740   12.0030   12.2910 C.3   386  TRP386      0.0550
    157  CG        25.8710   11.4760   10.9020 C.ar  386  TRP386      0.0003
    158  CD1       26.8320   11.2600    9.9590 C.ar  386  TRP386      0.0946
    159  CD2       24.6190   11.1450   10.2830 C.ar  386  TRP386      0.0152
    160  NE1       26.2610   10.7930    8.7980 N.ar  386  TRP386     -0.2442
    161  CE2       24.9030   10.7050    8.9720 C.ar  386  TRP386      0.0810
    162  CE3       23.2820   11.1650   10.7160 C.ar  386  TRP386      0.0012
    163  CZ2       23.8970   10.3210    8.0770 C.ar  386  TRP386      0.0191
    164  CZ3       22.2890   10.7610    9.8370 C.ar  386  TRP386      0.0001
    165  CH2       22.5990   10.3400    8.5370 C.ar  386  TRP386      0.0015
    166  N         21.8440   15.8130   14.4990 N.3   389  PHE389     -0.1227
    167  CA        20.6560   15.0240   14.1730 C.3   389  PHE389      0.1736
    168  C         20.3230   14.0710   15.3300 C.2   389  PHE389      0.2595
    169  O         19.1700   14.0220   15.7610 O.2   389  PHE389     -0.2718
    170  CB        20.8450   14.2530   12.8460 C.3   389  PHE389      0.0547
    171  CG        19.8560   13.1330   12.6020 C.ar  389  PHE389     -0.0202
    172  CD1       18.5390   13.4080   12.2510 C.ar  389  PHE389     -0.0042
    173  CD2       20.2440   11.8030   12.7200 C.ar  389  PHE389     -0.0042
    174  CE1       17.6240   12.3730   12.0350 C.ar  389  PHE389     -0.0003
    175  CE2       19.3280   10.7680   12.5020 C.ar  389  PHE389     -0.0003
    176  CZ        18.0260   11.0610   12.1600 C.ar  389  PHE389     -0.0000
    177  N         21.3320   13.3140   15.8160 N.am  390  PHE390     -0.1976
    178  CA        21.1840   12.3500   16.9080 C.3   390  PHE390      0.1639
    179  C         20.8810   12.9910   18.2620 C.2   390  PHE390      0.2290
    180  O         20.1740   12.3810   19.0650 O.2   390  PHE390     -0.2864
    181  CB        22.3930   11.4070   16.9940 C.3   390  PHE390      0.0560
    182  CG        22.3800   10.2890   15.9780 C.ar  390  PHE390     -0.0200
    183  CD1       23.0750   10.4060   14.7810 C.ar  390  PHE390     -0.0042
    184  CD2       21.6860    9.1090   16.2260 C.ar  390  PHE390     -0.0042
    185  CE1       23.0680    9.3690   13.8440 C.ar  390  PHE390     -0.0003
    186  CE2       21.6770    8.0730   15.2870 C.ar  390  PHE390     -0.0003
    187  CZ        22.3690    8.2100   14.1030 C.ar  390  PHE390     -0.0000
    188  N         17.1830   13.8580   17.9850 N.3   393  ASN393     -0.1240
    189  CA        16.4040   12.6150   17.9580 C.3   393  ASN393      0.1653
    190  C         16.0160   12.1290   19.3650 C.2   393  ASN393      0.2266
    191  O         14.9420   11.5490   19.5290 O.2   393  ASN393     -0.2867
    192  CB        17.1650   11.5250   17.2020 C.3   393  ASN393      0.1155
    193  CG        16.3040   10.3640   16.7780 C.2   393  ASN393      0.2627
    194  OD1       15.5910   10.4220   15.7720 O.2   393  ASN393     -0.2716
    195  ND2       16.3620    9.2770   17.5320 N.am  393  ASN393     -0.0877
    196  N          8.9920   18.8900   11.5080 N.3   405  LYS405     -0.1245
    197  CA         9.3340   17.9080   10.4710 C.3   405  LYS405      0.1561
    198  C         10.4510   18.4250    9.5550 C.2   405  LYS405      0.2260
    199  O         11.3290   17.6500    9.1740 O.2   405  LYS405     -0.2867
    200  CB         8.0920   17.5140    9.6530 C.3   405  LYS405      0.0271
    201  CG         8.2450   16.1870    8.9180 C.3   405  LYS405      0.0035
    202  CD         7.1160   15.9470    7.9320 C.3   405  LYS405      0.0206
    203  CE         7.3490   14.6950    7.1240 C.3   405  LYS405      0.1093
    204  NZ         6.2720   14.4740    6.1250 N.3   405  LYS405     -0.1314
    205  N         13.8400   18.0780   11.4590 N.3   408  TYR408     -0.1227
    206  CA        14.2630   16.6720   11.4920 C.3   408  TYR408      0.1736
    207  C         14.8750   16.2190   10.1580 C.2   408  TYR408      0.2595
    208  O         15.8910   15.5230   10.1670 O.2   408  TYR408     -0.2718
    209  CB        13.0860   15.7610   11.9000 C.3   408  TYR408      0.0548
    210  CG        13.4500   14.3020   12.0930 C.ar  408  TYR408     -0.0200
    211  CD1       13.2130   13.3650   11.0910 C.ar  408  TYR408     -0.0009
    212  CD2       13.9940   13.8510   13.2930 C.ar  408  TYR408     -0.0009
    213  CE1       13.5370   12.0200   11.2660 C.ar  408  TYR408      0.0417
    214  CE2       14.3180   12.5080   13.4810 C.ar  408  TYR408      0.0417
    215  CZ        14.0880   11.5960   12.4640 C.ar  408  TYR408      0.1957
    216  OH        14.4040   10.2700   12.6430 O.3   408  TYR408     -0.2866
    217  N         14.2580   16.6160    9.0240 N.am  409  ILE409     -0.1980
    218  CA        14.7130   16.2760    7.6690 C.3   409  ILE409      0.1595
    219  C         16.0290   16.9980    7.3220 C.2   409  ILE409      0.2287
    220  O         16.9510   16.3550    6.8150 O.2   409  ILE409     -0.2864
    221  CB        13.5760   16.4710    6.6120 C.3   409  ILE409      0.0276
    222  CG1       12.4320   15.4500    6.8440 C.3   409  ILE409      0.0022
    223  CG2       14.1000   16.3770    5.1650 C.3   409  ILE409      0.0022
    224  CD1       11.0440   15.8530    6.2910 C.3   409  ILE409      0.0001
    225  N         19.0130   15.5860    9.2450 N.3   412  ASN412     -0.1225
    226  CA        19.2940   14.2600    8.6940 C.3   412  ASN412      0.1785
    227  C         20.0740   14.4520    7.3890 C.2   412  ASN412      0.2597
    228  O         21.0310   13.7200    7.1370 O.2   412  ASN412     -0.2718
    229  CB        17.9840   13.4990    8.4230 C.3   412  ASN412      0.1169
    230  CG        18.0630   11.9860    8.4990 C.2   412  ASN412      0.2627
    231  OD1       17.1290   11.3240    8.9620 O.2   412  ASN412     -0.2716
    232  ND2       19.1470   11.3890    8.0160 N.am  412  ASN412     -0.0877
    233  N         19.6860   15.4740    6.5910 N.am  413  TRP413     -0.1976
    234  CA        20.3110   15.8270    5.3150 C.3   413  TRP413      0.1640
    235  C         21.7320   16.3840    5.4270 C.2   413  TRP413      0.2290
    236  O         22.4690   16.3370    4.4420 O.2   413  TRP413     -0.2864
    237  CB        19.4040   16.7420    4.4850 C.3   413  TRP413      0.0576
    238  CG        18.5590   15.9790    3.5140 C.ar  413  TRP413      0.0006
    239  CD1       17.3040   15.4920    3.7270 C.ar  413  TRP413      0.0946
    240  CD2       18.9440   15.5410    2.2050 C.ar  413  TRP413      0.0152
    241  NE1       16.8670   14.8070    2.6180 N.ar  413  TRP413     -0.2442
    242  CE2       17.8550   14.8210    1.6670 C.ar  413  TRP413      0.0810
    243  CE3       20.1000   15.7040    1.4230 C.ar  413  TRP413      0.0012
    244  CZ2       17.8880   14.2600    0.3860 C.ar  413  TRP413      0.0191
    245  CZ3       20.1310   15.1520    0.1510 C.ar  413  TRP413      0.0001
    246  CH2       19.0340   14.4430   -0.3560 C.ar  413  TRP413      0.0015
    247  N         23.8780   13.4650    5.1510 N.3   416  TYR416     -0.1241
    248  CA        23.8160   12.9340    3.7830 C.3   416  TYR416      0.1605
    249  C         24.9530   13.5390    2.9460 C.2   416  TYR416      0.2264
    250  O         25.5590   12.8340    2.1370 O.2   416  TYR416     -0.2867
    251  CB        22.4520   13.2620    3.1380 C.3   416  TYR416      0.0534
    252  CG        21.3510   12.2410    3.3510 C.ar  416  TYR416     -0.0201
    253  CD1       20.5560   11.8120    2.2930 C.ar  416  TYR416     -0.0009
    254  CD2       21.0620   11.7500    4.6230 C.ar  416  TYR416     -0.0009
    255  CE1       19.5200   10.8990    2.4870 C.ar  416  TYR416      0.0417
    256  CE2       20.0340   10.8300    4.8270 C.ar  416  TYR416      0.0417
    257  CZ        19.2640   10.4090    3.7570 C.ar  416  TYR416      0.1957
    258  OH        18.2460    9.5090    3.9580 O.3   416  TYR416     -0.2866
@<TRIPOS>BOND
     1    31    30    2
     2    30    29    1
     3     5     6    1
     4    19    20    1
     5    13    14    2
     6    13    12    1
     7    29    28    1
     8    29    32    1
     9     1     2    1
    10    36    34   ar
    11    36    37   ar
    12     6     7    1
    13     6     9    1
    14    34    33   ar
    15    11     7   am
    16    11    12    1
    17    37    39   ar
    18    37    35   ar
    19    39    41   ar
    20    33    35   ar
    21    33    32    1
    22     7     8    2
    23    20    23    1
    24    20    21    1
    25    12    15    1
    26     3     2    1
    27     3     4    2
    28    35    38   ar
    29    41    40   ar
    30    23    24    1
    31    21    22    2
    32    24    25    1
    33    38    40   ar
    34    15    17    1
    35    15    16    1
    36     9    10    1
    37    25    26    1
    38   246   245   ar
    39   246   244   ar
    40    26    27    1
    41    48    50   ar
    42    48    47   ar
    43   245   243   ar
    44    18    16    1
    45    50    51   ar
    46   244   242   ar
    47    46    47    1
    48    46    43    1
    49    47    49   ar
    50    51    49   ar
    51    51    53   ar
    52    43    42    1
    53    43    44    1
    54   243   240   ar
    55    49    52   ar
    56   242   240   ar
    57   242   241   ar
    58    53    55   ar
    59   250   249    2
    60   240   238   ar
    61   253   255   ar
    62   253   252   ar
    63    52    54   ar
    64   255   257   ar
    65   241   239   ar
    66    89    90    1
    67    89    86    1
    68    44    45    2
    69    44    56   am
    70    55    54   ar
    71   249   248    1
    72   251   252    1
    73   251   248    1
    74   252   254   ar
    75    85    86    1
    76   238   239   ar
    77   238   237    1
    78    56    57    1
    79   257   258    1
    80   257   256   ar
    81   248   247    1
    82    86    87    1
    83   236   235    2
    84   237   234    1
    85    63    64    1
    86   254   256   ar
    87    87    88    2
    88    87    91   am
    89    57    58    1
    90    57    60    1
    91    61    60    1
    92    64    67    1
    93    64    65    1
    94   223   221    1
    95    67    68    1
    96   234   235    1
    97   234   233    1
    98    70    68   ar
    99    68    69   ar
   100    58    59    2
   101    60    62    1
   102    97    96   ar
   103    91    92    1
   104   204   203    1
   105   224   222    1
   106    65    66    2
   107    65    71   am
   108   233   227   am
   109   221   222    1
   110   221   218    1
   111    96    98   ar
   112    96    95    1
   113   220   219    2
   114    92    95    1
   115    92    93    1
   116   203   202    1
   117   228   227    2
   118   219   218    1
   119    71    72    1
   120   227   226    1
   121   218   217    1
   122    78    79    1
   123   202   201    1
   124   232   230   am
   125   163   165   ar
   126   163   161   ar
   127    93    94    2
   128    93    99   am
   129   229   230    1
   130   229   226    1
   131    84    82    1
   132   230   231    2
   133   165   164   ar
   134    73    72    1
   135    73    74    2
   136    99   100    1
   137   226   225    1
   138    72    75    1
   139   160   161   ar
   140   160   158   ar
   141   201   200    1
   142   161   159   ar
   143    79    82    1
   144    79    80    1
   145   217   207   am
   146   199   198    2
   147   198   197    1
   148    82    83    1
   149   103   100    1
   150   103   104    1
   151    77    75    1
   152    75    76    1
   153   200   197    1
   154   100   101    1
   155   164   162   ar
   156   158   157   ar
   157    80    81    2
   158   105   104   ar
   159   105   107   ar
   160   207   208    2
   161   207   206    1
   162   159   162   ar
   163   159   157   ar
   164   104   106   ar
   165   197   196    1
   166   107   109   ar
   167   157   156    1
   168   106   108   ar
   169   211   213   ar
   170   211   210   ar
   171   101   102    2
   172   213   215   ar
   173   109   108   ar
   174   205   206    1
   175   206   209    1
   176   209   210    1
   177   152   153    1
   178   174   176   ar
   179   174   172   ar
   180   210   212   ar
   181   176   175   ar
   182   172   171   ar
   183   156   153    1
   184   153   154    1
   185   215   216    1
   186   215   214   ar
   187   175   173   ar
   188   171   173   ar
   189   171   170    1
   190   170   167    1
   191   128   127    1
   192   212   214   ar
   193   185   187   ar
   194   185   183   ar
   195   154   155    2
   196   187   186   ar
   197   116   114    1
   198   167   166    1
   199   167   168    1
   200   127   126   ar
   201   127   125   ar
   202   110   111    1
   203   151   150    1
   204   126   124   ar
   205   149   148    2
   206   183   182   ar
   207   150   147    1
   208   125   123   ar
   209   186   184   ar
   210   168   169    2
   211   168   177   am
   212   114   111    1
   213   114   115    1
   214   111   112    1
   215   194   193    2
   216   124   122   ar
   217   177   178    1
   218   148   147    1
   219   182   184   ar
   220   182   181    1
   221   147   146    1
   222   138   139    1
   223   138   135    1
   224   123   122   ar
   225   137   136    2
   226   122   121    1
   227   193   192    1
   228   193   195   am
   229   178   181    1
   230   178   179    1
   231   112   113    2
   232   192   189    1
   233   135   136    1
   234   135   134    1
   235   136   140   am
   236   121   118    1
   237   189   188    1
   238   189   190    1
   239   179   180    2
   240   140   141    1
   241   145   144    1
   242   141   144    1
   243   141   142    1
   244   120   119    2
   245   119   118    1
   246   119   129   am
   247   143   142    2
   248   130   129    1
   249   130   133    1
   250   130   131    1
   251   118   117    1
   252   190   191    2
   253   132   131    2
