@<TRIPOS>MOLECULE
tmp/3pe1A00.pdb
 151 146 0 0 0
SMALL
GASTEIGER

@<TRIPOS>ATOM
      1  N         28.0410  -25.6910   18.8130 N.3    43  LEU43      -0.1231
      2  CA        26.6310  -25.3770   18.6140 C.3    43  LEU43       0.1693
      3  C         25.7930  -25.7600   19.8270 C.2    43  LEU43       0.2593
      4  O         24.8420  -25.0640   20.1760 O.2    43  LEU43      -0.2718
      5  CB        26.0940  -26.0700   17.3570 C.3    43  LEU43       0.0284
      6  CG        26.7360  -25.6190   16.0450 C.3    43  LEU43       0.0019
      7  CD1       26.1340  -26.3650   14.8640 C.3    43  LEU43       0.0001
      8  CD2       26.5800  -24.1180   15.8620 C.3    43  LEU43       0.0001
      9  N         26.1420  -26.8720   20.4650 N.am   44  GLY44      -0.1942
     10  CA        25.4790  -27.2770   21.6900 C.3    44  GLY44       0.2014
     11  C         25.8950  -28.6690   22.1060 C.2    44  GLY44       0.2639
     12  O         26.7990  -29.2560   21.5160 O.2    44  GLY44      -0.2714
     13  N         25.2550  -29.2010   23.1390 N.am   45  ARG45      -0.1963
     14  CA        25.4320  -30.6130   23.4390 C.3    45  ARG45       0.1729
     15  C         24.1970  -31.2480   24.0560 C.2    45  ARG45       0.2616
     16  O         23.3640  -30.5690   24.6570 O.2    45  ARG45      -0.2715
     17  CB        26.6800  -30.8610   24.2930 C.3    45  ARG45       0.0348
     18  CG        26.7010  -30.1650   25.6280 C.3    45  ARG45       0.0492
     19  CD        27.9300  -30.5870   26.4200 C.3    45  ARG45       0.2205
     20  NE        27.9630  -29.9790   27.7430 N.pl3  45  ARG45      -0.0865
     21  CZ        29.0500  -29.4610   28.3070 C.cat  45  ARG45       0.5346
     22  NH1       30.2140  -29.4690   27.6690 N.pl3  45  ARG45       0.1354
     23  NH2       28.9710  -28.9320   29.5160 N.pl3  45  ARG45       0.1354
     24  N         24.0800  -32.5570   23.8720 N.am   46  GLY46      -0.1955
     25  CA        22.9990  -33.3240   24.4560 C.3    46  GLY46       0.1869
     26  C         23.5650  -34.2390   25.5190 C.2    46  GLY46       0.2309
     27  O         24.7280  -34.1120   25.9010 O.2    46  GLY46      -0.2863
     28  N         27.9640  -31.0070   19.5820 N.3    51  VAL51      -0.1245
     29  CA        27.8830  -30.7020   18.1630 C.3    51  VAL51       0.1561
     30  C         28.5780  -29.3830   17.8460 C.2    51  VAL51       0.2260
     31  O         28.4150  -28.3890   18.5570 O.2    51  VAL51      -0.2867
     32  CB        26.4130  -30.6390   17.6820 C.3    51  VAL51       0.0252
     33  CG1       26.3510  -30.3810   16.1890 C.3    51  VAL51       0.0019
     34  CG2       25.6980  -31.9280   18.0260 C.3    51  VAL51       0.0019
     35  N         28.9500  -30.1380    9.8020 N.3    64  VAL64      -0.1245
     36  CA        28.6640  -30.2100   11.2270 C.3    64  VAL64       0.1561
     37  C         29.2940  -31.4770   11.7870 C.2    64  VAL64       0.2260
     38  O         29.2420  -32.5360   11.1630 O.2    64  VAL64      -0.2867
     39  CB        27.1440  -30.1970   11.4860 C.3    64  VAL64       0.0252
     40  CG1       26.8330  -30.6490   12.9070 C.3    64  VAL64       0.0019
     41  CG2       26.5930  -28.7990   11.2270 C.3    64  VAL64       0.0019
     42  N         29.4990  -34.0680   15.0610 N.3    66  LYS66      -0.1245
     43  CA        28.8610  -34.4990   16.2860 C.3    66  LYS66       0.1561
     44  C         29.7760  -35.4980   16.9620 C.2    66  LYS66       0.2260
     45  O         29.9620  -36.6130   16.4850 O.2    66  LYS66      -0.2867
     46  CB        27.5000  -35.1250   15.9520 C.3    66  LYS66       0.0271
     47  CG        26.7770  -35.7750   17.0880 C.3    66  LYS66       0.0035
     48  CD        25.4690  -36.3020   16.4810 C.3    66  LYS66       0.0206
     49  CE        24.6010  -37.0480   17.4450 C.3    66  LYS66       0.1093
     50  NZ        23.3160  -37.3980   16.7530 N.3    66  LYS66      -0.1314
     51  N         19.0170  -36.0600    6.7320 N.3    93  ILE93      -0.1245
     52  CA        20.3420  -35.4540    6.8800 C.3    93  ILE93       0.1561
     53  C         21.3900  -36.4280    6.3380 C.2    93  ILE93       0.2260
     54  O         21.3080  -37.6370    6.5640 O.2    93  ILE93      -0.2867
     55  CB        20.6440  -35.0690    8.3610 C.3    93  ILE93       0.0252
     56  CG1       21.8130  -34.0900    8.4490 C.3    93  ILE93       0.0019
     57  CG2       20.8970  -36.2950    9.2260 C.3    93  ILE93       0.0019
     58  CD1       21.4840  -32.7220    7.9110 C.3    93  ILE93       0.0001
     59  N         28.2870  -34.3440    9.3660 N.3   111  PHE111     -0.1227
     60  CA        27.0240  -34.1950    8.6400 C.3   111  PHE111      0.1736
     61  C         27.0590  -33.0200    7.6830 C.2   111  PHE111      0.2595
     62  O         27.8010  -32.0630    7.8890 O.2   111  PHE111     -0.2718
     63  CB        25.8790  -33.9250    9.6170 C.3   111  PHE111      0.0547
     64  CG        25.5920  -35.0500   10.5460 C.ar  111  PHE111     -0.0202
     65  CD1       24.7660  -36.0870   10.1530 C.ar  111  PHE111     -0.0042
     66  CD2       26.1200  -35.0610   11.8260 C.ar  111  PHE111     -0.0042
     67  CE1       24.4790  -37.1240   11.0170 C.ar  111  PHE111     -0.0003
     68  CE2       25.8460  -36.0920   12.6850 C.ar  111  PHE111     -0.0003
     69  CZ        25.0180  -37.1320   12.2840 C.ar  111  PHE111     -0.0000
     70  N         26.2150  -33.0760    6.6580 N.am  112  GLU112     -0.1965
     71  CA        25.9660  -31.9140    5.8210 C.3   112  GLU112      0.1733
     72  C         25.5110  -30.7430    6.7040 C.2   112  GLU112      0.2616
     73  O         24.8590  -30.9310    7.7410 O.2   112  GLU112     -0.2715
     74  CB        24.8810  -32.2340    4.7850 C.3   112  GLU112      0.0429
     75  CG        23.5120  -31.7060    5.1640 C.3   112  GLU112      0.1163
     76  CD        22.3940  -32.1560    4.2260 C.2   112  GLU112      0.3649
     77  OE1       21.8820  -31.3130    3.4540 O.co2 112  GLU112     -0.2457
     78  OE2       22.0020  -33.3420    4.2830 O.co2 112  GLU112     -0.2457
     79  N         25.8660  -29.5290    6.3000 N.am  113  HIS113     -0.1959
     80  CA        25.4520  -28.3440    7.0340 C.3   113  HIS113      0.1787
     81  C         24.1610  -27.7930    6.4330 C.2   113  HIS113      0.2620
     82  O         24.0230  -27.6940    5.2150 O.2   113  HIS113     -0.2715
     83  CB        26.5560  -27.2800    7.0080 C.3   113  HIS113      0.0785
     84  CG        26.1820  -26.0030    7.6950 C.ar  113  HIS113      0.0821
     85  ND1       25.7210  -24.8970    7.0120 N.ar  113  HIS113     -0.2267
     86  CD2       26.1920  -25.6600    9.0040 C.ar  113  HIS113      0.1154
     87  CE1       25.4660  -23.9280    7.8730 C.ar  113  HIS113      0.1986
     88  NE2       25.7440  -24.3640    9.0880 N.ar  113  HIS113     -0.2212
     89  N         23.2100  -27.4760    7.3000 N.am  114  VAL114     -0.1977
     90  CA        21.9800  -26.8130    6.8920 C.3   114  VAL114      0.1596
     91  C         21.9900  -25.4190    7.4910 C.2   114  VAL114      0.2287
     92  O         22.2330  -25.2510    8.6830 O.2   114  VAL114     -0.2864
     93  CB        20.7380  -27.5600    7.4100 C.3   114  VAL114      0.0276
     94  CG1       19.4550  -26.8680    6.9300 C.3   114  VAL114      0.0022
     95  CG2       20.7660  -28.9930    6.9450 C.3   114  VAL114      0.0022
     96  N         20.0280  -23.2690    8.8840 N.3   116  ASN116     -0.1240
     97  CA        18.6750  -23.2920    9.4290 C.3   116  ASN116      0.1653
     98  C         18.2850  -22.0410   10.2120 C.2   116  ASN116      0.2266
     99  O         19.1430  -21.2890   10.6750 O.2   116  ASN116     -0.2867
    100  CB        18.5040  -24.5190   10.3260 C.3   116  ASN116      0.1155
    101  CG        19.0800  -24.3090   11.7080 C.2   116  ASN116      0.2627
    102  OD1       20.2940  -24.1980   11.8750 O.2   116  ASN116     -0.2716
    103  ND2       18.2080  -24.2620   12.7130 N.am  116  ASN116     -0.0877
    104  N         13.2470  -29.1500   17.1640 N.3   158  HIS158     -0.1241
    105  CA        14.7020  -29.0260   17.0740 C.3   158  HIS158      0.1621
    106  C         15.2820  -29.9620   16.0230 C.2   158  HIS158      0.2264
    107  O         16.2710  -29.6300   15.3660 O.2   158  HIS158     -0.2867
    108  CB        15.3980  -29.2790   18.4010 C.3   158  HIS158      0.0745
    109  CG        16.8920  -29.2930   18.2790 C.ar  158  HIS158      0.0817
    110  ND1       17.6580  -28.1520   18.3910 N.ar  158  HIS158     -0.2268
    111  CD2       17.7530  -30.2970   17.9890 C.ar  158  HIS158      0.1154
    112  CE1       18.9300  -28.4570   18.2050 C.ar  158  HIS158      0.1986
    113  NE2       19.0170  -29.7520   17.9590 N.ar  158  HIS158     -0.2212
    114  N         15.4630  -29.4970   10.8440 N.3   161  MET161     -0.1245
    115  CA        16.2260  -28.3220   10.4510 C.3   161  MET161      0.1570
    116  C         15.7310  -27.7330    9.1390 C.2   161  MET161      0.2261
    117  O         15.7180  -28.3990    8.1030 O.2   161  MET161     -0.2867
    118  CB        17.7170  -28.6560   10.3600 C.3   161  MET161      0.0387
    119  CG        18.3460  -28.9770   11.7100 C.3   161  MET161      0.0595
    120  SD        18.5410  -27.5170   12.7560 S.3   161  MET161     -0.1393
    121  CE        19.1900  -28.2420   14.2630 C.3   161  MET161      0.0692
    122  N         16.9980  -34.5270   11.3260 N.3   172  ILE172     -0.1231
    123  CA        18.2800  -34.8270   11.9580 C.3   172  ILE172      0.1692
    124  C         18.1710  -35.6580   13.2410 C.2   172  ILE172      0.2592
    125  O         17.0690  -36.0140   13.6940 O.2   172  ILE172     -0.2718
    126  CB        19.0430  -33.5290   12.2920 C.3   172  ILE172      0.0266
    127  CG1       18.2800  -32.6990   13.3390 C.3   172  ILE172      0.0019
    128  CG2       19.3000  -32.7250   11.0150 C.3   172  ILE172      0.0020
    129  CD1       19.1920  -31.7630   14.1380 C.3   172  ILE172      0.0001
    130  N         19.3370  -35.9260   13.8290 N.am  173  ASP173     -0.1960
    131  CA        19.5160  -36.6660   15.0870 C.3   173  ASP173      0.1840
    132  C         18.7910  -37.9940   15.1580 C.2   173  ASP173      0.2622
    133  O         17.7530  -38.1440   15.8160 O.2   173  ASP173     -0.2715
    134  CB        19.2490  -35.8250   16.3310 C.3   173  ASP173      0.1450
    135  CG        19.9490  -36.3880   17.5630 C.2   173  ASP173      0.3671
    136  OD1       20.1050  -35.6510   18.5570 O.co2 173  ASP173     -0.2456
    137  OD2       20.3620  -37.5700   17.5240 O.co2 173  ASP173     -0.2456
    138  N         19.3880  -38.9610   14.4830 N.am  174  TRP174     -0.1974
    139  CA        18.8900  -40.3230   14.4330 C.3   174  TRP174      0.1640
    140  C         19.4560  -41.1520   15.5790 C.2   174  TRP174      0.2290
    141  O         19.4700  -42.3760   15.5190 O.2   174  TRP174     -0.2864
    142  CB        19.2490  -40.9190   13.0660 C.3   174  TRP174      0.0576
    143  CG        18.5510  -40.1480   11.9910 C.ar  174  TRP174      0.0006
    144  CD1       18.9470  -38.9550   11.4400 C.ar  174  TRP174      0.0946
    145  CD2       17.3030  -40.4810   11.3760 C.ar  174  TRP174      0.0152
    146  NE1       18.0210  -38.5340   10.5150 N.ar  174  TRP174     -0.2442
    147  CE2       17.0070  -39.4560   10.4530 C.ar  174  TRP174      0.0810
    148  CE3       16.4170  -41.5510   11.5060 C.ar  174  TRP174      0.0012
    149  CZ2       15.8510  -39.4610    9.6780 C.ar  174  TRP174      0.0191
    150  CZ3       15.2680  -41.5510   10.7320 C.ar  174  TRP174      0.0001
    151  CH2       15.0050  -40.5230    9.8230 C.ar  174  TRP174      0.0015
@<TRIPOS>BOND
     1    77    76   ar
     2    76    78   ar
     3    76    75    1
     4    74    75    1
     5    74    71    1
     6    82    81    2
     7    71    70    1
     8    71    72    1
     9    79    72   am
    10    79    80    1
    11    53    54    2
    12    53    52    1
    13    81    80    1
    14    81    89   am
    15    70    61   am
    16    72    73    2
    17    51    52    1
    18    52    55    1
    19    90    89    1
    20    90    93    1
    21    90    91    1
    22    94    93    1
    23    95    93    1
    24    83    80    1
    25    83    84    1
    26    85    84   ar
    27    85    87   ar
    28    91    92    2
    29    61    62    2
    30    61    60    1
    31    84    86   ar
    32    87    88   ar
    33    58    56    1
    34   117   116    2
    35    55    56    1
    36    55    57    1
    37    60    59    1
    38    60    63    1
    39    96    97    1
    40    86    88   ar
    41   116   115    1
    42    97    98    1
    43    97   100    1
    44    63    64    1
    45   149   151   ar
    46   149   147   ar
    47    35    36    1
    48   151   150   ar
    49    65    64   ar
    50    65    67   ar
    51    98    99    2
    52   100   101    1
    53   118   115    1
    54   118   119    1
    55   115   114    1
    56   147   146   ar
    57   147   145   ar
    58   146   144   ar
    59    64    66   ar
    60   150   148   ar
    61   128   126    1
    62    67    69   ar
    63    38    37    2
    64    36    39    1
    65    36    37    1
    66    41    39    1
    67   122   123    1
    68   145   148   ar
    69   145   143   ar
    70   144   143   ar
    71    39    40    1
    72   101   102    2
    73   101   103   am
    74   119   120    1
    75    66    68   ar
    76   123   126    1
    77   123   124    1
    78   143   142    1
    79    69    68   ar
    80   126   127    1
    81   120   121    1
    82   142   139    1
    83   124   125    2
    84   124   130   am
    85   127   129    1
    86   130   131    1
    87   139   138    1
    88   139   140    1
    89   138   132   am
    90     7     6    1
    91    42    43    1
    92   131   132    1
    93   131   134    1
    94   132   133    2
    95   107   106    2
    96   141   140    2
    97     8     6    1
    98    46    43    1
    99    46    47    1
   100   106   105    1
   101     6     5    1
   102    33    32    1
   103    43    44    1
   104   134   135    1
   105    48    47    1
   106    48    49    1
   107    45    44    2
   108    50    49    1
   109   105   104    1
   110   105   108    1
   111     5     2    1
   112   137   135   ar
   113   135   136   ar
   114    32    34    1
   115    32    29    1
   116    30    29    1
   117    30    31    2
   118   113   111   ar
   119   113   112   ar
   120   111   109   ar
   121    29    28    1
   122   112   110   ar
   123   109   110   ar
   124   109   108    1
   125     2     1    1
   126     2     3    1
   127     3     4    2
   128     3     9   am
   129     9    10    1
   130    12    11    2
   131    10    11    1
   132    11    13   am
   133    13    14    1
   134    14    15    1
   135    14    17    1
   136    24    15   am
   137    24    25    1
   138    15    16    2
   139    17    18    1
   140    25    26    1
   141    26    27    2
   142    18    19    1
   143    19    20    1
   144    22    21    1
   145    20    21    2
   146    21    23    1
