@<TRIPOS>MOLECULE
tmp/3pe2A00.pdb
 166 159 0 0 0
SMALL
GASTEIGER

@<TRIPOS>ATOM
      1  N         28.0930  -25.5300   18.8930 N.3    43  LEU43      -0.1231
      2  CA        26.7030  -25.1450   18.6450 C.3    43  LEU43       0.1693
      3  C         25.8260  -25.5020   19.8470 C.2    43  LEU43       0.2593
      4  O         24.8090  -24.8560   20.1080 O.2    43  LEU43      -0.2718
      5  CB        26.1630  -25.8040   17.3730 C.3    43  LEU43       0.0284
      6  CG        26.7940  -25.3530   16.0560 C.3    43  LEU43       0.0019
      7  CD1       26.2400  -26.1510   14.9000 C.3    43  LEU43       0.0001
      8  CD2       26.5850  -23.8720   15.8250 C.3    43  LEU43       0.0001
      9  N         26.2270  -26.5330   20.5790 N.am   44  GLY44      -0.1942
     10  CA        25.4830  -26.9690   21.7430 C.3    44  GLY44       0.2014
     11  C         25.8800  -28.3700   22.1410 C.2    44  GLY44       0.2639
     12  O         26.7180  -28.9930   21.4920 O.2    44  GLY44      -0.2714
     13  N         25.3150  -28.8620   23.2340 N.am   45  ARG45      -0.1963
     14  CA        25.4550  -30.2750   23.5350 C.3    45  ARG45       0.1729
     15  C         24.1940  -30.8600   24.1490 C.2    45  ARG45       0.2616
     16  O         23.4890  -30.1960   24.9080 O.2    45  ARG45      -0.2715
     17  CB        26.6960  -30.5610   24.3880 C.3    45  ARG45       0.0348
     18  CG        26.6870  -30.0180   25.7870 C.3    45  ARG45       0.0492
     19  CD        27.9810  -30.4300   26.4780 C.3    45  ARG45       0.2205
     20  NE        28.0800  -29.8920   27.8230 N.pl3  45  ARG45      -0.0865
     21  CZ        29.1760  -29.3490   28.3450 C.cat  45  ARG45       0.5346
     22  NH1       30.3020  -29.2660   27.6500 N.pl3  45  ARG45       0.1354
     23  NH2       29.1400  -28.8900   29.5820 N.pl3  45  ARG45       0.1354
     24  N         23.9060  -32.1010   23.7700 N.am   46  GLY46      -0.1955
     25  CA        22.7910  -32.8450   24.3150 C.3    46  GLY46       0.1869
     26  C         23.3220  -33.8140   25.3450 C.2    46  GLY46       0.2309
     27  O         24.4780  -33.7140   25.7600 O.2    46  GLY46      -0.2863
     28  N         26.1110  -36.0160   23.1950 N.3    49  SER49      -0.1217
     29  CA        27.1300  -35.5130   22.2860 C.3    49  SER49       0.1889
     30  C         27.2810  -34.0020   22.3510 C.2    49  SER49       0.2288
     31  O         26.4760  -33.3090   22.9780 O.2    49  SER49      -0.2866
     32  CB        26.7640  -35.8950   20.8590 C.3    49  SER49       0.2089
     33  OG        25.5910  -35.2000   20.4620 O.3    49  SER49      -0.2183
     34  N         27.9370  -30.7830   19.5020 N.3    51  VAL51      -0.1245
     35  CA        27.8290  -30.5340   18.0760 C.3    51  VAL51       0.1561
     36  C         28.5270  -29.2250   17.7660 C.2    51  VAL51       0.2260
     37  O         28.2860  -28.2200   18.4370 O.2    51  VAL51      -0.2867
     38  CB        26.3450  -30.4640   17.6410 C.3    51  VAL51       0.0252
     39  CG1       26.2290  -30.1270   16.1660 C.3    51  VAL51       0.0019
     40  CG2       25.6450  -31.7770   17.9560 C.3    51  VAL51       0.0019
     41  N         28.9620  -29.9340    9.8710 N.3    64  VAL64      -0.1245
     42  CA        28.6850  -29.9570   11.2910 C.3    64  VAL64       0.1561
     43  C         29.3040  -31.2300   11.8390 C.2    64  VAL64       0.2260
     44  O         29.2740  -32.2650   11.1800 O.2    64  VAL64      -0.2867
     45  CB        27.1620  -29.9330   11.5460 C.3    64  VAL64       0.0252
     46  CG1       26.8030  -30.7410   12.7750 C.3    64  VAL64       0.0019
     47  CG2       26.6720  -28.4950   11.6700 C.3    64  VAL64       0.0019
     48  N         29.4630  -33.9110   15.0650 N.3    66  LYS66      -0.1245
     49  CA        28.8100  -34.4020   16.2660 C.3    66  LYS66       0.1561
     50  C         29.7010  -35.4060   16.9970 C.2    66  LYS66       0.2260
     51  O         29.7990  -36.5680   16.6000 O.2    66  LYS66      -0.2867
     52  CB        27.4920  -35.0670   15.8720 C.3    66  LYS66       0.0271
     53  CG        26.6760  -35.6070   17.0100 C.3    66  LYS66       0.0035
     54  CD        25.3860  -36.1780   16.3910 C.3    66  LYS66       0.0206
     55  CE        24.4820  -36.7950   17.4130 C.3    66  LYS66       0.1093
     56  NZ        23.1840  -37.1770   16.7730 N.3    66  LYS66      -0.1314
     57  N         22.9730  -45.6750   15.4800 N.3    79  GLU79      -0.1245
     58  CA        22.8130  -44.4020   14.7940 C.3    79  GLU79       0.1567
     59  C         23.5930  -44.3680   13.4750 C.2    79  GLU79       0.2260
     60  O         23.0770  -43.9100   12.4700 O.2    79  GLU79      -0.2867
     61  CB        23.1750  -43.2140   15.6870 C.3    79  GLU79       0.0388
     62  CG        23.1880  -41.8930   14.9240 C.3    79  GLU79       0.1160
     63  CD        23.4160  -40.6630   15.7970 C.2    79  GLU79       0.3649
     64  OE1       23.6000  -40.7920   17.0270 O.co2  79  GLU79      -0.2457
     65  OE2       23.4120  -39.5530   15.2440 O.co2  79  GLU79      -0.2457
     66  N         18.9170  -35.9340    6.7960 N.3    93  ILE93      -0.1245
     67  CA        20.2200  -35.2840    6.8870 C.3    93  ILE93       0.1561
     68  C         21.2890  -36.2470    6.3600 C.2    93  ILE93       0.2260
     69  O         21.2070  -37.4650    6.5910 O.2    93  ILE93      -0.2867
     70  CB        20.5310  -34.8730    8.3420 C.3    93  ILE93       0.0252
     71  CG1       21.7050  -33.8880    8.3830 C.3    93  ILE93       0.0019
     72  CG2       20.7860  -36.1010    9.2020 C.3    93  ILE93       0.0019
     73  CD1       21.2890  -32.4990    8.0290 C.3    93  ILE93       0.0001
     74  N         28.1660  -34.2020    9.4090 N.3   111  PHE111     -0.1227
     75  CA        26.8920  -34.0420    8.6910 C.3   111  PHE111      0.1736
     76  C         26.9170  -32.8400    7.7670 C.2   111  PHE111      0.2595
     77  O         27.6860  -31.8870    7.9750 O.2   111  PHE111     -0.2718
     78  CB        25.7610  -33.8000    9.6760 C.3   111  PHE111      0.0547
     79  CG        25.4950  -34.9410   10.5880 C.ar  111  PHE111     -0.0202
     80  CD1       24.6580  -35.9770   10.1900 C.ar  111  PHE111     -0.0042
     81  CD2       26.0330  -34.9640   11.8610 C.ar  111  PHE111     -0.0042
     82  CE1       24.3860  -37.0210   11.0460 C.ar  111  PHE111     -0.0003
     83  CE2       25.7710  -36.0130   12.7150 C.ar  111  PHE111     -0.0003
     84  CZ        24.9480  -37.0400   12.3120 C.ar  111  PHE111     -0.0000
     85  N         26.0620  -32.8780    6.7550 N.am  112  GLU112     -0.1965
     86  CA        25.8590  -31.7220    5.9080 C.3   112  GLU112      0.1733
     87  C         25.4210  -30.5530    6.7900 C.2   112  GLU112      0.2616
     88  O         24.8010  -30.7390    7.8470 O.2   112  GLU112     -0.2715
     89  CB        24.7890  -32.0220    4.8420 C.3   112  GLU112      0.0429
     90  CG        23.3900  -31.9780    5.3770 C.3   112  GLU112      0.1163
     91  CD        22.2930  -32.2110    4.3190 C.2   112  GLU112      0.3649
     92  OE1       21.9230  -31.2690    3.5840 O.co2 112  GLU112     -0.2457
     93  OE2       21.7730  -33.3410    4.2520 O.co2 112  GLU112     -0.2457
     94  N         25.7500  -29.3410    6.3750 N.am  113  HIS113     -0.1959
     95  CA        25.3680  -28.1810    7.1580 C.3   113  HIS113      0.1787
     96  C         24.0760  -27.6350    6.5870 C.2   113  HIS113      0.2620
     97  O         23.9070  -27.5860    5.3750 O.2   113  HIS113     -0.2715
     98  CB        26.4730  -27.1210    7.1240 C.3   113  HIS113      0.0785
     99  CG        26.1070  -25.8330    7.8000 C.ar  113  HIS113      0.0821
    100  ND1       25.5360  -24.7740    7.1250 N.ar  113  HIS113     -0.2267
    101  CD2       26.2420  -25.4290    9.0860 C.ar  113  HIS113      0.1154
    102  CE1       25.3250  -23.7790    7.9670 C.ar  113  HIS113      0.1986
    103  NE2       25.7490  -24.1480    9.1630 N.ar  113  HIS113     -0.2212
    104  N         23.1570  -27.2520    7.4600 N.am  114  VAL114     -0.1977
    105  CA        21.9180  -26.6020    7.0440 C.3   114  VAL114      0.1596
    106  C         21.8820  -25.2120    7.6750 C.2   114  VAL114      0.2287
    107  O         21.9960  -25.0720    8.8810 O.2   114  VAL114     -0.2864
    108  CB        20.6440  -27.3740    7.5060 C.3   114  VAL114      0.0276
    109  CG1       19.3820  -26.6890    6.9720 C.3   114  VAL114      0.0022
    110  CG2       20.6660  -28.8210    7.0430 C.3   114  VAL114      0.0022
    111  N         19.9120  -23.0010    9.0450 N.3   116  ASN116     -0.1240
    112  CA        18.5310  -22.9510    9.5320 C.3   116  ASN116      0.1653
    113  C         18.1580  -21.7130   10.3450 C.2   116  ASN116      0.2266
    114  O         19.0210  -21.0090   10.8730 O.2   116  ASN116     -0.2867
    115  CB        18.2080  -24.2010   10.3570 C.3   116  ASN116      0.1155
    116  CG        18.7820  -24.1380   11.7580 C.2   116  ASN116      0.2627
    117  OD1       19.9760  -23.8820   11.9470 O.2   116  ASN116     -0.2716
    118  ND2       17.9260  -24.3660   12.7580 N.am  116  ASN116     -0.0877
    119  N         13.0830  -29.1230   17.1530 N.3   158  HIS158     -0.1241
    120  CA        14.5420  -28.9980   17.0940 C.3   158  HIS158      0.1621
    121  C         15.1690  -29.9590   16.0890 C.2   158  HIS158      0.2264
    122  O         16.1950  -29.6520   15.4730 O.2   158  HIS158     -0.2867
    123  CB        15.1610  -29.2320   18.4690 C.3   158  HIS158      0.0745
    124  CG        16.6590  -29.2420   18.4560 C.ar  158  HIS158      0.0817
    125  ND1       17.4160  -28.1840   18.9140 N.ar  158  HIS158     -0.2268
    126  CD2       17.5380  -30.1750   18.0230 C.ar  158  HIS158      0.1154
    127  CE1       18.6970  -28.4710   18.7730 C.ar  158  HIS158      0.1986
    128  NE2       18.7990  -29.6720   18.2350 N.ar  158  HIS158     -0.2212
    129  N         15.2240  -29.3770   11.0360 N.3   161  MET161     -0.1245
    130  CA        15.9670  -28.1780   10.6530 C.3   161  MET161      0.1570
    131  C         15.4850  -27.6110    9.3210 C.2   161  MET161      0.2261
    132  O         15.4410  -28.3190    8.3160 O.2   161  MET161     -0.2867
    133  CB        17.4720  -28.4720   10.5800 C.3   161  MET161      0.0387
    134  CG        18.1190  -28.7950   11.9290 C.3   161  MET161      0.0595
    135  SD        18.7230  -27.3270   12.7810 S.3   161  MET161     -0.1393
    136  CE        18.6980  -27.8490   14.4950 C.3   161  MET161      0.0692
    137  N         16.9200  -34.4730   11.4530 N.3   172  ILE172     -0.1231
    138  CA        18.2240  -34.7640   12.0540 C.3   172  ILE172      0.1692
    139  C         18.1130  -35.5950   13.3330 C.2   172  ILE172      0.2592
    140  O         17.0100  -35.9560   13.7700 O.2   172  ILE172     -0.2718
    141  CB        18.9910  -33.4580   12.4020 C.3   172  ILE172      0.0266
    142  CG1       18.1780  -32.6080   13.3790 C.3   172  ILE172      0.0019
    143  CG2       19.3170  -32.6530   11.1390 C.3   172  ILE172      0.0020
    144  CD1       18.9830  -31.5020   14.0510 C.3   172  ILE172      0.0001
    145  N         19.2750  -35.8810   13.9250 N.am  173  ASP173     -0.1960
    146  CA        19.4130  -36.6400   15.1810 C.3   173  ASP173      0.1840
    147  C         18.6670  -37.9630   15.2400 C.2   173  ASP173      0.2622
    148  O         17.6240  -38.0860   15.8910 O.2   173  ASP173     -0.2715
    149  CB        19.0850  -35.8000   16.4190 C.3   173  ASP173      0.1450
    150  CG        19.8040  -36.3150   17.6620 C.2   173  ASP173      0.3671
    151  OD1       19.9870  -35.5420   18.6310 O.co2 173  ASP173     -0.2456
    152  OD2       20.2120  -37.4990   17.6540 O.co2 173  ASP173     -0.2456
    153  N         19.2480  -38.9460   14.5650 N.am  174  TRP174     -0.1974
    154  CA        18.7520  -40.3110   14.4970 C.3   174  TRP174      0.1640
    155  C         19.3250  -41.1400   15.6390 C.2   174  TRP174      0.2290
    156  O         19.3290  -42.3670   15.5850 O.2   174  TRP174     -0.2864
    157  CB        19.1010  -40.9000   13.1200 C.3   174  TRP174      0.0576
    158  CG        18.4310  -40.0940   12.0570 C.ar  174  TRP174      0.0006
    159  CD1       18.8270  -38.8740   11.5610 C.ar  174  TRP174      0.0946
    160  CD2       17.1850  -40.4010   11.4220 C.ar  174  TRP174      0.0152
    161  NE1       17.9140  -38.4220   10.6370 N.ar  174  TRP174     -0.2442
    162  CE2       16.8940  -39.3370   10.5340 C.ar  174  TRP174      0.0810
    163  CE3       16.2970  -41.4720   11.5070 C.ar  174  TRP174      0.0012
    164  CZ2       15.7450  -39.3230    9.7330 C.ar  174  TRP174      0.0191
    165  CZ3       15.1470  -41.4530   10.7110 C.ar  174  TRP174      0.0001
    166  CH2       14.8890  -40.3840    9.8350 C.ar  174  TRP174      0.0015
@<TRIPOS>BOND
     1    92    91   ar
     2    93    91   ar
     3    91    90    1
     4    89    90    1
     5    89    86    1
     6    97    96    2
     7    86    85    1
     8    86    87    1
     9    68    69    2
    10    68    67    1
    11    94    87   am
    12    94    95    1
    13    96    95    1
    14    96   104   am
    15    85    76   am
    16    87    88    2
    17    66    67    1
    18    67    70    1
    19   109   108    1
    20   110   108    1
    21   105   104    1
    22   105   108    1
    23   105   106    1
    24    98    95    1
    25    98    99    1
    26   100    99   ar
    27   100   102   ar
    28   106   107    2
    29    76    77    2
    30    76    75    1
    31    99   101   ar
    32   102   103   ar
    33    73    71    1
    34   132   131    2
    35    70    71    1
    36    70    72    1
    37    75    74    1
    38    75    78    1
    39   111   112    1
    40   101   103   ar
    41   131   130    1
    42   112   113    1
    43   112   115    1
    44    78    79    1
    45   164   166   ar
    46   164   162   ar
    47   166   165   ar
    48    41    42    1
    49    80    79   ar
    50    80    82   ar
    51   113   114    2
    52   115   116    1
    53   162   161   ar
    54   162   160   ar
    55   133   130    1
    56   133   134    1
    57    79    81   ar
    58   161   159   ar
    59   130   129    1
    60   165   163   ar
    61    82    84   ar
    62   143   141    1
    63    44    43    2
    64    42    45    1
    65    42    43    1
    66   160   163   ar
    67   160   158   ar
    68   137   138    1
    69    45    47    1
    70    45    46    1
    71   159   158   ar
    72   116   117    2
    73   116   118   am
    74    81    83   ar
    75   134   135    1
    76   138   141    1
    77   138   139    1
    78   158   157    1
    79    84    83   ar
    80   141   142    1
    81    60    59    2
    82   135   136    1
    83   157   154    1
    84   139   140    2
    85   139   145   am
    86   142   144    1
    87    59    58    1
    88   145   146    1
    89   154   153    1
    90   154   155    1
    91   153   147   am
    92    58    57    1
    93    58    61    1
    94     7     6    1
    95    62    61    1
    96    62    63    1
    97    48    49    1
    98   146   147    1
    99   146   149    1
   100   147   148    2
   101    65    63   ar
   102   122   121    2
   103   156   155    2
   104    63    64   ar
   105     8     6    1
   106    52    49    1
   107    52    53    1
   108     6     5    1
   109   121   120    1
   110    39    38    1
   111    49    50    1
   112    54    53    1
   113    54    55    1
   114   149   150    1
   115    51    50    2
   116    56    55    1
   117   120   119    1
   118   120   123    1
   119     5     2    1
   120    38    40    1
   121    38    35    1
   122   152   150   ar
   123   150   151   ar
   124    36    35    1
   125    36    37    2
   126   126   128   ar
   127   126   124   ar
   128    35    34    1
   129   128   127   ar
   130   124   123    1
   131   124   125   ar
   132     2     1    1
   133     2     3    1
   134   127   125   ar
   135     3     4    2
   136     3     9   am
   137    33    32    1
   138     9    10    1
   139    32    29    1
   140    12    11    2
   141    10    11    1
   142    11    13   am
   143    29    30    1
   144    29    28    1
   145    30    31    2
   146    13    14    1
   147    14    15    1
   148    14    17    1
   149    24    15   am
   150    24    25    1
   151    15    16    2
   152    25    26    1
   153    17    18    1
   154    26    27    2
   155    18    19    1
   156    19    20    1
   157    22    21    1
   158    20    21    2
   159    21    23    1
