@<TRIPOS>MOLECULE
tmp/3pe6A00.pdb
 219 203 0 0 0
SMALL
GASTEIGER

@<TRIPOS>ATOM
      1  N        -17.4930   22.2140   -4.0250 N.3    44  GLY44      -0.1210
      2  CA       -16.0330   22.1290   -4.1160 C.3    44  GLY44       0.1956
      3  C        -15.4020   23.4320   -4.6490 C.2    44  GLY44       0.2611
      4  O        -16.0400   24.4410   -4.9580 O.2    44  GLY44      -0.2717
      5  N        -14.0780   23.3340   -4.7890 N.am   45  ALA45      -0.1979
      6  CA       -13.2700   24.4690   -5.2390 C.3    45  ALA45       0.1597
      7  C        -13.6760   24.8610   -6.6550 C.2    45  ALA45       0.2287
      8  O        -13.8620   23.9800   -7.4900 O.2    45  ALA45      -0.2864
      9  CB       -11.8050   24.1640   -5.2100 C.3    45  ALA45       0.0319
     10  N        -16.3200   26.0410   -7.8970 N.3    47  GLU47      -0.1245
     11  CA       -17.7560   25.9860   -8.2740 C.3    47  GLU47       0.1567
     12  C        -18.5670   26.7420   -7.2270 C.2    47  GLU47       0.2260
     13  O        -18.0810   27.7270   -6.6490 O.2    47  GLU47      -0.2867
     14  CB       -18.2280   24.5610   -8.5590 C.3    47  GLU47       0.0388
     15  CG       -18.0410   23.6140   -7.3990 C.3    47  GLU47       0.1160
     16  CD       -18.7680   22.2790   -7.4880 C.2    47  GLU47       0.3649
     17  OE1      -19.4340   22.0710   -8.5010 O.co2  47  GLU47      -0.2457
     18  OE2      -18.7260   21.4830   -6.4900 O.co2  47  GLU47      -0.2457
     19  N        -24.6750   24.5840   -8.5890 N.3    51  ARG51      -0.1245
     20  CA       -24.3680   23.4190   -9.3390 C.3    51  ARG51       0.1563
     21  C        -25.0330   22.1340   -8.7350 C.2    51  ARG51       0.2260
     22  O        -24.9320   21.0890   -9.2950 O.2    51  ARG51      -0.2867
     23  CB       -22.8480   23.2840   -9.5230 C.3    51  ARG51       0.0307
     24  CG       -22.2770   24.5480  -10.2920 C.3    51  ARG51       0.0489
     25  CD       -21.3940   24.3370  -11.4090 C.3    51  ARG51       0.2205
     26  NE       -21.8750   23.3680  -12.3270 N.pl3  51  ARG51      -0.0865
     27  CZ       -22.8380   23.5190  -13.1940 C.cat  51  ARG51       0.5346
     28  NH1      -23.2770   24.7360  -13.5310 N.pl3  51  ARG51       0.1354
     29  NH2      -23.2540   22.4400  -13.8570 N.pl3  51  ARG51       0.1354
     30  N        -18.8160   17.3380   -2.0040 N.3   115  HIS115     -0.1226
     31  CA       -18.0630   16.8440   -3.1550 C.3   115  HIS115      0.1752
     32  C        -16.6800   17.4560   -3.1670 C.2   115  HIS115      0.2597
     33  O        -16.5010   18.6650   -3.0060 O.2   115  HIS115     -0.2718
     34  CB       -18.7630   17.2400   -4.4640 C.3   115  HIS115      0.0759
     35  CG       -17.9670   17.0200   -5.7150 C.ar  115  HIS115      0.0818
     36  ND1      -17.4050   15.8220   -6.0830 N.ar  115  HIS115     -0.2268
     37  CD2      -17.6440   17.9000   -6.7040 C.ar  115  HIS115      0.1154
     38  CE1      -16.8000   15.9710   -7.2620 C.ar  115  HIS115      0.1986
     39  NE2      -16.9180   17.2130   -7.6630 N.ar  115  HIS115     -0.2212
     40  N        -15.6400   16.6270   -3.3520 N.am  116  SER116     -0.1938
     41  CA       -14.2800   17.1160   -3.6200 C.3   116  SER116      0.2055
     42  C        -13.7750   17.9260   -2.4360 C.2   116  SER116      0.2642
     43  O        -13.8060   17.4230   -1.3000 O.2   116  SER116     -0.2714
     44  CB       -14.2290   17.7700   -4.9880 C.3   116  SER116      0.2130
     45  OG       -12.9120   17.8900   -5.4720 O.3   116  SER116     -0.2179
     46  N        -13.2880   19.1410   -2.6400 N.am  117  MET117     -0.1976
     47  CA       -12.9340   20.0000   -1.4780 C.3   117  MET117      0.1605
     48  C        -14.0690   20.0990   -0.4790 C.2   117  MET117      0.2287
     49  O        -13.8320   20.1850    0.7130 O.2   117  MET117     -0.2864
     50  CB       -12.5340   21.3840   -1.9530 C.3   117  MET117      0.0413
     51  CG       -12.1380   22.3320   -0.8040 C.3   117  MET117      0.0598
     52  SD       -11.8950   24.0500   -1.3420 S.3   117  MET117     -0.1393
     53  CE       -13.5490   24.7190   -1.3730 C.3   117  MET117      0.0692
     54  N        -12.0690   14.9760   -1.1820 N.3   142  LEU142     -0.1245
     55  CA       -10.6220   15.2300   -1.1520 C.3   142  LEU142      0.1561
     56  C        -10.0100   14.6250    0.1360 C.2   142  LEU142      0.2260
     57  O        -10.0940   15.2550    1.2000 O.2   142  LEU142     -0.2867
     58  CB       -10.3220   16.7140   -1.3100 C.3   142  LEU142      0.0270
     59  CG        -8.8520   17.0880   -1.2150 C.3   142  LEU142      0.0019
     60  CD1       -8.0650   16.4340   -2.2990 C.3   142  LEU142      0.0001
     61  CD2       -8.6730   18.5930   -1.3230 C.3   142  LEU142      0.0001
     62  N         -4.8290   13.3410   -2.5950 N.3   145  ALA145     -0.1245
     63  CA        -4.7180   13.8340   -3.9280 C.3   145  ALA145      0.1562
     64  C         -3.9600   12.8280   -4.8240 C.2   145  ALA145      0.2260
     65  O         -3.2400   11.9370   -4.3530 O.2   145  ALA145     -0.2867
     66  CB        -4.0240   15.1160   -3.9110 C.3   145  ALA145      0.0290
     67  N          0.1620   14.7500   -9.1530 N.3   149  SER149     -0.1202
     68  CA        -0.2970   16.1350   -9.0520 C.3   149  SER149      0.2020
     69  C          0.1340   16.8280   -7.7750 C.2   149  SER149      0.2618
     70  O          0.5030   17.9980   -7.7890 O.2   149  SER149     -0.2717
     71  CB        -1.8040   16.2300   -9.0970 C.3   149  SER149      0.2103
     72  OG        -2.2160   15.5510  -10.2880 O.3   149  SER149     -0.2182
     73  N          0.0530   16.1170   -6.6650 N.am  150  ALA150     -0.1979
     74  CA         0.4420   16.6750   -5.3800 C.3   150  ALA150      0.1597
     75  C          1.9200   16.9980   -5.3860 C.2   150  ALA150      0.2287
     76  O          2.3440   18.0910   -4.8950 O.2   150  ALA150     -0.2864
     77  CB         0.1300   15.6880   -4.2320 C.3   150  ALA150      0.0319
     78  N          2.6490   20.0190   -7.5130 N.3   153  PHE153     -0.1241
     79  CA         2.2250   21.2230   -6.8580 C.3   153  PHE153      0.1605
     80  C          3.2320   21.6010   -5.7600 C.2   153  PHE153      0.2264
     81  O          3.5820   22.7690   -5.6490 O.2   153  PHE153     -0.2867
     82  CB         0.8240   21.1190   -6.2710 C.3   153  PHE153      0.0534
     83  CG         0.4700   22.3660   -5.5390 C.ar  153  PHE153     -0.0203
     84  CD1        0.1730   23.5160   -6.2500 C.ar  153  PHE153     -0.0042
     85  CD2        0.6820   22.4490   -4.1740 C.ar  153  PHE153     -0.0042
     86  CE1       -0.0200   24.7130   -5.5830 C.ar  153  PHE153     -0.0003
     87  CE2        0.4670   23.6140   -3.4970 C.ar  153  PHE153     -0.0003
     88  CZ         0.1180   24.7490   -4.1930 C.ar  153  PHE153     -0.0000
     89  N         -8.6390   24.3870  -13.2390 N.3   173  ILE173     -0.1245
     90  CA        -9.4150   23.1400  -13.1980 C.3   173  ILE173      0.1561
     91  C         -9.6640   22.6670  -14.6250 C.2   173  ILE173      0.2260
     92  O        -10.1180   23.4610  -15.4720 O.2   173  ILE173     -0.2867
     93  CB       -10.6960   23.4020  -12.4530 C.3   173  ILE173      0.0252
     94  CG1      -10.3310   23.6410  -10.9610 C.3   173  ILE173      0.0019
     95  CG2      -11.6780   22.2370  -12.5880 C.3   173  ILE173      0.0019
     96  CD1      -11.4560   24.2630  -10.1960 C.3   173  ILE173      0.0001
     97  N        -11.9230   20.5760  -16.5440 N.3   175  SER175     -0.1217
     98  CA       -13.1980   19.8830  -16.4340 C.3   175  SER175      0.1889
     99  C        -13.3020   18.6820  -17.4000 C.2   175  SER175      0.2288
    100  O        -14.0530   17.7440  -17.1470 O.2   175  SER175     -0.2866
    101  CB       -14.3020   20.8480  -16.6470 C.3   175  SER175      0.2089
    102  OG       -14.0970   21.4990  -17.9180 O.3   175  SER175     -0.2183
    103  N        -12.6010   15.4520  -15.7770 N.3   178  LEU178     -0.1231
    104  CA       -13.3070   15.2860  -14.5210 C.3   178  LEU178      0.1693
    105  C        -14.7430   14.8000  -14.6960 C.2   178  LEU178      0.2592
    106  O        -15.3540   14.4260  -13.7310 O.2   178  LEU178     -0.2718
    107  CB       -13.2450   16.5820  -13.6870 C.3   178  LEU178      0.0284
    108  CG       -11.7880   17.0360  -13.3440 C.3   178  LEU178      0.0019
    109  CD1      -11.7990   18.3860  -12.6390 C.3   178  LEU178      0.0001
    110  CD2      -11.0330   15.9860  -12.5250 C.3   178  LEU178      0.0001
    111  N        -15.2310   14.7310  -15.9230 N.am  179  SER179     -0.1952
    112  CA       -16.4640   14.0180  -16.2340 C.3   179  SER179      0.1924
    113  C        -16.3530   13.5170  -17.6730 C.2   179  SER179      0.2314
    114  O        -15.8990   14.2470  -18.5460 O.2   179  SER179     -0.2863
    115  CB       -17.6690   14.9330  -16.1590 C.3   179  SER179      0.2116
    116  OG       -18.8100   14.1700  -16.5820 O.3   179  SER179     -0.2180
    117  N        -22.2470   17.9480  -19.8930 N.3   184  GLU184     -0.1231
    118  CA       -22.0250   18.4710  -18.5410 C.3   184  GLU184      0.1699
    119  C        -20.7630   19.3010  -18.4450 C.2   184  GLU184      0.2592
    120  O        -20.7390   20.3360  -17.7880 O.2   184  GLU184     -0.2718
    121  CB       -22.0220   17.3760  -17.4850 C.3   184  GLU184      0.0402
    122  CG       -23.3710   16.6910  -17.3120 C.3   184  GLU184      0.1161
    123  CD       -24.3960   17.5210  -16.6400 C.2   184  GLU184      0.3649
    124  OE1      -24.2030   18.6750  -16.2580 O.co2 184  GLU184     -0.2457
    125  OE2      -25.4690   16.9520  -16.3550 O.co2 184  GLU184     -0.2457
    126  N        -19.7210   18.8610  -19.1230 N.am  185  VAL185     -0.1980
    127  CA       -18.4720   19.6410  -19.1940 C.3   185  VAL185      0.1595
    128  C        -18.7720   21.0640  -19.7980 C.2   185  VAL185      0.2287
    129  O        -18.3160   22.0690  -19.2740 O.2   185  VAL185     -0.2864
    130  CB       -17.3650   18.8880  -19.9660 C.3   185  VAL185      0.0276
    131  CG1      -16.1870   19.7930  -20.2670 C.3   185  VAL185      0.0022
    132  CG2      -16.9340   17.6270  -19.1750 C.3   185  VAL185      0.0022
    133  N        -20.7620   23.2430  -17.3960 N.3   188  TYR188     -0.1241
    134  CA       -19.9050   23.7400  -16.3420 C.3   188  TYR188      0.1605
    135  C        -19.0480   24.8970  -16.8740 C.2   188  TYR188      0.2264
    136  O        -18.9250   25.9580  -16.2370 O.2   188  TYR188     -0.2867
    137  CB       -19.0210   22.6240  -15.8200 C.3   188  TYR188      0.0534
    138  CG       -17.9730   23.1170  -14.8760 C.ar  188  TYR188     -0.0201
    139  CD1      -18.2490   23.2910  -13.5140 C.ar  188  TYR188     -0.0009
    140  CD2      -16.6820   23.3580  -15.3220 C.ar  188  TYR188     -0.0009
    141  CE1      -17.2610   23.7670  -12.6810 C.ar  188  TYR188      0.0417
    142  CE2      -15.6790   23.7720  -14.4720 C.ar  188  TYR188      0.0417
    143  CZ       -15.9770   23.9770  -13.1680 C.ar  188  TYR188      0.1957
    144  OH       -14.9730   24.3820  -12.2900 O.3   188  TYR188     -0.2866
    145  N         -5.0830   27.8410  -10.3620 N.3   199  LEU199     -0.1245
    146  CA        -5.1220   27.7530   -8.9110 C.3   199  LEU199      0.1561
    147  C         -3.9140   28.4400   -8.3080 C.2   199  LEU199      0.2260
    148  O         -2.7670   28.0950   -8.6250 O.2   199  LEU199     -0.2867
    149  CB        -5.1400   26.2880   -8.5390 C.3   199  LEU199      0.0270
    150  CG        -5.5710   25.9150   -7.1430 C.3   199  LEU199      0.0019
    151  CD1       -6.7110   24.9230   -7.2570 C.3   199  LEU199      0.0001
    152  CD2       -4.3810   25.3240   -6.4770 C.3   199  LEU199      0.0001
    153  N         -3.6240   26.4080   -3.1880 N.3   204  GLY204     -0.1225
    154  CA        -3.1140   25.0530   -3.1940 C.3   204  GLY204      0.1811
    155  C         -2.5190   24.6090   -1.8760 C.2   204  GLY204      0.2280
    156  O         -2.7170   23.4680   -1.4600 O.2   204  GLY204     -0.2866
    157  N         -5.2520   23.6900    0.3120 N.3   207  LEU207     -0.1231
    158  CA        -5.7900   22.3720   -0.0360 C.3   207  LEU207      0.1693
    159  C         -4.8570   21.2530    0.5020 C.2   207  LEU207      0.2591
    160  O         -5.3450   20.2390    0.9660 O.2   207  LEU207     -0.2718
    161  CB        -6.0240   22.2000   -1.4900 C.3   207  LEU207      0.0284
    162  CG        -7.0400   23.1370   -2.1370 C.3   207  LEU207      0.0019
    163  CD1       -7.0730   23.0190   -3.6460 C.3   207  LEU207      0.0001
    164  CD2       -8.4170   22.8210   -1.5690 C.3   207  LEU207      0.0001
    165  N         -3.5340   21.4530    0.4880 N.am  208  LEU208     -0.1980
    166  CA        -2.6450   20.5010    1.1330 C.3   208  LEU208      0.1596
    167  C         -2.8630   20.4620    2.6470 C.2   208  LEU208      0.2287
    168  O         -2.7770   19.3940    3.2410 O.2   208  LEU208     -0.2864
    169  CB        -1.1860   20.8630    0.8710 C.3   208  LEU208      0.0297
    170  CG        -0.6890   20.7800   -0.5680 C.3   208  LEU208      0.0022
    171  CD1        0.7850   21.3260   -0.6360 C.3   208  LEU208      0.0001
    172  CD2       -0.7490   19.3760   -1.0520 C.3   208  LEU208      0.0001
    173  N         -5.8500   18.2770    3.2430 N.3   211  VAL211     -0.1245
    174  CA        -5.5030   16.8750    3.1520 C.3   211  VAL211      0.1561
    175  C         -4.8330   16.3620    4.4320 C.2   211  VAL211      0.2260
    176  O         -5.1910   15.3340    4.9720 O.2   211  VAL211     -0.2867
    177  CB        -4.6270   16.5960    1.9110 C.3   211  VAL211      0.0252
    178  CG1       -4.0080   15.1580    1.9530 C.3   211  VAL211      0.0019
    179  CG2       -5.4690   16.8000    0.6540 C.3   211  VAL211      0.0019
    180  N         -8.2880   13.5570   -9.8000 N.3   235  LEU235     -0.1231
    181  CA        -8.0700   14.6040   -8.8250 C.3   235  LEU235      0.1693
    182  C         -8.0180   14.0940   -7.3880 C.2   235  LEU235      0.2592
    183  O         -7.0370   14.3450   -6.6740 O.2   235  LEU235     -0.2718
    184  CB        -9.1970   15.6060   -9.0620 C.3   235  LEU235      0.0284
    185  CG        -9.0300   16.8770   -8.3520 C.3   235  LEU235      0.0019
    186  CD1       -7.6270   17.5490   -8.6440 C.3   235  LEU235      0.0001
    187  CD2      -10.1120   17.8630   -8.8070 C.3   235  LEU235      0.0001
    188  N         -9.0590   13.3650   -6.9850 N.am  236  CYS236     -0.1970
    189  CA        -9.1600   12.7740   -5.6460 C.3   236  CYS236      0.1712
    190  C         -8.8920   11.2920   -5.8480 C.2   236  CYS236      0.2296
    191  O         -9.7490   10.5390   -6.3830 O.2   236  CYS236     -0.2864
    192  CB       -10.5350   13.0610   -5.0190 C.3   236  CYS236      0.0983
    193  SG       -10.7730   14.8040   -4.6210 S.3   236  CYS236     -0.0798
    194  N        -14.1990   12.0480  -11.8180 N.3   263  HIS263     -0.1226
    195  CA       -14.3920   12.6840  -10.5290 C.3   263  HIS263      0.1752
    196  C        -15.8260   13.1560  -10.2320 C.2   263  HIS263      0.2595
    197  O        -16.3020   12.9420   -9.1020 O.2   263  HIS263     -0.2718
    198  CB       -13.4410   13.8980  -10.5480 C.3   263  HIS263      0.0759
    199  CG       -13.4090   14.6970   -9.2880 C.ar  263  HIS263      0.0818
    200  ND1      -13.0750   14.1530   -8.0750 N.ar  263  HIS263     -0.2268
    201  CD2      -13.5770   16.0260   -9.0500 C.ar  263  HIS263      0.1154
    202  CE1      -13.0450   15.1240   -7.1390 C.ar  263  HIS263      0.1986
    203  NE2      -13.3450   16.2580   -7.7160 N.ar  263  HIS263     -0.2212
    204  N        -16.4950   13.7860  -11.1610 N.am  264  VAL264     -0.1980
    205  CA       -17.7370   14.4880  -10.8290 C.3   264  VAL264      0.1595
    206  C        -18.9340   13.5210  -11.0710 C.2   264  VAL264      0.2287
    207  O        -19.6420   13.5910  -12.0860 O.2   264  VAL264     -0.2864
    208  CB       -17.8760   15.7860  -11.5830 C.3   264  VAL264      0.0276
    209  CG1      -18.9970   16.5900  -10.9620 C.3   264  VAL264      0.0022
    210  CG2      -16.6060   16.6300  -11.4860 C.3   264  VAL264      0.0022
    211  N        -22.4010   14.5220  -12.1420 N.3   267  LYS267     -0.1245
    212  CA       -22.4890   15.1430  -13.4420 C.3   267  LYS267      0.1561
    213  C        -21.8080   14.3110  -14.4880 C.2   267  LYS267      0.2260
    214  O        -21.1160   14.8220  -15.3740 O.2   267  LYS267     -0.2867
    215  CB       -21.7740   16.5100  -13.4080 C.3   267  LYS267      0.0271
    216  CG       -22.3360   17.5170  -12.3780 C.3   267  LYS267      0.0035
    217  CD       -23.6640   18.0150  -12.7320 C.3   267  LYS267      0.0206
    218  CE       -24.0640   19.1570  -11.7660 C.3   267  LYS267      0.1093
    219  NZ       -25.3920   19.5670  -12.0050 N.3   267  LYS267     -0.1314
@<TRIPOS>BOND
     1   131   130    1
     2   130   127    1
     3   130   132    1
     4   117   118    1
     5   128   129    2
     6   128   127    1
     7   127   126    1
     8   126   119   am
     9   114   113    2
    10   118   119    1
    11   118   121    1
    12   119   120    2
    13   102   101    1
    14   113   112    1
    15   121   122    1
    16    99   100    2
    17    99    98    1
    18   133   134    1
    19   122   123    1
    20   135   134    1
    21   135   136    2
    22   101    98    1
    23   123   125   ar
    24   123   124   ar
    25   116   115    1
    26    97    98    1
    27   134   137    1
    28   112   115    1
    29   112   111    1
    30   111   105   am
    31   137   138    1
    32   103   104    1
    33    92    91    2
    34   214   213    2
    35   140   138   ar
    36   140   142   ar
    37   138   139   ar
    38   105   104    1
    39   105   106    2
    40    91    90    1
    41   104   107    1
    42   213   212    1
    43   142   143   ar
    44    29    27    1
    45   107   108    1
    46    28    27    1
    47   139   141   ar
    48   212   215    1
    49   212   211    1
    50   215   216    1
    51   108   109    1
    52   108   110    1
    53    89    90    1
    54    90    93    1
    55    27    26    2
    56   143   141   ar
    57   143   144    1
    58   217   216    1
    59   217   218    1
    60    95    93    1
    61    93    94    1
    62    26    25    1
    63   207   206    2
    64   219   218    1
    65   194   195    1
    66   208   210    1
    67   208   209    1
    68   208   205    1
    69    25    24    1
    70   204   205    1
    71   204   196   am
    72   206   205    1
    73    94    96    1
    74   198   195    1
    75   198   199    1
    76   195   196    1
    77   145   146    1
    78    24    23    1
    79    72    71    1
    80   196   197    2
    81   180   181    1
    82    23    20    1
    83    20    21    1
    84    20    19    1
    85    22    21    2
    86   199   201   ar
    87   199   200   ar
    88    67    68    1
    89    71    68    1
    90   184   181    1
    91   184   185    1
    92    68    69    1
    93   201   203   ar
    94   146   149    1
    95   146   147    1
    96   181   182    1
    97   187   185    1
    98   186   185    1
    99   148   147    2
   100    14    11    1
   101    14    15    1
   102   149   150    1
   103    17    16   ar
   104    11    10    1
   105    11    12    1
   106   200   202   ar
   107    70    69    2
   108    69    73   am
   109   203   202   ar
   110    39    38   ar
   111    39    37   ar
   112    78    79    1
   113     8     7    2
   114    16    15    1
   115    16    18   ar
   116   182   188   am
   117   182   183    2
   118    38    36   ar
   119   151   150    1
   120    12    13    2
   121   150   152    1
   122   188   189    1
   123    79    82    1
   124    79    80    1
   125    37    35   ar
   126    73    74    1
   127     7     6    1
   128   191   190    2
   129    82    83    1
   130    84    86   ar
   131    84    83   ar
   132    36    35   ar
   133   190   189    1
   134    80    81    2
   135    35    34    1
   136   189   192    1
   137    86    88   ar
   138    83    85   ar
   139    45    44    1
   140    75    74    1
   141    75    76    2
   142    74    77    1
   143     6     9    1
   144     6     5    1
   145   192   193    1
   146    44    41    1
   147     4     3    2
   148    64    65    2
   149    64    63    1
   150     5     3   am
   151     3     2    1
   152    34    31    1
   153    88    87   ar
   154    85    87   ar
   155     2     1    1
   156    63    66    1
   157    63    62    1
   158   163   162    1
   159    41    40    1
   160    41    42    1
   161    40    32   am
   162   154   153    1
   163   154   155    1
   164    32    31    1
   165    32    33    2
   166    31    30    1
   167    46    42   am
   168    46    47    1
   169    42    43    2
   170    60    59    1
   171   162   164    1
   172   162   161    1
   173    50    47    1
   174    50    51    1
   175   155   156    2
   176   161   158    1
   177    47    48    1
   178    53    52    1
   179    52    51    1
   180    61    59    1
   181    58    59    1
   182    58    55    1
   183    54    55    1
   184    55    56    1
   185   172   170    1
   186   171   170    1
   187   170   169    1
   188    48    49    2
   189   158   157    1
   190   158   159    1
   191    56    57    2
   192   165   159   am
   193   165   166    1
   194   159   160    2
   195   179   177    1
   196   169   166    1
   197   166   167    1
   198   177   178    1
   199   177   174    1
   200   167   168    2
   201   174   173    1
   202   174   175    1
   203   175   176    2
