@<TRIPOS>MOLECULE
tmp/3peaC01.pdb
 129 124 0 0 0
SMALL
GASTEIGER

@<TRIPOS>ATOM
      1  N         71.9350   96.7500   57.9920 N.3    59  ALA59      -0.1231
      2  CA        71.5210   95.8670   59.0790 C.3    59  ALA59       0.1694
      3  C         70.0380   95.4720   59.0270 C.2    59  ALA59       0.2593
      4  O         69.5860   94.6820   59.8870 O.2    59  ALA59      -0.2718
      5  CB        71.8180   96.5000   60.4400 C.3    59  ALA59       0.0304
      6  N         69.2630   96.0210   58.0890 N.am   60  GLY60      -0.1942
      7  CA        67.8750   95.6080   57.9660 C.3    60  GLY60       0.2014
      8  C         67.0060   96.6090   57.2900 C.2    60  GLY60       0.2638
      9  O         67.5090   97.6290   56.7970 O.2    60  GLY60      -0.2714
     10  N         65.7020   96.3050   57.2470 N.am   61  ALA61      -0.1977
     11  CA        64.6830   97.3090   57.0120 C.3    61  ALA61       0.1597
     12  C         64.6990   98.2520   58.2150 C.2    61  ALA61       0.2287
     13  O         65.4020   97.9990   59.2130 O.2    61  ALA61      -0.2864
     14  CB        63.3210   96.6840   56.8750 C.3    61  ALA61       0.0319
     15  N         63.1520   99.6550   61.4050 N.3    63  ILE63      -0.1245
     16  CA        62.2020   99.2770   62.4630 C.3    63  ILE63       0.1561
     17  C         61.1790  100.4020   62.7310 C.2    63  ILE63       0.2260
     18  O         60.0370  100.1190   63.1060 O.2    63  ILE63      -0.2867
     19  CB        62.9440   98.8690   63.8130 C.3    63  ILE63       0.0252
     20  CG1       62.0200   98.0600   64.7560 C.3    63  ILE63       0.0019
     21  CG2       63.5250  100.1120   64.5440 C.3    63  ILE63       0.0019
     22  CD1       61.5170   96.7440   64.1910 C.3    63  ILE63       0.0001
     23  N         57.7070   99.9470   61.2400 N.3    66  PHE66      -0.1241
     24  CA        57.0190   98.6690   61.5360 C.3    66  PHE66       0.1605
     25  C         56.5140   98.5820   62.9870 C.2    66  PHE66       0.2264
     26  O         56.4610   97.4870   63.5680 O.2    66  PHE66      -0.2867
     27  CB        57.9480   97.4820   61.2270 C.3    66  PHE66       0.0534
     28  CG        58.3040   97.3740   59.7660 C.ar   66  PHE66      -0.0203
     29  CD1       57.4770   96.7000   58.8760 C.ar   66  PHE66      -0.0042
     30  CD2       59.4380   97.9850   59.2820 C.ar   66  PHE66      -0.0042
     31  CE1       57.7880   96.6310   57.5240 C.ar   66  PHE66      -0.0003
     32  CE2       59.7580   97.9290   57.9340 C.ar   66  PHE66      -0.0003
     33  CZ        58.9300   97.2340   57.0530 C.ar   66  PHE66      -0.0000
     34  N         66.3630   92.9780   55.4410 N.3   107  GLY107     -0.1225
     35  CA        66.2480   93.8640   54.2840 C.3   107  GLY107      0.1811
     36  C         67.5630   94.2280   53.5990 C.2   107  GLY107      0.2280
     37  O         67.6130   94.4250   52.4080 O.2   107  GLY107     -0.2866
     38  N         68.4890   91.2670   51.6000 N.3   110  GLU110     -0.1245
     39  CA        67.5430   91.2710   50.4390 C.3   110  GLU110      0.1567
     40  C         67.9750   92.2340   49.3570 C.2   110  GLU110      0.2260
     41  O         67.8530   91.9610   48.1520 O.2   110  GLU110     -0.2867
     42  CB        66.1250   91.5450   50.9340 C.3   110  GLU110      0.0388
     43  CG        65.5780   90.3560   51.7350 C.3   110  GLU110      0.1160
     44  CD        64.2420   90.6540   52.4420 C.2   110  GLU110      0.3649
     45  OE1       64.1610   91.5970   53.2620 O.co2 110  GLU110     -0.2457
     46  OE2       63.2680   89.9170   52.1630 O.co2 110  GLU110     -0.2457
     47  N         67.0890   87.5990   59.6470 N.3   127  PRO127     -0.2102
     48  CA        66.6680   87.3730   61.0320 C.3   127  PRO127      0.1504
     49  C         65.2490   87.8210   61.3270 C.2   127  PRO127      0.2575
     50  O         64.8630   87.9050   62.5010 O.2   127  PRO127     -0.2718
     51  CB        67.6650   88.2400   61.8260 C.3   127  PRO127      0.0282
     52  CG        67.8930   89.4000   60.9310 C.3   127  PRO127      0.0208
     53  CD        67.8640   88.8580   59.5310 C.3   127  PRO127      0.0893
     54  N         64.4470   88.0580   60.2970 N.am  128  GLU128     -0.1980
     55  CA        63.0740   88.5720   60.4940 C.3   128  GLU128      0.1602
     56  C         62.1480   87.7850   61.4400 C.2   128  GLU128      0.2287
     57  O         61.3120   88.3980   62.1120 O.2   128  GLU128     -0.2864
     58  CB        62.3500   88.7160   59.1150 C.3   128  GLU128      0.0415
     59  CG        62.8330   89.8900   58.2350 C.3   128  GLU128      0.1163
     60  CD        64.0420   89.5830   57.3450 C.2   128  GLU128      0.3649
     61  OE1       64.8050   88.6710   57.6510 O.co2 128  GLU128     -0.2457
     62  OE2       64.2820   90.3180   56.3590 O.co2 128  GLU128     -0.2457
     63  N         62.7730   86.5650   64.1380 N.3   130  THR130     -0.1203
     64  CA        62.9720   87.0250   65.5370 C.3   130  THR130      0.1994
     65  C         61.8900   88.0320   65.9130 C.2   130  THR130      0.2617
     66  O         61.4430   88.0940   67.0820 O.2   130  THR130     -0.2717
     67  CB        64.3550   87.6090   65.7320 C.3   130  THR130      0.1784
     68  OG1       65.2950   86.5960   65.3880 O.3   130  THR130     -0.2211
     69  CG2       64.6150   87.9870   67.1860 C.3   130  THR130      0.0376
     70  N         61.4150   88.7730   64.9240 N.am  131  LEU131     -0.1979
     71  CA        60.3770   89.7860   65.1410 C.3   131  LEU131      0.1596
     72  C         58.9750   89.2300   64.9390 C.2   131  LEU131      0.2287
     73  O         57.9970   89.9790   64.9460 O.2   131  LEU131     -0.2864
     74  CB        60.5950   90.9600   64.1840 C.3   131  LEU131      0.0297
     75  CG        61.4830   92.1510   64.5360 C.3   131  LEU131      0.0022
     76  CD1       62.5690   91.9530   65.6150 C.3   131  LEU131      0.0001
     77  CD2       62.0380   92.7010   63.2320 C.3   131  LEU131      0.0001
     78  N         57.9370   88.1400   62.2240 N.3   133  LEU133     -0.1245
     79  CA        57.6470   88.5050   60.8550 C.3   133  LEU133      0.1561
     80  C         58.3480   87.5430   59.9070 C.2   133  LEU133      0.2260
     81  O         59.0880   86.6690   60.3370 O.2   133  LEU133     -0.2867
     82  CB        58.1510   89.9240   60.5780 C.3   133  LEU133      0.0270
     83  CG        57.5840   91.0320   61.4940 C.3   133  LEU133      0.0019
     84  CD1       58.2670   92.4260   61.1800 C.3   133  LEU133      0.0001
     85  CD2       56.0650   91.1320   61.4160 C.3   133  LEU133      0.0001
     86  N         60.6930   87.5680   55.9770 N.3   135  PRO135     -0.2102
     87  CA        61.2830   88.4940   55.0200 C.3   135  PRO135      0.1504
     88  C         60.1970   88.9620   54.0660 C.2   135  PRO135      0.2576
     89  O         59.3850   88.1370   53.6290 O.2   135  PRO135     -0.2718
     90  CB        62.3070   87.6320   54.3050 C.3   135  PRO135      0.0282
     91  CG        62.6280   86.5790   55.2590 C.3   135  PRO135      0.0208
     92  CD        61.3080   86.2460   55.8880 C.3   135  PRO135      0.0893
     93  N         60.1260   90.2730   53.8190 N.am  136  GLY136     -0.1943
     94  CA        59.1120   90.8530   52.9490 C.3   136  GLY136      0.2014
     95  C         59.6340   91.5420   51.6900 C.2   136  GLY136      0.2638
     96  O         58.8490   92.0900   50.9190 O.2   136  GLY136     -0.2714
     97  N         60.9510   91.5280   51.4720 N.am  137  PHE137     -0.1973
     98  CA        61.5190   92.1630   50.2920 C.3   137  PHE137      0.1639
     99  C         62.1380   91.1010   49.3740 C.2   137  PHE137      0.2290
    100  O         63.2570   91.2740   48.8500 O.2   137  PHE137     -0.2864
    101  CB        62.5930   93.2060   50.6280 C.3   137  PHE137      0.0560
    102  CG        62.1730   94.3020   51.5560 C.ar  137  PHE137     -0.0200
    103  CD1       60.8530   94.7870   51.6150 C.ar  137  PHE137     -0.0042
    104  CD2       63.1420   94.9320   52.3350 C.ar  137  PHE137     -0.0042
    105  CE1       60.5410   95.8740   52.4610 C.ar  137  PHE137     -0.0003
    106  CE2       62.8110   95.9770   53.1690 C.ar  137  PHE137     -0.0003
    107  CZ        61.5300   96.4480   53.2380 C.ar  137  PHE137     -0.0000
    108  N         53.2400   88.7120   54.5480 N.3   225  PHE225     -0.1241
    109  CA        53.9150   89.6930   55.3870 C.3   225  PHE225      0.1605
    110  C         52.8980   90.5920   56.1290 C.2   225  PHE225      0.2264
    111  O         53.0020   90.8380   57.3440 O.2   225  PHE225     -0.2867
    112  CB        54.8530   90.5760   54.5660 C.3   225  PHE225      0.0534
    113  CG        55.6390   91.5170   55.4140 C.ar  225  PHE225     -0.0203
    114  CD1       56.7910   91.0800   56.0640 C.ar  225  PHE225     -0.0042
    115  CD2       55.2200   92.8100   55.6070 C.ar  225  PHE225     -0.0042
    116  CE1       57.5230   91.9350   56.8950 C.ar  225  PHE225     -0.0003
    117  CE2       55.9210   93.6650   56.4520 C.ar  225  PHE225     -0.0003
    118  CZ        57.0860   93.2300   57.0760 C.ar  225  PHE225     -0.0000
    119  N         61.1440   93.2470   70.5220 N.3   241  PHE241     -0.1241
    120  CA        62.3910   93.7320   69.9900 C.3   241  PHE241      0.1605
    121  C         62.6840   95.1440   70.4670 C.2   241  PHE241      0.2264
    122  O         63.7960   95.4220   70.9080 O.2   241  PHE241     -0.2867
    123  CB        62.4220   93.7090   68.4590 C.3   241  PHE241      0.0534
    124  CG        63.7190   94.2380   67.8960 C.ar  241  PHE241     -0.0203
    125  CD1       64.8760   93.4660   67.9570 C.ar  241  PHE241     -0.0042
    126  CD2       63.7960   95.5030   67.3480 C.ar  241  PHE241     -0.0042
    127  CE1       66.0950   93.9510   67.4540 C.ar  241  PHE241     -0.0003
    128  CE2       65.0120   95.9960   66.8470 C.ar  241  PHE241     -0.0003
    129  CZ        66.1550   95.2200   66.9120 C.ar  241  PHE241     -0.0000
@<TRIPOS>BOND
     1    41    40    2
     2   100    99    2
     3    40    39    1
     4    99    98    1
     5    98   101    1
     6    98    97    1
     7    39    42    1
     8    39    38    1
     9   101   102    1
    10    96    95    2
    11    42    43    1
    12    97    95   am
    13   102   103   ar
    14   102   104   ar
    15   103   105   ar
    16    95    94    1
    17    43    44    1
    18    46    44   ar
    19   104   106   ar
    20    37    36    2
    21    44    45   ar
    22   105   107   ar
    23    94    93    1
    24   106   107   ar
    25    36    35    1
    26    89    88    2
    27    93    88   am
    28    88    87    1
    29    35    34    1
    30    90    87    1
    31    90    91    1
    32   108   109    1
    33   112   109    1
    34   112   113    1
    35    87    86    1
    36    91    92    1
    37   109   110    1
    38   113   115   ar
    39   113   114   ar
    40   115   117   ar
    41    92    86    1
    42   114   116   ar
    43   110   111    2
    44    62    60   ar
    45   117   118   ar
    46     9     8    2
    47    14    11    1
    48   116   118   ar
    49    11    10    1
    50    11    12    1
    51    33    31   ar
    52    33    32   ar
    53    10     8   am
    54     8     7    1
    55    60    61   ar
    56    60    59    1
    57    31    29   ar
    58    32    30   ar
    59     7     6    1
    60     1     2    1
    61     6     3   am
    62    12    13    2
    63    59    58    1
    64    29    28   ar
    65     3     2    1
    66     3     4    2
    67     2     5    1
    68    58    55    1
    69    30    28   ar
    70    53    47    1
    71    53    52    1
    72    47    48    1
    73    28    27    1
    74    80    81    2
    75    80    79    1
    76    54    55    1
    77    54    49   am
    78    55    56    1
    79    82    79    1
    80    82    83    1
    81    79    78    1
    82    52    51    1
    83    48    49    1
    84    48    51    1
    85    84    83    1
    86    27    24    1
    87    23    24    1
    88    49    50    2
    89    15    16    1
    90    85    83    1
    91    56    57    2
    92    24    25    1
    93    16    17    1
    94    16    19    1
    95    17    18    2
    96    25    26    2
    97    77    75    1
    98    19    21    1
    99    19    20    1
   100    63    64    1
   101    74    75    1
   102    74    71    1
   103    22    20    1
   104    75    76    1
   105    70    71    1
   106    70    65   am
   107    72    73    2
   108    72    71    1
   109    68    67    1
   110    64    67    1
   111    64    65    1
   112    67    69    1
   113    65    66    2
   114   128   129   ar
   115   128   126   ar
   116   129   127   ar
   117   126   124   ar
   118   127   125   ar
   119   124   125   ar
   120   124   123    1
   121   123   120    1
   122   120   121    1
   123   120   119    1
   124   121   122    2
