@<TRIPOS>MOLECULE
tmp/3pebA00.pdb
 96 93 0 0 0
SMALL
GASTEIGER

@<TRIPOS>ATOM
      1  N         15.0550   15.2430   11.6160 N.3     2  SER2       -0.1217
      2  CA        15.7510   14.9440   10.3800 C.3     2  SER2        0.1889
      3  C         15.9020   16.2410    9.5620 C.2     2  SER2        0.2288
      4  O         15.3090   17.2830    9.8820 O.2     2  SER2       -0.2866
      5  CB        14.9610   13.9220    9.5640 C.3     2  SER2        0.2089
      6  OG        13.7590   14.5270    9.0670 O.3     2  SER2       -0.2183
      7  N         14.8320   16.6800    6.5100 N.3     4  LEU4       -0.1231
      8  CA        13.5100   16.9130    5.9090 C.3     4  LEU4        0.1693
      9  C         12.5000   17.4830    6.9170 C.2     4  LEU4        0.2592
     10  O         11.6630   18.3040    6.5310 O.2     4  LEU4       -0.2718
     11  CB        12.9760   15.6380    5.2480 C.3     4  LEU4        0.0284
     12  CG        13.7160   15.2310    3.9810 C.3     4  LEU4        0.0019
     13  CD1       13.3100   13.8160    3.4980 C.3     4  LEU4        0.0001
     14  CD2       13.5020   16.2800    2.8580 C.3     4  LEU4        0.0001
     15  N         12.5820   17.0640    8.1830 N.am    5  ASP5       -0.1974
     16  CA        11.7790   17.6720    9.2740 C.3     5  ASP5        0.1709
     17  C         12.0630   19.1780    9.3960 C.2     5  ASP5        0.2293
     18  O         11.1530   19.9720    9.6160 O.2     5  ASP5       -0.2864
     19  CB        12.0650   17.0390   10.6390 C.3     5  ASP5        0.1436
     20  CG        11.5280   15.6090   10.7910 C.2     5  ASP5        0.3671
     21  OD1       10.6130   15.1640   10.0600 O.co2   5  ASP5       -0.2456
     22  OD2       12.0800   14.9130   11.6590 O.co2   5  ASP5       -0.2456
     23  N         10.4160   21.0120    6.5840 N.3     8  ARG8       -0.1245
     24  CA         8.9760   21.1210    6.8410 C.3     8  ARG8        0.1563
     25  C          8.6550   22.1530    7.9400 C.2     8  ARG8        0.2260
     26  O          7.6670   22.8760    7.8310 O.2     8  ARG8       -0.2867
     27  CB         8.3630   19.7540    7.1670 C.3     8  ARG8        0.0307
     28  CG         8.2550   18.8150    5.9310 C.3     8  ARG8        0.0489
     29  CD         7.4880   17.5350    6.2570 C.3     8  ARG8        0.2205
     30  NE         8.3520   16.6180    6.9850 N.pl3   8  ARG8       -0.0865
     31  CZ         9.0500   15.6240    6.4480 C.cat   8  ARG8        0.5346
     32  NH1        8.9710   15.3310    5.1580 N.pl3   8  ARG8        0.1354
     33  NH2        9.8200   14.8800    7.2290 N.pl3   8  ARG8        0.1354
     34  N          4.7480   20.3100    3.1110 N.3    47  GLU47      -0.1231
     35  CA         4.6420   20.7130    4.4950 C.3    47  GLU47       0.1699
     36  C          3.9370   19.6220    5.3320 C.2    47  GLU47       0.2592
     37  O          4.3780   19.3170    6.4520 O.2    47  GLU47      -0.2718
     38  CB         3.8530   22.0060    4.5690 C.3    47  GLU47       0.0402
     39  CG         3.6430   22.5650    5.9610 C.3    47  GLU47       0.1161
     40  CD         2.5950   23.6590    6.0070 C.2    47  GLU47       0.3649
     41  OE1        1.7610   23.7830    5.0870 O.co2  47  GLU47      -0.2457
     42  OE2        2.5810   24.3830    6.9980 O.co2  47  GLU47      -0.2457
     43  N          2.8510   19.0510    4.7900 N.am   48  ASN48      -0.1960
     44  CA         2.0410   18.0730    5.5400 C.3    48  ASN48       0.1819
     45  C          1.6240   16.8730    4.6830 C.2    48  ASN48       0.2621
     46  O          0.5250   16.3810    4.8250 O.2    48  ASN48      -0.2715
     47  CB         0.8080   18.7360    6.1750 C.3    48  ASN48       0.1195
     48  CG         0.1650   17.8860    7.2500 C.2    48  ASN48       0.2630
     49  OD1        0.8580   17.3670    8.1300 O.2    48  ASN48      -0.2716
     50  ND2       -1.1780   17.7790    7.2410 N.am   48  ASN48      -0.0877
     51  N          2.5260   16.4130    3.8090 N.am   49  ARG49      -0.1963
     52  CA         2.3820   15.1570    3.0850 C.3    49  ARG49       0.1729
     53  C          3.7870   14.5620    2.9730 C.2    49  ARG49       0.2616
     54  O          4.7690   15.2740    3.1400 O.2    49  ARG49      -0.2715
     55  CB         1.8910   15.3680    1.6420 C.3    49  ARG49       0.0348
     56  CG         0.6120   16.1310    1.4420 C.3    49  ARG49       0.0492
     57  CD         0.4250   16.5540   -0.0020 C.3    49  ARG49       0.2205
     58  NE        -0.8520   17.2360   -0.2040 N.pl3  49  ARG49      -0.0865
     59  CZ        -1.9750   16.6590   -0.6200 C.cat  49  ARG49       0.5346
     60  NH1       -2.0070   15.3720   -0.9250 N.pl3  49  ARG49       0.1354
     61  NH2       -3.0690   17.3890   -0.7510 N.pl3  49  ARG49       0.1354
     62  N          3.8650   13.2780    2.6510 N.am   50  GLU50      -0.1964
     63  CA         5.1590   12.6720    2.3750 C.3    50  GLU50       0.1718
     64  C          5.7870   13.3340    1.1450 C.2    50  GLU50       0.2458
     65  O          5.0890   13.8260    0.2520 O.2    50  GLU50      -0.2730
     66  CB         5.0650   11.1570    2.2090 C.3    50  GLU50       0.0428
     67  CG         4.2970   10.6780    0.9960 C.3    50  GLU50       0.1163
     68  CD         4.3140    9.1710    0.8590 C.2    50  GLU50       0.3649
     69  OE1        3.4900    8.6470    0.0970 O.co2  50  GLU50      -0.2457
     70  OE2        5.1630    8.5100    1.4970 O.co2  50  GLU50      -0.2457
     71  N          7.1050   13.3750    1.1140 N.am   51  PRO51      -0.2727
     72  CA         7.7450   13.9300   -0.0740 C.3    51  PRO51       0.1402
     73  C          7.6000   13.0050   -1.3080 C.2    51  PRO51       0.2269
     74  O          7.1870   11.8500   -1.1680 O.2    51  PRO51      -0.2865
     75  CB         9.2280   14.0090    0.3310 C.3    51  PRO51       0.0296
     76  CG         9.3420   13.5550    1.6820 C.3    51  PRO51       0.0237
     77  CD         8.0890   12.8920    2.1070 C.3    51  PRO51       0.0939
     78  N         12.6680    6.1900    1.1760 N.3    68  ASP68      -0.1225
     79  CA        11.4900    5.5360    1.6880 C.3    68  ASP68       0.1805
     80  C         10.2160    6.3200    1.4340 C.2    68  ASP68       0.2597
     81  O          9.2610    6.2160    2.1750 O.2    68  ASP68      -0.2718
     82  CB        11.6650    5.2540    3.1750 C.3    68  ASP68       0.1424
     83  CG        11.3850    3.8550    3.4870 C.2    68  ASP68       0.3668
     84  OD1       10.3580    3.6130    4.1670 O.co2  68  ASP68      -0.2456
     85  OD2       12.1650    2.9830    3.0050 O.co2  68  ASP68      -0.2456
     86  N         10.2240    7.1330    0.3930 N.am   69  PHE69      -0.1976
     87  CA         9.0360    7.8270   -0.0720 C.3    69  PHE69       0.1639
     88  C          8.9600    7.6790   -1.5890 C.2    69  PHE69       0.2290
     89  O          9.9090    7.1760   -2.2030 O.2    69  PHE69      -0.2864
     90  CB         9.0470    9.2930    0.3710 C.3    69  PHE69       0.0560
     91  CG        10.3070   10.0420    0.0210 C.ar   69  PHE69      -0.0200
     92  CD1       10.5050   10.5510   -1.2520 C.ar   69  PHE69      -0.0042
     93  CD2       11.2820   10.2670    0.9910 C.ar   69  PHE69      -0.0042
     94  CE1       11.6570   11.2320   -1.5580 C.ar   69  PHE69      -0.0003
     95  CE2       12.4350   10.9610    0.6990 C.ar   69  PHE69      -0.0003
     96  CZ        12.6310   11.4430   -0.5880 C.ar   69  PHE69      -0.0000
@<TRIPOS>BOND
     1    89    88    2
     2    88    87    1
     3    94    92   ar
     4    94    96   ar
     5    73    74    2
     6    73    72    1
     7    92    91   ar
     8    60    59    1
     9    61    59    1
    10    59    58    2
    11    96    95   ar
    12    58    57    1
    13    72    75    1
    14    72    71    1
    15    87    90    1
    16    87    86    1
    17    57    56    1
    18    91    90    1
    19    91    93   ar
    20    69    68   ar
    21    65    64    2
    22    75    76    1
    23    86    80   am
    24    95    93   ar
    25    68    67    1
    26    68    70   ar
    27    67    66    1
    28    71    64   am
    29    71    77    1
    30    64    63    1
    31    78    79    1
    32    80    79    1
    33    80    81    2
    34    56    55    1
    35    55    52    1
    36    76    77    1
    37    79    82    1
    38    66    63    1
    39    63    62    1
    40    62    53   am
    41    14    12    1
    42    53    52    1
    43    53    54    2
    44    85    83   ar
    45    52    51    1
    46    34    35    1
    47    82    83    1
    48    83    84   ar
    49    13    12    1
    50    51    45   am
    51    12    11    1
    52    35    38    1
    53    35    36    1
    54    38    39    1
    55    45    46    2
    56    45    44    1
    57    43    36   am
    58    43    44    1
    59    41    40   ar
    60    32    31    1
    61    11     8    1
    62    36    37    2
    63    44    47    1
    64     8     7    1
    65     8     9    1
    66    28    29    1
    67    28    27    1
    68    39    40    1
    69    40    42   ar
    70    47    48    1
    71    29    30    1
    72    31    30    2
    73    31    33    1
    74    10     9    2
    75    23    24    1
    76    24    27    1
    77    24    25    1
    78     9    15   am
    79    50    48   am
    80    48    49    2
    81    26    25    2
    82    15    16    1
    83     6     5    1
    84    16    17    1
    85    16    19    1
    86    17    18    2
    87     3     4    2
    88     3     2    1
    89     5     2    1
    90    21    20   ar
    91     2     1    1
    92    19    20    1
    93    20    22   ar
