@<TRIPOS>MOLECULE
tmp/3pecC00.pdb
 237 228 0 0 0
SMALL
GASTEIGER

@<TRIPOS>ATOM
      1  N         50.6310   48.6740   35.4470 N.3    33  LEU33      -0.1245
      2  CA        51.0540   47.6070   36.3450 C.3    33  LEU33       0.1561
      3  C         52.5710   47.6710   36.4950 C.2    33  LEU33       0.2260
      4  O         53.2930   47.6850   35.4930 O.2    33  LEU33      -0.2867
      5  CB        50.6430   46.2470   35.7650 C.3    33  LEU33       0.0270
      6  CG        50.2160   45.1170   36.7080 C.3    33  LEU33       0.0019
      7  CD1       50.3530   43.7730   35.9880 C.3    33  LEU33       0.0001
      8  CD2       50.9980   45.1030   38.0080 C.3    33  LEU33       0.0001
      9  N         58.1910   44.0500   41.2460 N.3    36  ASN36      -0.1225
     10  CA        59.4510   43.3110   41.1470 C.3    36  ASN36       0.1785
     11  C         59.3190   41.9300   40.5000 C.2    36  ASN36       0.2597
     12  O         60.3260   41.3100   40.1780 O.2    36  ASN36      -0.2718
     13  CB        60.1700   43.2260   42.5070 C.3    36  ASN36       0.1169
     14  CG        59.3720   42.4830   43.5730 C.2    36  ASN36       0.2627
     15  OD1       58.2080   42.1270   43.3800 O.2    36  ASN36      -0.2716
     16  ND2       60.0070   42.2540   44.7150 N.am   36  ASN36      -0.0877
     17  N         58.0860   41.4620   40.3090 N.am   37  ALA37      -0.1966
     18  CA        57.8110   40.2330   39.5600 C.3    37  ALA37       0.1728
     19  C         57.1320   40.5210   38.2130 C.2    37  ALA37       0.2616
     20  O         56.6860   39.5950   37.5320 O.2    37  ALA37      -0.2715
     21  CB        56.9440   39.2980   40.3910 C.3    37  ALA37       0.0334
     22  N         57.0510   41.7980   37.8380 N.am   38  ILE38      -0.1977
     23  CA        56.4590   42.2110   36.5670 C.3    38  ILE38       0.1596
     24  C         57.5710   42.5720   35.5850 C.2    38  ILE38       0.2287
     25  O         58.4880   43.3140   35.9330 O.2    38  ILE38      -0.2864
     26  CB        55.5420   43.4500   36.7420 C.3    38  ILE38       0.0276
     27  CG1       54.4600   43.1930   37.7980 C.3    38  ILE38       0.0022
     28  CG2       54.8990   43.8370   35.4160 C.3    38  ILE38       0.0022
     29  CD1       53.4750   42.1100   37.4230 C.3    38  ILE38       0.0001
     30  N         51.3020   42.1970   28.1340 N.3    46  GLN46      -0.1245
     31  CA        50.3110   42.0150   29.1930 C.3    46  GLN46       0.1566
     32  C         48.9620   42.5530   28.7260 C.2    46  GLN46       0.2260
     33  O         48.8780   43.6710   28.2190 O.2    46  GLN46      -0.2867
     34  CB        50.7580   42.7390   30.4710 C.3    46  GLN46       0.0367
     35  CG        49.7310   42.7660   31.6070 C.3    46  GLN46       0.0905
     36  CD        49.4500   41.3930   32.1830 C.2    46  GLN46       0.2608
     37  OE1       50.3430   40.7440   32.7280 O.2    46  GLN46      -0.2717
     38  NE2       48.2010   40.9480   32.0770 N.am   46  GLN46      -0.0878
     39  N         43.3290   43.6400   32.4360 N.3    49  TYR49      -0.1241
     40  CA        42.3500   42.9300   33.2470 C.3    49  TYR49       0.1605
     41  C         41.6470   43.9420   34.1450 C.2    49  TYR49       0.2264
     42  O         42.0680   45.0990   34.2360 O.2    49  TYR49      -0.2867
     43  CB        43.0200   41.8230   34.0660 C.3    49  TYR49       0.0534
     44  CG        43.9640   42.3010   35.1440 C.ar   49  TYR49      -0.0201
     45  CD1       45.2730   42.6510   34.8400 C.ar   49  TYR49      -0.0009
     46  CD2       43.5530   42.3800   36.4720 C.ar   49  TYR49      -0.0009
     47  CE1       46.1430   43.0850   35.8240 C.ar   49  TYR49       0.0417
     48  CE2       44.4180   42.8090   37.4670 C.ar   49  TYR49       0.0417
     49  CZ        45.7110   43.1620   37.1350 C.ar   49  TYR49       0.1957
     50  OH        46.5750   43.5890   38.1130 O.3    49  TYR49      -0.2866
     51  N         39.4340   44.6130   38.0320 N.3    51  THR51      -0.1218
     52  CA        39.2460   44.1760   39.4070 C.3    51  THR51       0.1862
     53  C         38.0280   44.8780   39.9900 C.2    51  THR51       0.2287
     54  O         37.9340   46.1060   39.9500 O.2    51  THR51      -0.2866
     55  CB        40.4920   44.4760   40.2610 C.3    51  THR51       0.1770
     56  OG1       41.6270   43.8140   39.6920 O.3    51  THR51      -0.2211
     57  CG2       40.2950   44.0030   41.6970 C.3    51  THR51       0.0375
     58  N         35.6200   45.6660   43.2350 N.3    53  TYR53      -0.1241
     59  CA        35.5830   45.7490   44.6930 C.3    53  TYR53       0.1605
     60  C         34.1420   45.8990   45.1510 C.2    53  TYR53       0.2264
     61  O         33.4780   46.8710   44.7960 O.2    53  TYR53      -0.2867
     62  CB        36.3960   46.9440   45.1880 C.3    53  TYR53       0.0534
     63  CG        37.8920   46.7700   45.0740 C.ar   53  TYR53      -0.0201
     64  CD1       38.6700   46.4990   46.1980 C.ar   53  TYR53      -0.0009
     65  CD2       38.5330   46.8860   43.8430 C.ar   53  TYR53      -0.0009
     66  CE1       40.0480   46.3460   46.0970 C.ar   53  TYR53       0.0417
     67  CE2       39.9090   46.7320   43.7320 C.ar   53  TYR53       0.0417
     68  CZ        40.6590   46.4610   44.8610 C.ar   53  TYR53       0.1957
     69  OH        42.0200   46.3070   44.7510 O.3    53  TYR53      -0.2866
     70  N         36.7130   40.8330   46.5110 N.3    63  VAL63      -0.1245
     71  CA        37.5120   41.3140   45.3860 C.3    63  VAL63       0.1561
     72  C         37.5790   40.2710   44.2780 C.2    63  VAL63       0.2260
     73  O         38.0200   39.1430   44.5070 O.2    63  VAL63      -0.2867
     74  CB        38.9340   41.6830   45.8430 C.3    63  VAL63       0.0252
     75  CG1       39.7150   42.3360   44.7070 C.3    63  VAL63       0.0019
     76  CG2       38.8720   42.6130   47.0540 C.3    63  VAL63       0.0019
     77  N         38.9520   39.6580   40.3280 N.3    65  SER65      -0.1217
     78  CA        39.7390   40.0710   39.1700 C.3    65  SER65       0.1889
     79  C         39.4080   39.1800   37.9810 C.2    65  SER65       0.2288
     80  O         39.2310   37.9750   38.1400 O.2    65  SER65      -0.2866
     81  CB        41.2330   40.0140   39.4780 C.3    65  SER65       0.2089
     82  OG        41.6020   41.0800   40.3310 O.3    65  SER65      -0.2183
     83  N         40.4500   38.2510   33.8800 N.3    67  LEU67      -0.1245
     84  CA        41.4970   38.3160   32.8570 C.3    67  LEU67       0.1561
     85  C         41.1670   37.3800   31.6880 C.2    67  LEU67       0.2260
     86  O         40.7140   36.2550   31.8970 O.2    67  LEU67      -0.2867
     87  CB        42.8420   37.9070   33.4740 C.3    67  LEU67       0.0270
     88  CG        44.1600   38.4680   32.9180 C.3    67  LEU67       0.0019
     89  CD1       45.3280   37.5880   33.3630 C.3    67  LEU67       0.0001
     90  CD2       44.1630   38.6080   31.4000 C.3    67  LEU67       0.0001
     91  N         42.6680   35.0100   29.3430 N.3    69  ARG69      -0.1245
     92  CA        43.8950   34.2160   29.2790 C.3    69  ARG69       0.1563
     93  C         43.6030   32.8420   28.6830 C.2    69  ARG69       0.2260
     94  O         42.6970   32.1440   29.1410 O.2    69  ARG69      -0.2867
     95  CB        44.4890   34.0580   30.6830 C.3    69  ARG69       0.0307
     96  CG        45.6870   33.1230   30.7680 C.3    69  ARG69       0.0489
     97  CD        46.1550   33.0750   32.1920 C.3    69  ARG69       0.2205
     98  NE        47.2300   32.0630   32.3450 N.pl3  69  ARG69      -0.0865
     99  CZ        47.6100   31.5920   33.5090 C.cat  69  ARG69       0.5346
    100  NH1       46.9730   31.9830   34.6480 N.pl3  69  ARG69       0.1354
    101  NH2       48.6230   30.7280   33.6150 N.pl3  69  ARG69       0.1354
    102  N         39.5400   35.4450   39.6820 N.3    76  TRP76      -0.1241
    103  CA        40.2130   35.2730   40.9650 C.3    76  TRP76       0.1605
    104  C         39.4290   36.0580   42.0080 C.2    76  TRP76       0.2264
    105  O         39.2990   37.2780   41.8960 O.2    76  TRP76      -0.2867
    106  CB        41.6490   35.8020   40.9020 C.3    76  TRP76       0.0550
    107  CG        42.4760   35.2170   39.7990 C.ar   76  TRP76       0.0003
    108  CD1       42.3520   35.4610   38.4600 C.ar   76  TRP76       0.0946
    109  CD2       43.5740   34.3080   39.9410 C.ar   76  TRP76       0.0152
    110  NE1       43.2950   34.7470   37.7580 N.ar   76  TRP76      -0.2442
    111  CE2       44.0600   34.0350   38.6440 C.ar   76  TRP76       0.0810
    112  CE3       44.1920   33.6970   41.0380 C.ar   76  TRP76       0.0012
    113  CZ2       45.1350   33.1750   38.4140 C.ar   76  TRP76       0.0191
    114  CZ3       45.2620   32.8420   40.8090 C.ar   76  TRP76       0.0001
    115  CH2       45.7210   32.5880   39.5060 C.ar   76  TRP76       0.0015
    116  N         38.9540   37.0670   46.0480 N.3    78  ARG78      -0.1245
    117  CA        39.6200   37.1600   47.3470 C.3    78  ARG78       0.1563
    118  C         38.8980   38.1210   48.2830 C.2    78  ARG78       0.2260
    119  O         38.0440   38.8990   47.8530 O.2    78  ARG78      -0.2867
    120  CB        41.0780   37.5920   47.1580 C.3    78  ARG78       0.0307
    121  CG        42.0350   36.4130   46.9980 C.3    78  ARG78       0.0489
    122  CD        43.0260   36.6220   45.8760 C.3    78  ARG78       0.2205
    123  NE        43.8790   35.4470   45.6780 N.pl3  78  ARG78      -0.0865
    124  CZ        43.4990   34.3090   45.0950 C.cat  78  ARG78       0.5346
    125  NH1       42.2590   34.1470   44.6380 N.pl3  78  ARG78       0.1354
    126  NH2       44.3690   33.3100   44.9760 N.pl3  78  ARG78       0.1354
    127  N         39.4770   41.1320   51.0810 N.3    80  PHE80      -0.1241
    128  CA        40.3470   42.1410   51.6770 C.3    80  PHE80       0.1605
    129  C         39.7230   42.6170   52.9840 C.2    80  PHE80       0.2264
    130  O         38.6500   43.2210   52.9810 O.2    80  PHE80      -0.2867
    131  CB        40.5410   43.3360   50.7330 C.3    80  PHE80       0.0534
    132  CG        41.4450   43.0690   49.5420 C.ar   80  PHE80      -0.0203
    133  CD1       41.6870   44.0870   48.6240 C.ar   80  PHE80      -0.0042
    134  CD2       42.0390   41.8250   49.3220 C.ar   80  PHE80      -0.0042
    135  CE1       42.5080   43.8810   47.5240 C.ar   80  PHE80      -0.0003
    136  CE2       42.8610   41.6130   48.2200 C.ar   80  PHE80      -0.0003
    137  CZ        43.0950   42.6410   47.3210 C.ar   80  PHE80      -0.0000
    138  N         44.7120   40.0840   53.8680 N.3    91  LEU91      -0.1245
    139  CA        44.0010   39.0460   53.1270 C.3    91  LEU91       0.1561
    140  C         43.1980   38.1780   54.0860 C.2    91  LEU91       0.2260
    141  O         43.7300   37.6860   55.0830 O.2    91  LEU91      -0.2867
    142  CB        44.9860   38.1750   52.3460 C.3    91  LEU91       0.0270
    143  CG        44.4030   37.2280   51.2940 C.3    91  LEU91       0.0019
    144  CD1       43.7460   37.9950   50.1560 C.3    91  LEU91       0.0001
    145  CD2       45.4920   36.3200   50.7560 C.3    91  LEU91       0.0001
    146  N         50.5580   39.4790   53.5240 N.3   103  TYR103     -0.1241
    147  CA        49.8170   40.1370   52.4600 C.3   103  TYR103      0.1605
    148  C         49.3070   41.4930   52.9300 C.2   103  TYR103      0.2264
    149  O         48.5780   41.5820   53.9100 O.2   103  TYR103     -0.2867
    150  CB        48.6470   39.2690   51.9950 C.3   103  TYR103      0.0534
    151  CG        48.0680   39.7160   50.6750 C.ar  103  TYR103     -0.0201
    152  CD1       47.0110   40.6170   50.6250 C.ar  103  TYR103     -0.0009
    153  CD2       48.5880   39.2500   49.4750 C.ar  103  TYR103     -0.0009
    154  CE1       46.4790   41.0300   49.4190 C.ar  103  TYR103      0.0417
    155  CE2       48.0660   39.6610   48.2620 C.ar  103  TYR103      0.0417
    156  CZ        47.0110   40.5530   48.2410 C.ar  103  TYR103      0.1957
    157  OH        46.4830   40.9660   47.0420 O.3   103  TYR103     -0.2866
    158  N         50.6420   46.7560   46.6480 N.3   120  PHE120     -0.1227
    159  CA        50.4540   45.4070   47.1670 C.3   120  PHE120      0.1736
    160  C         51.8060   44.8540   47.5850 C.2   120  PHE120      0.2595
    161  O         52.7890   45.0200   46.8640 O.2   120  PHE120     -0.2718
    162  CB        49.8640   44.4890   46.0960 C.3   120  PHE120      0.0547
    163  CG        48.5270   44.9300   45.5820 C.ar  120  PHE120     -0.0202
    164  CD1       47.3650   44.2950   45.9960 C.ar  120  PHE120     -0.0042
    165  CD2       48.4290   45.9750   44.6700 C.ar  120  PHE120     -0.0042
    166  CE1       46.1290   44.6940   45.5140 C.ar  120  PHE120     -0.0003
    167  CE2       47.1950   46.3820   44.1910 C.ar  120  PHE120     -0.0003
    168  CZ        46.0440   45.7370   44.6090 C.ar  120  PHE120     -0.0000
    169  N         51.8520   44.1980   48.7410 N.am  121  LYS121     -0.1966
    170  CA        53.0670   43.5350   49.2040 C.3   121  LYS121      0.1728
    171  C         52.7060   42.1780   49.7850 C.2   121  LYS121      0.2616
    172  O         51.7640   42.0680   50.5660 O.2   121  LYS121     -0.2715
    173  CB        53.7730   44.3850   50.2590 C.3   121  LYS121      0.0311
    174  CG        55.2010   43.9530   50.5470 C.3   121  LYS121      0.0038
    175  CD        55.8580   44.8530   51.5940 C.3   121  LYS121      0.0206
    176  CE        55.4550   44.4630   53.0100 C.3   121  LYS121      0.1093
    177  NZ        55.8920   43.0730   53.3530 N.3   121  LYS121     -0.1314
    178  N         53.4460   41.1450   49.3960 N.am  122  LYS122     -0.1977
    179  CA        53.2040   39.8060   49.9160 C.3   122  LYS122      0.1596
    180  C         54.5000   39.0320   50.0770 C.2   122  LYS122      0.2287
    181  O         55.4840   39.2970   49.3870 O.2   122  LYS122     -0.2864
    182  CB        52.2360   39.0370   49.0070 C.3   122  LYS122      0.0298
    183  CG        52.7940   38.6720   47.6350 C.3   122  LYS122      0.0038
    184  CD        51.8000   37.8320   46.8440 C.3   122  LYS122      0.0206
    185  CE        52.3900   37.3600   45.5280 C.3   122  LYS122      0.1093
    186  NZ        51.3450   36.7800   44.6400 N.3   122  LYS122     -0.1314
    187  N         57.4450   40.0040   47.3690 N.3   129  TYR129     -0.1227
    188  CA        57.0470   40.6520   46.1300 C.3   129  TYR129      0.1736
    189  C         56.2690   41.9150   46.4430 C.2   129  TYR129      0.2595
    190  O         55.5750   41.9920   47.4610 O.2   129  TYR129     -0.2718
    191  CB        56.1650   39.7280   45.2870 C.3   129  TYR129      0.0548
    192  CG        56.8070   38.4080   44.9360 C.ar  129  TYR129     -0.0200
    193  CD1       56.5230   37.2580   45.6680 C.ar  129  TYR129     -0.0009
    194  CD2       57.6960   38.3070   43.8740 C.ar  129  TYR129     -0.0009
    195  CE1       57.1120   36.0390   45.3480 C.ar  129  TYR129      0.0417
    196  CE2       58.2910   37.0950   43.5470 C.ar  129  TYR129      0.0417
    197  CZ        57.9930   35.9650   44.2890 C.ar  129  TYR129      0.1957
    198  OH        58.5780   34.7630   43.9720 O.3   129  TYR129     -0.2866
    199  N         56.3820   42.9040   45.5630 N.am  130  PHE130     -0.1962
    200  CA        55.5080   44.0640   45.6190 C.3   130  PHE130      0.1771
    201  C         55.0590   44.4700   44.2260 C.2   130  PHE130      0.2619
    202  O         55.6900   44.1330   43.2180 O.2   130  PHE130     -0.2715
    203  CB        56.1580   45.2360   46.3610 C.3   130  PHE130      0.0574
    204  CG        57.2770   45.9050   45.6070 C.ar  130  PHE130     -0.0200
    205  CD1       58.5320   45.3150   45.5320 C.ar  130  PHE130     -0.0042
    206  CD2       57.0860   47.1420   45.0070 C.ar  130  PHE130     -0.0042
    207  CE1       59.5720   45.9370   44.8480 C.ar  130  PHE130     -0.0003
    208  CE2       58.1210   47.7700   44.3230 C.ar  130  PHE130     -0.0003
    209  CZ        59.3630   47.1650   44.2430 C.ar  130  PHE130     -0.0000
    210  N         53.9540   45.1990   44.1880 N.am  131  LYS131     -0.1977
    211  CA        53.3320   45.5890   42.9420 C.3   131  LYS131      0.1596
    212  C         52.5320   46.8630   43.1570 C.2   131  LYS131      0.2287
    213  O         52.0110   47.0990   44.2500 O.2   131  LYS131     -0.2864
    214  CB        52.4590   44.4340   42.4380 C.3   131  LYS131      0.0298
    215  CG        51.1330   44.8040   41.7950 C.3   131  LYS131      0.0038
    216  CD        50.3600   43.5370   41.4390 C.3   131  LYS131      0.0206
    217  CE        48.8680   43.6820   41.6850 C.3   131  LYS131      0.1093
    218  NZ        48.2530   42.3890   42.0900 N.3   131  LYS131     -0.1314
    219  N         49.4080   48.9650   41.1470 N.3   133  THR133     -0.1218
    220  CA        48.4400   49.0030   40.0620 C.3   133  THR133      0.1862
    221  C         47.9890   50.4300   39.8300 C.2   133  THR133      0.2287
    222  O         47.7570   51.1800   40.7800 O.2   133  THR133     -0.2866
    223  CB        47.2080   48.1380   40.3610 C.3   133  THR133      0.1770
    224  OG1       46.5600   48.6150   41.5490 O.3   133  THR133     -0.2211
    225  CG2       47.6130   46.6850   40.5380 C.3   133  THR133      0.0375
    226  N         44.8930   52.0590   38.5560 N.3   135  TYR135     -0.1241
    227  CA        43.4960   51.7520   38.2960 C.3   135  TYR135      0.1605
    228  C         42.8300   52.8940   37.5310 C.2   135  TYR135      0.2264
    229  O         43.0350   54.0640   37.8480 O.2   135  TYR135     -0.2867
    230  CB        42.7270   51.5330   39.6060 C.3   135  TYR135      0.0534
    231  CG        42.9000   50.1970   40.3110 C.ar  135  TYR135     -0.0201
    232  CD1       43.2350   49.0320   39.6220 C.ar  135  TYR135     -0.0009
    233  CD2       42.6530   50.0960   41.6790 C.ar  135  TYR135     -0.0009
    234  CE1       43.3590   47.8110   40.2900 C.ar  135  TYR135      0.0417
    235  CE2       42.7740   48.8860   42.3500 C.ar  135  TYR135      0.0417
    236  CZ        43.1240   47.7490   41.6540 C.ar  135  TYR135      0.1957
    237  OH        43.2330   46.5560   42.3310 O.3   135  TYR135     -0.2866
@<TRIPOS>BOND
     1    30    31    1
     2    33    32    2
     3    93    94    2
     4    93    92    1
     5    32    31    1
     6    31    34    1
     7    92    91    1
     8    92    95    1
     9    34    35    1
    10    95    96    1
    11    96    97    1
    12    90    88    1
    13    35    36    1
    14    85    86    2
    15    85    84    1
    16    38    36   am
    17    36    37    2
    18    97    98    1
    19    98    99    2
    20    39    40    1
    21    84    87    1
    22    84    83    1
    23    88    89    1
    24    88    87    1
    25    40    43    1
    26    40    41    1
    27    99   101    1
    28    99   100    1
    29    43    44    1
    30    41    42    2
    31    45    44   ar
    32    45    47   ar
    33    44    46   ar
    34    28    26    1
    35     1     2    1
    36     4     3    2
    37    24    25    2
    38    24    23    1
    39     5     2    1
    40     5     6    1
    41    47    49   ar
    42     7     6    1
    43     2     3    1
    44    46    48   ar
    45    23    26    1
    46    23    22    1
    47     6     8    1
    48    26    27    1
    49    49    48   ar
    50    49    50    1
    51    29    27    1
    52   228   229    2
    53   228   227    1
    54    20    19    2
    55   110   108   ar
    56   110   111   ar
    57    22    19   am
    58    79    80    2
    59    79    78    1
    60    51    52    1
    61    19    18    1
    62   227   226    1
    63   227   230    1
    64   113   111   ar
    65   113   115   ar
    66   108   107   ar
    67   111   109   ar
    68    78    81    1
    69    78    77    1
    70    52    53    1
    71    52    55    1
    72    81    82    1
    73   115   114   ar
    74    18    17    1
    75    18    21    1
    76   230   231    1
    77   232   234   ar
    78   232   231   ar
    79   102   103    1
    80    56    55    1
    81   107   109   ar
    82   107   106    1
    83   221   220    1
    84   221   222    2
    85   109   112   ar
    86    54    53    2
    87   220   223    1
    88   220   219    1
    89    12    11    2
    90    55    57    1
    91   234   236   ar
    92    17    11   am
    93   231   233   ar
    94   223   225    1
    95   223   224    1
    96    11    10    1
    97   114   112   ar
    98   106   103    1
    99   103   104    1
   100    10     9    1
   101    10    13    1
   102   216   217    1
   103   216   215    1
   104   236   237    1
   105   236   235   ar
   106   233   235   ar
   107   217   218    1
   108   215   214    1
   109   105   104    2
   110   214   211    1
   111    13    14    1
   112   211   212    1
   113   211   210    1
   114   212   213    2
   115   202   201    2
   116    58    59    1
   117    15    14    2
   118   196   194   ar
   119   196   197   ar
   120    14    16   am
   121    67    65   ar
   122    67    68   ar
   123    65    63   ar
   124   194   192   ar
   125   198   197    1
   126   210   201   am
   127   167   168   ar
   128   167   165   ar
   129   201   200    1
   130   209   208   ar
   131   209   207   ar
   132    72    73    2
   133    72    71    1
   134   197   195   ar
   135   208   206   ar
   136   168   166   ar
   137   125   124    1
   138   186   185    1
   139   165   163   ar
   140    59    60    1
   141    59    62    1
   142    75    74    1
   143    69    68    1
   144    61    60    2
   145   207   205   ar
   146    68    66   ar
   147   192   191    1
   148   192   193   ar
   149   126   124    1
   150   206   204   ar
   151    63    62    1
   152    63    64   ar
   153   124   123    2
   154   191   188    1
   155   195   193   ar
   156    71    74    1
   157    71    70    1
   158   166   164   ar
   159   185   184    1
   160   205   204   ar
   161   199   200    1
   162   199   189   am
   163   163   164   ar
   164   163   162    1
   165   204   203    1
   166   200   203    1
   167   123   122    1
   168    74    76    1
   169   122   121    1
   170   116   117    1
   171   162   159    1
   172    66    64   ar
   173   188   189    1
   174   188   187    1
   175   189   190    2
   176   158   159    1
   177   184   183    1
   178   161   160    2
   179   121   120    1
   180   157   156    1
   181   120   117    1
   182   159   160    1
   183   137   135   ar
   184   137   136   ar
   185   117   118    1
   186   135   133   ar
   187   160   169   am
   188   183   182    1
   189   119   118    2
   190   136   134   ar
   191   156   155   ar
   192   156   154   ar
   193   155   153   ar
   194   133   132   ar
   195   169   170    1
   196   182   179    1
   197   170   171    1
   198   170   173    1
   199   134   132   ar
   200   181   180    2
   201   178   171   am
   202   178   179    1
   203   154   152   ar
   204   153   151   ar
   205   132   131    1
   206   171   172    2
   207   179   180    1
   208   144   143    1
   209   173   174    1
   210   174   175    1
   211   152   151   ar
   212   151   150    1
   213   131   128    1
   214   145   143    1
   215   127   128    1
   216   143   142    1
   217   175   176    1
   218   128   129    1
   219   150   147    1
   220   142   139    1
   221   147   148    1
   222   147   146    1
   223   148   149    2
   224   130   129    2
   225   176   177    1
   226   139   138    1
   227   139   140    1
   228   140   141    2
