@<TRIPOS>MOLECULE
tmp/3pedA00.pdb
 221 214 0 0 0
SMALL
GASTEIGER

@<TRIPOS>ATOM
      1  N         29.8230   86.2510   58.7990 N.3    38  ASN38      -0.1225
      2  CA        29.7360   87.6080   59.3590 C.3    38  ASN38       0.1785
      3  C         30.3380   87.7380   60.7660 C.2    38  ASN38       0.2597
      4  O         30.6260   88.8540   61.2080 O.2    38  ASN38      -0.2718
      5  CB        28.2990   88.1880   59.2860 C.3    38  ASN38       0.1169
      6  CG        27.2710   87.4220   60.1200 C.2    38  ASN38       0.2627
      7  OD1       27.5670   86.4200   60.7560 O.2    38  ASN38      -0.2716
      8  ND2       26.0410   87.9050   60.0960 N.am   38  ASN38      -0.0877
      9  N         30.5660   86.6030   61.4350 N.am   39  ALA39      -0.1966
     10  CA        31.3190   86.5730   62.7030 C.3    39  ALA39       0.1728
     11  C         32.6860   85.8700   62.5870 C.2    39  ALA39       0.2616
     12  O         33.3260   85.6010   63.6000 O.2    39  ALA39      -0.2715
     13  CB        30.4910   85.9150   63.8030 C.3    39  ALA39       0.0334
     14  N         33.1110   85.5600   61.3630 N.am   40  ILE40      -0.1977
     15  CA        34.4600   85.0780   61.0960 C.3    40  ILE40       0.1596
     16  C         35.3970   86.2520   60.7720 C.2    40  ILE40       0.2287
     17  O         35.1080   87.0600   59.9020 O.2    40  ILE40      -0.2864
     18  CB        34.4730   84.0900   59.9100 C.3    40  ILE40       0.0276
     19  CG1       33.5360   82.9010   60.1740 C.3    40  ILE40       0.0022
     20  CG2       35.8850   83.6060   59.6330 C.3    40  ILE40       0.0022
     21  CD1       33.8720   82.1130   61.4250 C.3    40  ILE40       0.0001
     22  N         43.6060   80.7980   62.6710 N.3    48  GLN48      -0.1245
     23  CA        42.7010   79.6970   62.9390 C.3    48  GLN48       0.1566
     24  C         43.3280   78.3440   62.5460 C.2    48  GLN48       0.2260
     25  O         43.8280   78.1770   61.4360 O.2    48  GLN48      -0.2867
     26  CB        41.3920   79.9450   62.1790 C.3    48  GLN48       0.0367
     27  CG        40.4000   78.7800   62.1350 C.3    48  GLN48       0.0905
     28  CD        39.6580   78.5900   63.4320 C.2    48  GLN48       0.2608
     29  OE1       39.2200   79.5580   64.0500 O.2    48  GLN48      -0.2717
     30  NE2       39.4990   77.3370   63.8540 N.am   48  GLN48      -0.0878
     31  N         39.9610   72.3730   61.7410 N.3    51  TYR51      -0.1241
     32  CA        39.1920   71.4320   62.5390 C.3    51  TYR51       0.1605
     33  C         38.4060   70.5150   61.5970 C.2    51  TYR51       0.2264
     34  O         38.4060   70.7190   60.3830 O.2    51  TYR51      -0.2867
     35  CB        38.2950   72.1630   63.5530 C.3    51  TYR51       0.0534
     36  CG        37.1660   72.9840   62.9690 C.ar   51  TYR51      -0.0201
     37  CD1       37.3700   74.2990   62.5650 C.ar   51  TYR51      -0.0009
     38  CD2       35.8800   72.4520   62.8570 C.ar   51  TYR51      -0.0009
     39  CE1       36.3330   75.0540   62.0440 C.ar   51  TYR51       0.0417
     40  CE2       34.8360   73.2020   62.3380 C.ar   51  TYR51       0.0417
     41  CZ        35.0690   74.5010   61.9340 C.ar   51  TYR51       0.1957
     42  OH        34.0460   75.2430   61.4130 O.3    51  TYR51      -0.2866
     43  N         34.7450   67.9680   60.9680 N.3    53  THR53      -0.1218
     44  CA        33.3560   67.7540   61.2860 C.3    53  THR53       0.1862
     45  C         32.9280   66.4140   60.6970 C.2    53  THR53       0.2287
     46  O         33.0690   66.1940   59.5090 O.2    53  THR53      -0.2866
     47  CB        32.4800   68.9240   60.7500 C.3    53  THR53       0.1770
     48  OG1       32.8800   70.1440   61.3870 O.3    53  THR53      -0.2211
     49  CG2       31.0250   68.6890   61.0430 C.3    53  THR53       0.0375
     50  N         29.9630   63.5980   59.9520 N.3    55  TYR55      -0.1241
     51  CA        28.5280   63.4100   59.7310 C.3    55  TYR55       0.1605
     52  C         28.1710   61.9250   59.7010 C.2    55  TYR55       0.2264
     53  O         28.5520   61.2120   58.7760 O.2    55  TYR55      -0.2867
     54  CB        28.0990   64.0420   58.4030 C.3    55  TYR55       0.0534
     55  CG        28.1060   65.5620   58.3690 C.ar   55  TYR55      -0.0201
     56  CD1       26.9150   66.2870   58.3920 C.ar   55  TYR55      -0.0009
     57  CD2       29.3050   66.2740   58.2930 C.ar   55  TYR55      -0.0009
     58  CE1       26.9220   67.6910   58.3600 C.ar   55  TYR55       0.0417
     59  CE2       29.3230   67.6500   58.2460 C.ar   55  TYR55       0.0417
     60  CZ        28.1240   68.3580   58.2840 C.ar   55  TYR55       0.1957
     61  OH        28.1540   69.7240   58.2360 O.3    55  TYR55      -0.2866
     62  N         26.1950   64.9230   64.3840 N.3    65  VAL65      -0.1245
     63  CA        27.2610   65.7840   63.8850 C.3    65  VAL65       0.1561
     64  C         28.2400   66.1150   65.0020 C.2    65  VAL65       0.2260
     65  O         27.8470   66.7140   66.0110 O.2    65  VAL65      -0.2867
     66  CB        26.6950   67.1010   63.2910 C.3    65  VAL65       0.0252
     67  CG1       27.8170   67.9640   62.6760 C.3    65  VAL65       0.0019
     68  CG2       25.5830   66.8080   62.2620 C.3    65  VAL65       0.0019
     69  N         32.0480   67.8340   65.8230 N.3    67  SER67      -0.1217
     70  CA        33.1880   68.6280   65.4010 C.3    67  SER67       0.1889
     71  C         34.3320   68.4280   66.3790 C.2    67  SER67       0.2288
     72  O         34.1060   68.2990   67.5770 O.2    67  SER67      -0.2866
     73  CB        32.7950   70.1030   65.2970 C.3    67  SER67       0.2089
     74  OG        32.0020   70.3190   64.1410 O.3    67  SER67      -0.2183
     75  N         38.2450   69.9260   67.4640 N.3    69  LEU69      -0.1245
     76  CA        39.1980   71.0230   67.3930 C.3    69  LEU69       0.1561
     77  C         40.3240   70.7970   68.3760 C.2    69  LEU69       0.2260
     78  O         40.0910   70.2690   69.4670 O.2    69  LEU69      -0.2867
     79  CB        38.5630   72.3440   67.8200 C.3    69  LEU69       0.0270
     80  CG        37.2630   72.8990   67.2620 C.3    69  LEU69       0.0019
     81  CD1       36.0700   71.9380   67.3420 C.3    69  LEU69       0.0001
     82  CD2       36.9750   74.1730   68.0300 C.3    69  LEU69       0.0001
     83  N         42.6610   72.5520   70.9880 N.3    71  ARG71      -0.1245
     84  CA        42.6510   73.7880   71.7600 C.3    71  ARG71       0.1563
     85  C         43.1300   73.5740   73.1960 C.2    71  ARG71       0.2260
     86  O         42.6260   72.7030   73.9030 O.2    71  ARG71      -0.2867
     87  CB        41.2300   74.3680   71.7410 C.3    71  ARG71       0.0307
     88  CG        41.0290   75.4030   72.8580 C.3    71  ARG71       0.0489
     89  CD        39.6110   75.9190   72.7740 C.3    71  ARG71       0.2205
     90  NE        39.1980   76.7430   73.8810 N.pl3  71  ARG71      -0.0865
     91  CZ        38.8210   76.3720   75.0990 C.cat  71  ARG71       0.5346
     92  NH1       38.7850   75.0850   75.4420 N.pl3  71  ARG71       0.1354
     93  NH2       38.4760   77.3150   75.9800 N.pl3  71  ARG71       0.1354
     94  N         32.3870   68.8740   69.9910 N.3    78  TRP78      -0.1241
     95  CA        31.0690   69.4890   69.9950 C.3    78  TRP78       0.1605
     96  C         30.1070   68.6140   69.2160 C.2    78  TRP78       0.2264
     97  O         30.3790   68.2920   68.0630 O.2    78  TRP78      -0.2867
     98  CB        31.1340   70.8590   69.3380 C.3    78  TRP78       0.0550
     99  CG        32.0330   71.8240   70.0350 C.ar   78  TRP78       0.0003
    100  CD1       33.4100   71.8320   70.0360 C.ar   78  TRP78       0.0946
    101  CD2       31.6260   72.9450   70.8240 C.ar   78  TRP78       0.0152
    102  NE1       33.8750   72.8880   70.7870 N.ar   78  TRP78      -0.2442
    103  CE2       32.8020   73.5890   71.2770 C.ar   78  TRP78       0.0810
    104  CE3       30.3790   73.4700   71.1920 C.ar   78  TRP78       0.0012
    105  CZ2       32.7650   74.7240   72.0810 C.ar   78  TRP78       0.0191
    106  CZ3       30.3400   74.5980   71.9900 C.ar   78  TRP78       0.0001
    107  CH2       31.5270   75.2170   72.4260 C.ar   78  TRP78       0.0015
    108  N         26.1020   67.9100   67.8010 N.3    80  ARG80      -0.1245
    109  CA        24.7610   68.4040   67.5160 C.3    80  ARG80       0.1563
    110  C         24.0400   67.4160   66.6060 C.2    80  ARG80       0.2260
    111  O         24.6670   66.5310   66.0290 O.2    80  ARG80      -0.2867
    112  CB        24.8060   69.7830   66.8540 C.3    80  ARG80       0.0307
    113  CG        25.3490   70.9320   67.7270 C.3    80  ARG80       0.0489
    114  CD        24.4680   71.2190   68.9310 C.3    80  ARG80       0.2205
    115  NE        24.9240   72.3770   69.7030 N.pl3  80  ARG80      -0.0865
    116  CZ        25.9500   72.3820   70.5610 C.cat  80  ARG80       0.5346
    117  NH1       26.6830   71.2910   70.7670 N.pl3  80  ARG80       0.1354
    118  NH2       26.2520   73.5000   71.2200 N.pl3  80  ARG80       0.1354
    119  N         21.5740   67.2210   63.2250 N.3    82  PHE82      -0.1241
    120  CA        20.9810   67.8720   62.0490 C.3    82  PHE82       0.1605
    121  C         19.7520   67.0900   61.5930 C.2    82  PHE82       0.2264
    122  O         19.8540   65.9360   61.1930 O.2    82  PHE82      -0.2867
    123  CB        21.9800   67.9810   60.8860 C.3    82  PHE82       0.0534
    124  CG        23.0680   69.0340   61.0740 C.ar   82  PHE82      -0.0203
    125  CD1       23.9700   69.2820   60.0500 C.ar   82  PHE82      -0.0042
    126  CD2       23.1800   69.7820   62.2380 C.ar   82  PHE82      -0.0042
    127  CE1       24.9660   70.2290   60.1880 C.ar   82  PHE82      -0.0003
    128  CE2       24.1770   70.7350   62.3740 C.ar   82  PHE82      -0.0003
    129  CZ        25.0680   70.9550   61.3470 C.ar   82  PHE82      -0.0000
    130  N         17.8280   78.0450   63.2350 N.3   105  TYR105     -0.1241
    131  CA        19.0250   77.3850   62.7030 C.3   105  TYR105      0.1605
    132  C         18.7490   76.6650   61.3820 C.2   105  TYR105      0.2264
    133  O         17.8730   75.8050   61.3060 O.2   105  TYR105     -0.2867
    134  CB        19.5730   76.4080   63.7310 C.3   105  TYR105      0.0534
    135  CG        21.0040   75.9710   63.4850 C.ar  105  TYR105     -0.0201
    136  CD1       21.2830   74.8550   62.7100 C.ar  105  TYR105     -0.0009
    137  CD2       22.0670   76.6620   64.0430 C.ar  105  TYR105     -0.0009
    138  CE1       22.5770   74.4430   62.4920 C.ar  105  TYR105      0.0417
    139  CE2       23.3680   76.2590   63.8390 C.ar  105  TYR105      0.0417
    140  CZ        23.6160   75.1500   63.0480 C.ar  105  TYR105      0.1957
    141  OH        24.8950   74.7250   62.8390 O.3   105  TYR105     -0.2866
    142  N         25.3440   78.0010   56.5130 N.3   122  PHE122     -0.1227
    143  CA        24.6660   77.9640   57.8050 C.3   122  PHE122      0.1736
    144  C         24.1310   79.3570   58.1600 C.2   122  PHE122      0.2595
    145  O         24.8390   80.3590   57.9970 O.2   122  PHE122     -0.2718
    146  CB        25.6200   77.5430   58.9170 C.3   122  PHE122      0.0547
    147  CG        26.3410   76.2460   58.6590 C.ar  122  PHE122     -0.0202
    148  CD1       25.9320   75.0790   59.2830 C.ar  122  PHE122     -0.0042
    149  CD2       27.4460   76.2060   57.8160 C.ar  122  PHE122     -0.0042
    150  CE1       26.5930   73.8990   59.0610 C.ar  122  PHE122     -0.0003
    151  CE2       28.1170   75.0230   57.5940 C.ar  122  PHE122     -0.0003
    152  CZ        27.6960   73.8730   58.2130 C.ar  122  PHE122     -0.0000
    153  N         22.9030   79.4090   58.6650 N.am  123  LYS123     -0.1966
    154  CA        22.3190   80.6510   59.1630 C.3   123  LYS123      0.1728
    155  C         21.6350   80.3850   60.4980 C.2   123  LYS123      0.2616
    156  O         20.8790   79.4250   60.6390 O.2   123  LYS123     -0.2715
    157  CB        21.3310   81.2130   58.1370 C.3   123  LYS123      0.0311
    158  CG        20.6860   82.5210   58.5350 C.3   123  LYS123      0.0038
    159  CD        19.7230   82.9910   57.4530 C.3   123  LYS123      0.0206
    160  CE        18.2820   83.0890   57.9680 C.3   123  LYS123      0.1093
    161  NZ        17.6900   81.7740   58.1240 N.3   123  LYS123     -0.1314
    162  N         21.8970   81.2250   61.4860 N.am  124  LYS124     -0.1977
    163  CA        21.1960   81.1070   62.7580 C.3   124  LYS124      0.1596
    164  C         20.8450   82.4520   63.3670 C.2   124  LYS124      0.2287
    165  O         21.4830   83.4640   63.0590 O.2   124  LYS124     -0.2864
    166  CB        22.0510   80.3180   63.7520 C.3   124  LYS124      0.0298
    167  CG        23.3810   80.9300   64.0440 C.3   124  LYS124      0.0038
    168  CD        24.0920   80.1410   65.1340 C.3   124  LYS124      0.0206
    169  CE        25.2880   80.8950   65.6540 C.3   124  LYS124      0.1093
    170  NZ        26.1200   80.0100   66.5010 N.3   124  LYS124     -0.1314
    171  N         23.3390   85.4240   62.3970 N.3   131  TYR131     -0.1227
    172  CA        24.6810   85.0480   61.9850 C.3   131  TYR131      0.1736
    173  C         24.6200   84.1220   60.7800 C.2   131  TYR131      0.2595
    174  O         23.6880   83.3240   60.6570 O.2   131  TYR131     -0.2718
    175  CB        25.4120   84.3350   63.1190 C.3   131  TYR131      0.0548
    176  CG        25.6580   85.1660   64.3800 C.ar  131  TYR131     -0.0200
    177  CD1       24.8310   85.0420   65.4920 C.ar  131  TYR131     -0.0009
    178  CD2       26.7370   86.0370   64.4660 C.ar  131  TYR131     -0.0009
    179  CE1       25.0620   85.7750   66.6480 C.ar  131  TYR131      0.0417
    180  CE2       26.9760   86.7770   65.6090 C.ar  131  TYR131      0.0417
    181  CZ        26.1360   86.6460   66.7030 C.ar  131  TYR131      0.1957
    182  OH        26.3680   87.3990   67.8520 O.3   131  TYR131     -0.2866
    183  N         25.5970   84.2270   59.8800 N.am  132  PHE132     -0.1962
    184  CA        25.7600   83.2100   58.8390 C.3   132  PHE132      0.1771
    185  C         27.2340   82.8230   58.6100 C.2   132  PHE132      0.2619
    186  O         28.1580   83.5900   58.9260 O.2   132  PHE132     -0.2715
    187  CB        25.0560   83.6200   57.5320 C.3   132  PHE132      0.0574
    188  CG        25.7380   84.7150   56.7470 C.ar  132  PHE132     -0.0200
    189  CD1       25.5860   86.0520   57.1070 C.ar  132  PHE132     -0.0042
    190  CD2       26.4450   84.4160   55.5830 C.ar  132  PHE132     -0.0042
    191  CE1       26.1770   87.0600   56.3680 C.ar  132  PHE132     -0.0003
    192  CE2       27.0550   85.4210   54.8310 C.ar  132  PHE132     -0.0003
    193  CZ        26.9290   86.7420   55.2190 C.ar  132  PHE132     -0.0000
    194  N         27.4440   81.6020   58.1150 N.am  133  LYS133     -0.1977
    195  CA        28.7670   81.1940   57.6410 C.3   133  LYS133      0.1596
    196  C         28.6850   80.2150   56.4670 C.2   133  LYS133      0.2287
    197  O         27.6400   79.6100   56.2030 O.2   133  LYS133     -0.2864
    198  CB        29.5950   80.5910   58.7790 C.3   133  LYS133      0.0298
    199  CG        29.1340   79.2450   59.2640 C.3   133  LYS133      0.0038
    200  CD        30.1430   78.6600   60.2310 C.3   133  LYS133      0.0206
    201  CE        29.7240   77.2670   60.6640 C.3   133  LYS133      0.1093
    202  NZ        30.5300   76.8550   61.8420 N.3   133  LYS133     -0.1314
    203  N         31.1630   77.0280   54.9270 N.3   135  THR135     -0.1218
    204  CA        32.3310   76.1790   55.0860 C.3   135  THR135      0.1862
    205  C         32.7190   75.5910   53.7470 C.2   135  THR135      0.2287
    206  O         31.8430   75.1690   52.9690 O.2   135  THR135     -0.2866
    207  CB        32.0810   75.0120   56.0560 C.3   135  THR135      0.1770
    208  OG1       30.9850   74.2280   55.5740 O.3   135  THR135     -0.2211
    209  CG2       31.7690   75.5250   57.4570 C.3   135  THR135      0.0375
    210  N         34.4150   72.4470   52.7200 N.3   137  TYR137     -0.1241
    211  CA        34.7820   71.1500   53.2570 C.3   137  TYR137      0.1605
    212  C         35.6970   70.3910   52.2870 C.2   137  TYR137      0.2264
    213  O         35.4860   70.3980   51.0610 O.2   137  TYR137     -0.2867
    214  CB        33.5530   70.2880   53.5210 C.3   137  TYR137      0.0534
    215  CG        32.7570   70.5600   54.7740 C.ar  137  TYR137     -0.0201
    216  CD1       33.3070   71.1730   55.8910 C.ar  137  TYR137     -0.0009
    217  CD2       31.4500   70.1250   54.8540 C.ar  137  TYR137     -0.0009
    218  CE1       32.5510   71.3690   57.0320 C.ar  137  TYR137      0.0417
    219  CE2       30.6910   70.3330   55.9710 C.ar  137  TYR137      0.0417
    220  CZ        31.2390   70.9480   57.0590 C.ar  137  TYR137      0.1957
    221  OH        30.4500   71.1100   58.1700 O.3   137  TYR137     -0.2866
@<TRIPOS>BOND
     1   213   212    2
     2   212   211    1
     3   210   211    1
     4   206   205    2
     5   211   214    1
     6   214   215    1
     7   205   204    1
     8   215   217   ar
     9   215   216   ar
    10   192   193   ar
    11   192   190   ar
    12   217   219   ar
    13   203   204    1
    14   204   207    1
    15   193   191   ar
    16   208   207    1
    17   190   188   ar
    18   216   218   ar
    19   219   220   ar
    20   207   209    1
    21   197   196    2
    22   191   189   ar
    23   196   195    1
    24   142   143    1
    25   188   189   ar
    26   188   187    1
    27   218   220   ar
    28   220   221    1
    29   159   160    1
    30   159   158    1
    31   187   184    1
    32   151   149   ar
    33   151   152   ar
    34   195   194    1
    35   195   198    1
    36   143   144    1
    37   143   146    1
    38   149   147   ar
    39   160   161    1
    40   145   144    2
    41   194   185   am
    42   157   158    1
    43   157   154    1
    44   144   153   am
    45   152   150   ar
    46    61    60    1
    47    59    60   ar
    48    59    57   ar
    49    60    58   ar
    50    57    55   ar
    51    58    56   ar
    52    55    56   ar
    53    55    54    1
    54    54    51    1
    55   185   184    1
    56   185   186    2
    57   147   146    1
    58   147   148   ar
    59   153   154    1
    60    53    52    2
    61   198   199    1
    62     1     2    1
    63   184   183    1
    64   150   148   ar
    65   154   155    1
    66   199   200    1
    67     5     2    1
    68     5     6    1
    69     2     3    1
    70    46    45    2
    71    20    18    1
    72    52    51    1
    73    51    50    1
    74   183   173   am
    75    17    16    2
    76    18    19    1
    77    18    15    1
    78   125   127   ar
    79   125   124   ar
    80     8     6   am
    81     6     7    2
    82    19    21    1
    83   127   129   ar
    84   200   201    1
    85    34    33    2
    86   155   156    2
    87   155   162   am
    88   174   173    2
    89   201   202    1
    90    45    44    1
    91    47    49    1
    92    47    44    1
    93    47    48    1
    94     3     4    2
    95     3     9   am
    96    16    15    1
    97   173   172    1
    98   123   124    1
    99   123   120    1
   100    43    44    1
   101   124   126   ar
   102    15    14    1
   103   122   121    2
   104   133   132    2
   105   129   128   ar
   106    14    11   am
   107   132   131    1
   108    42    41    1
   109     9    10    1
   110    25    24    2
   111   162   163    1
   112   121   120    1
   113    33    32    1
   114    31    32    1
   115    41    39   ar
   116    41    40   ar
   117   172   171    1
   118   172   175    1
   119    39    37   ar
   120   120   119    1
   121    27    26    1
   122    27    28    1
   123    26    23    1
   124   126   128   ar
   125    68    66    1
   126    40    38   ar
   127   138   136   ar
   128   138   140   ar
   129    32    35    1
   130    24    23    1
   131    37    36   ar
   132    11    10    1
   133    11    12    2
   134    22    23    1
   135    67    66    1
   136    10    13    1
   137   131   130    1
   138   131   134    1
   139   136   135   ar
   140   163   164    1
   141   163   166    1
   142   141   140    1
   143    38    36   ar
   144    36    35    1
   145   140   139   ar
   146   165   164    2
   147   175   176    1
   148    66    63    1
   149    28    30   am
   150    28    29    2
   151   135   134    1
   152   135   137   ar
   153   166   167    1
   154   139   137   ar
   155    63    62    1
   156    63    64    1
   157   167   168    1
   158    74    73    1
   159   176   178   ar
   160   176   177   ar
   161   178   180   ar
   162    64    65    2
   163   168   169    1
   164    73    70    1
   165    70    69    1
   166    70    71    1
   167   177   179   ar
   168   180   181   ar
   169   169   170    1
   170   111   110    2
   171    71    72    2
   172   110   109    1
   173   179   181   ar
   174   181   182    1
   175   112   109    1
   176   112   113    1
   177    80    81    1
   178    80    79    1
   179    80    82    1
   180    76    75    1
   181    76    79    1
   182    76    77    1
   183   109   108    1
   184   113   114    1
   185    97    96    2
   186    77    78    2
   187   114   115    1
   188    96    95    1
   189    98    95    1
   190    98    99    1
   191   115   116    2
   192    94    95    1
   193    99   100   ar
   194    99   101   ar
   195   100   102   ar
   196   116   117    1
   197   116   118    1
   198   102   103   ar
   199   101   104   ar
   200   101   103   ar
   201    83    84    1
   202   104   106   ar
   203   103   105   ar
   204    87    84    1
   205    87    88    1
   206    84    85    1
   207   106   107   ar
   208   105   107   ar
   209    89    88    1
   210    89    90    1
   211    85    86    2
   212    90    91    2
   213    91    92    1
   214    91    93    1
