@<TRIPOS>MOLECULE
tmp/3pefH01.pdb
 75 73 0 0 0
SMALL
GASTEIGER

@<TRIPOS>ATOM
      1  N        -37.8280   52.7570  -44.3930 N.3   183  PHE183     -0.1241
      2  CA       -37.7800   51.4440  -43.7540 C.3   183  PHE183      0.1605
      3  C        -36.3570   50.8640  -43.7730 C.2   183  PHE183      0.2264
      4  O        -35.8430   50.4130  -42.7470 O.2   183  PHE183     -0.2867
      5  CB       -38.7670   50.5190  -44.4750 C.3   183  PHE183      0.0534
      6  CG       -38.9000   49.1410  -43.8690 C.ar  183  PHE183     -0.0203
      7  CD1      -39.3180   48.9750  -42.5580 C.ar  183  PHE183     -0.0042
      8  CD2      -38.6550   48.0120  -44.6360 C.ar  183  PHE183     -0.0042
      9  CE1      -39.4670   47.7130  -42.0180 C.ar  183  PHE183     -0.0003
     10  CE2      -38.8020   46.7420  -44.0960 C.ar  183  PHE183     -0.0003
     11  CZ       -39.2170   46.5980  -42.7860 C.ar  183  PHE183     -0.0000
     12  N        -38.2290   44.5400  -36.4530 N.3   201  LEU201     -0.1231
     13  CA       -39.4110   44.0860  -37.1770 C.3   201  LEU201      0.1693
     14  C        -40.5340   43.8130  -36.1890 C.2   201  LEU201      0.2592
     15  O        -41.6800   44.1930  -36.4070 O.2   201  LEU201     -0.2718
     16  CB       -39.0880   42.8050  -37.9430 C.3   201  LEU201      0.0284
     17  CG       -38.7330   42.9200  -39.4280 C.3   201  LEU201      0.0019
     18  CD1      -38.1740   44.2850  -39.7660 C.3   201  LEU201      0.0001
     19  CD2      -37.7810   41.8080  -39.8290 C.3   201  LEU201      0.0001
     20  N        -40.1790   43.1550  -35.0890 N.am  202  ASP202     -0.1974
     21  CA       -41.1290   42.7810  -34.0560 C.3   202  ASP202      0.1709
     22  C        -41.8720   43.9960  -33.5190 C.2   202  ASP202      0.2293
     23  O        -43.0950   43.9820  -33.3950 O.2   202  ASP202     -0.2864
     24  CB       -40.3900   42.0980  -32.9100 C.3   202  ASP202      0.1436
     25  CG       -41.1180   40.8800  -32.3920 C.2   202  ASP202      0.3671
     26  OD1      -42.0830   41.0420  -31.6070 O.co2 202  ASP202     -0.2456
     27  OD2      -40.7140   39.7580  -32.7720 O.co2 202  ASP202     -0.2456
     28  N        -42.0710   47.0260  -34.8850 N.3   204  ILE204     -0.1231
     29  CA       -42.7840   47.7060  -35.9530 C.3   204  ILE204      0.1692
     30  C        -44.1010   47.0110  -36.2590 C.2   204  ILE204      0.2592
     31  O        -45.1340   47.6660  -36.4140 O.2   204  ILE204     -0.2718
     32  CB       -41.9310   47.8040  -37.2390 C.3   204  ILE204      0.0266
     33  CG1      -40.8080   48.8200  -37.0460 C.3   204  ILE204      0.0019
     34  CG2      -42.7900   48.2140  -38.4090 C.3   204  ILE204      0.0020
     35  CD1      -39.8030   48.8220  -38.1520 C.3   204  ILE204      0.0001
     36  N        -44.0620   45.6840  -36.3400 N.am  205  GLY205     -0.1957
     37  CA       -45.2440   44.9120  -36.6800 C.3   205  GLY205      0.1869
     38  C        -46.3230   44.9760  -35.6150 C.2   205  GLY205      0.2309
     39  O        -47.4800   44.6250  -35.8600 O.2   205  GLY205     -0.2863
     40  N        -47.4490   49.0690  -38.8360 N.3   210  ALA210     -0.1231
     41  CA       -47.4350   47.6950  -39.3220 C.3   210  ALA210      0.1694
     42  C        -48.2120   47.5610  -40.6200 C.2   210  ALA210      0.2592
     43  O        -49.3470   48.0050  -40.7110 O.2   210  ALA210     -0.2718
     44  CB       -48.0020   46.7560  -38.2700 C.3   210  ALA210      0.0304
     45  N        -47.5960   46.9460  -41.6200 N.am  211  ASN211     -0.1961
     46  CA       -48.2480   46.7310  -42.9050 C.3   211  ASN211      0.1804
     47  C        -47.6290   45.5320  -43.6020 C.2   211  ASN211      0.2463
     48  O        -46.4790   45.2000  -43.3490 O.2   211  ASN211     -0.2730
     49  CB       -48.1090   47.9720  -43.7920 C.3   211  ASN211      0.1195
     50  CG       -46.6650   48.2730  -44.1570 C.2   211  ASN211      0.2630
     51  OD1      -46.1330   47.7500  -45.1400 O.2   211  ASN211     -0.2716
     52  ND2      -46.0300   49.1300  -43.3760 N.am  211  ASN211     -0.0877
     53  N        -48.3820   44.8930  -44.5030 N.am  212  PRO212     -0.2727
     54  CA       -47.8740   43.7280  -45.2420 C.3   212  PRO212      0.1402
     55  C        -46.5230   43.9340  -45.9510 C.2   212  PRO212      0.2269
     56  O        -45.6860   43.0310  -45.9010 O.2   212  PRO212     -0.2865
     57  CB       -48.9830   43.4530  -46.2560 C.3   212  PRO212      0.0296
     58  CG       -50.2380   43.9350  -45.5460 C.3   212  PRO212      0.0237
     59  CD       -49.7900   45.1840  -44.8290 C.3   212  PRO212      0.0939
     60  N        -43.9040   45.9580  -45.2200 N.3   214  PHE214     -0.1227
     61  CA       -42.8650   45.8580  -44.1960 C.3   214  PHE214      0.1736
     62  C        -42.6910   44.4170  -43.7110 C.2   214  PHE214      0.2595
     63  O        -41.5650   43.9240  -43.6050 O.2   214  PHE214     -0.2718
     64  CB       -43.1590   46.7740  -43.0110 C.3   214  PHE214      0.0547
     65  CG       -42.8690   48.2230  -43.2750 C.ar  214  PHE214     -0.0202
     66  CD1      -43.0190   49.1650  -42.2660 C.ar  214  PHE214     -0.0042
     67  CD2      -42.4560   48.6470  -44.5270 C.ar  214  PHE214     -0.0042
     68  CE1      -42.7530   50.5000  -42.5020 C.ar  214  PHE214     -0.0003
     69  CE2      -42.1930   49.9790  -44.7690 C.ar  214  PHE214     -0.0003
     70  CZ       -42.3430   50.9110  -43.7490 C.ar  214  PHE214     -0.0000
     71  N        -43.8040   43.7510  -43.4080 N.am  215  ALA215     -0.1980
     72  CA       -43.7540   42.3830  -42.9110 C.3   215  ALA215      0.1597
     73  C        -42.9810   41.5130  -43.8900 C.2   215  ALA215      0.2287
     74  O        -41.9880   40.8850  -43.5250 O.2   215  ALA215     -0.2864
     75  CB       -45.1540   41.8320  -42.7000 C.3   215  ALA215      0.0319
@<TRIPOS>BOND
     1    57    58    1
     2    57    54    1
     3    55    56    2
     4    55    54    1
     5    58    59    1
     6    54    53    1
     7    60    61    1
     8    51    50    2
     9    59    53    1
    10    69    67   ar
    11    69    70   ar
    12     8    10   ar
    13     8     6   ar
    14    67    65   ar
    15    53    47   am
    16     5     6    1
    17     5     2    1
    18     1     2    1
    19    61    62    1
    20    61    64    1
    21    50    49    1
    22    50    52   am
    23    10    11   ar
    24    73    74    2
    25    73    72    1
    26     6     7   ar
    27    49    46    1
    28     3     2    1
    29     3     4    2
    30    70    68   ar
    31    62    63    2
    32    62    71   am
    33    47    48    2
    34    47    46    1
    35    71    72    1
    36    65    64    1
    37    65    66   ar
    38    72    75    1
    39    46    45    1
    40    11     9   ar
    41     7     9   ar
    42    68    66   ar
    43    45    42   am
    44    43    42    2
    45    42    41    1
    46    19    17    1
    47    18    17    1
    48    17    16    1
    49    41    40    1
    50    41    44    1
    51    34    32    1
    52    35    33    1
    53    16    13    1
    54    32    33    1
    55    32    29    1
    56    13    12    1
    57    13    14    1
    58    37    36    1
    59    37    38    1
    60    31    30    2
    61    15    14    2
    62    36    30   am
    63    30    29    1
    64    14    20   am
    65    29    28    1
    66    39    38    2
    67    20    21    1
    68    21    22    1
    69    21    24    1
    70    22    23    2
    71    24    25    1
    72    27    25   ar
    73    25    26   ar
