@<TRIPOS>MOLECULE
tmp/3pehB00.pdb
 165 153 0 0 0
SMALL
GASTEIGER

@<TRIPOS>ATOM
      1  N         53.1890   68.7390   53.7180 N.3    35  LEU35      -0.1245
      2  CA        52.1620   68.8520   52.6870 C.3    35  LEU35       0.1561
      3  C         51.1310   67.7050   52.7760 C.2    35  LEU35       0.2260
      4  O         49.9330   67.9640   52.6260 O.2    35  LEU35      -0.2867
      5  CB        52.7840   68.9450   51.2910 C.3    35  LEU35       0.0270
      6  CG        53.7560   70.1220   51.0510 C.3    35  LEU35       0.0019
      7  CD1       54.2880   70.1090   49.6490 C.3    35  LEU35       0.0001
      8  CD2       53.1350   71.4860   51.3840 C.3    35  LEU35       0.0001
      9  N         48.8740   68.5730   55.7100 N.3    38  ASN38      -0.1225
     10  CA        47.9160   69.6190   55.3450 C.3    38  ASN38       0.1785
     11  C         46.7670   69.0580   54.5690 C.2    38  ASN38       0.2597
     12  O         45.6140   69.3900   54.8670 O.2    38  ASN38      -0.2718
     13  CB        48.5920   70.7190   54.5330 C.3    38  ASN38       0.1169
     14  CG        49.2280   71.7900   55.3620 C.2    38  ASN38       0.2627
     15  OD1       49.0380   71.8720   56.5760 O.2    38  ASN38      -0.2716
     16  ND2       49.9560   72.6690   54.7070 N.am   38  ASN38      -0.0877
     17  N         47.0820   68.1740   53.6040 N.am   39  ALA39      -0.1979
     18  CA        46.1340   67.4800   52.7440 C.3    39  ALA39       0.1597
     19  C         45.1920   66.5560   53.5440 C.2    39  ALA39       0.2287
     20  O         43.9860   66.5900   53.3070 O.2    39  ALA39      -0.2864
     21  CB        46.8840   66.6970   51.6810 C.3    39  ALA39       0.0319
     22  N         42.6670   68.7800   55.4630 N.3    42  ALA42      -0.1245
     23  CA        41.6700   69.2880   54.5140 C.3    42  ALA42       0.1562
     24  C         40.6700   68.1900   54.1070 C.2    42  ALA42       0.2260
     25  O         39.4910   68.4900   53.9400 O.2    42  ALA42      -0.2867
     26  CB        42.3620   69.8570   53.2840 C.3    42  ALA42       0.0290
     27  N         38.2470   67.5450   57.0310 N.3    45  LYS45      -0.1245
     28  CA        37.2530   68.6190   57.1040 C.3    45  LYS45       0.1561
     29  C         36.0520   68.3270   56.1950 C.2    45  LYS45       0.2260
     30  O         34.9150   68.3570   56.6700 O.2    45  LYS45      -0.2867
     31  CB        37.8830   69.9940   56.7850 C.3    45  LYS45       0.0271
     32  CG        38.7500   70.5240   57.9850 C.3    45  LYS45       0.0035
     33  CD        39.5500   71.7310   57.4800 C.3    45  LYS45       0.0206
     34  CE        40.6310   72.1730   58.4270 C.3    45  LYS45       0.1093
     35  NZ        40.1300   72.7030   59.7400 N.3    45  LYS45      -0.1314
     36  N         44.9560   67.0380   46.4830 N.3    80  ASP80      -0.1239
     37  CA        44.0080   66.3970   47.3700 C.3    80  ASP80       0.1674
     38  C         42.5920   66.7580   46.9490 C.2    80  ASP80       0.2266
     39  O         42.3830   67.7560   46.2470 O.2    80  ASP80      -0.2867
     40  CB        44.2880   66.7450   48.8480 C.3    80  ASP80       0.1410
     41  CG        44.0230   68.1860   49.2250 C.2    80  ASP80       0.3668
     42  OD1       42.8540   68.5140   49.5440 O.co2  80  ASP80      -0.2456
     43  OD2       44.9850   68.9720   49.2520 O.co2  80  ASP80      -0.2456
     44  N         38.5850   69.7910   51.3880 N.3    83  ILE83      -0.1231
     45  CA        37.6910   70.9510   51.4370 C.3    83  ILE83       0.1692
     46  C         38.0520   72.0760   50.4150 C.2    83  ILE83       0.2593
     47  O         37.1460   72.6700   49.8480 O.2    83  ILE83      -0.2718
     48  CB        37.5640   71.4960   52.8870 C.3    83  ILE83       0.0266
     49  CG1       36.3940   72.5220   53.0030 C.3    83  ILE83       0.0019
     50  CG2       38.8780   72.0690   53.4220 C.3    83  ILE83       0.0020
     51  CD1       35.4810   72.3390   54.2200 C.3    83  ILE83       0.0001
     52  N         39.3390   72.3350   50.1980 N.am   84  GLY84      -0.1942
     53  CA        39.8070   73.4140   49.3370 C.3    84  GLY84       0.2014
     54  C         39.5990   74.7730   49.9850 C.2    84  GLY84       0.2638
     55  O         39.0660   74.8670   51.0970 O.2    84  GLY84      -0.2714
     56  N         39.9930   75.8390   49.2960 N.am   85  MET85      -0.1976
     57  CA        39.8500   77.2030   49.8130 C.3    85  MET85       0.1605
     58  C         39.0860   78.1480   48.8910 C.2    85  MET85       0.2287
     59  O         39.2990   78.1580   47.6670 O.2    85  MET85      -0.2864
     60  CB        41.2280   77.8280   50.0470 C.3    85  MET85       0.0413
     61  CG        41.8060   77.5510   51.3760 C.3    85  MET85       0.0598
     62  SD        43.4840   78.2090   51.4370 S.3    85  MET85      -0.1393
     63  CE        44.3970   76.8970   50.5450 C.3    85  MET85       0.0692
     64  N         38.8190   82.2370   52.5420 N.3    89  ASP89      -0.1239
     65  CA        39.6050   81.2910   53.3470 C.3    89  ASP89       0.1674
     66  C         41.1010   81.5030   53.1160 C.2    89  ASP89       0.2266
     67  O         41.8610   81.4950   54.0730 O.2    89  ASP89      -0.2867
     68  CB        39.2420   79.8340   53.0250 C.3    89  ASP89       0.1410
     69  CG        37.8250   79.4000   53.3410 C.2    89  ASP89       0.3668
     70  OD1       37.2920   79.8150   54.4120 O.co2  89  ASP89      -0.2456
     71  OD2       37.2650   78.5930   52.5550 O.co2  89  ASP89      -0.2456
     72  N         43.6930   82.8920   55.9420 N.3    93  ASN93      -0.1240
     73  CA        44.8550   82.0510   56.2020 C.3    93  ASN93       0.1653
     74  C         46.1410   82.8520   56.0890 C.2    93  ASN93       0.2266
     75  O         47.0050   82.7190   56.9480 O.2    93  ASN93      -0.2867
     76  CB        44.8840   80.8460   55.2540 C.3    93  ASN93       0.1155
     77  CG        43.9600   79.7050   55.6340 C.2    93  ASN93       0.2627
     78  OD1       43.4860   79.5850   56.7710 O.2    93  ASN93      -0.2716
     79  ND2       43.6980   78.8190   54.6850 N.am   93  ASN93      -0.0877
     80  N         46.2410   85.2920   58.9950 N.3    96  THR96      -0.1203
     81  CA        46.5480   84.5270   60.2010 C.3    96  THR96       0.1994
     82  C         48.0570   84.3480   60.3130 C.2    96  THR96       0.2617
     83  O         48.6130   84.6430   61.3640 O.2    96  THR96      -0.2717
     84  CB        45.7770   83.2060   60.2070 C.3    96  THR96       0.1784
     85  OG1       44.3800   83.4970   60.2960 O.3    96  THR96      -0.2211
     86  CG2       46.1780   82.3000   61.3590 C.3    96  THR96       0.0376
     87  N         48.7150   83.9400   59.2210 N.am   97  ILE97      -0.1979
     88  CA        50.1640   83.7600   59.1770 C.3    97  ILE97       0.1595
     89  C         50.8890   85.0800   59.5060 C.2    97  ILE97       0.2287
     90  O         51.7620   85.0760   60.3740 O.2    97  ILE97      -0.2864
     91  CB        50.6090   83.1240   57.8170 C.3    97  ILE97       0.0276
     92  CG1       50.3000   81.6040   57.8120 C.3    97  ILE97       0.0022
     93  CG2       52.0990   83.3910   57.4850 C.3    97  ILE97       0.0022
     94  CD1       49.8900   81.0830   56.4970 C.3    97  ILE97       0.0001
     95  N         50.8120   75.5280   62.3440 N.3   123  GLY123     -0.1225
     96  CA        50.1260   75.8600   61.1040 C.3   123  GLY123      0.1811
     97  C         50.9670   76.5780   60.0710 C.2   123  GLY123      0.2280
     98  O         50.4130   77.2730   59.2270 O.2   123  GLY123     -0.2866
     99  N         53.5330   74.5330   55.6350 N.3   126  PHE126     -0.1227
    100  CA        53.5070   74.8200   54.2070 C.3   126  PHE126      0.1736
    101  C         54.8070   75.5000   53.7240 C.2   126  PHE126      0.2595
    102  O         55.2560   75.2190   52.6070 O.2   126  PHE126     -0.2718
    103  CB        52.2690   75.6900   53.8670 C.3   126  PHE126      0.0547
    104  CG        52.2780   76.2890   52.4840 C.ar  126  PHE126     -0.0202
    105  CD1       51.7010   75.6190   51.4160 C.ar  126  PHE126     -0.0042
    106  CD2       52.8910   77.5210   52.2420 C.ar  126  PHE126     -0.0042
    107  CE1       51.7440   76.1620   50.1250 C.ar  126  PHE126     -0.0003
    108  CE2       52.9410   78.0540   50.9490 C.ar  126  PHE126     -0.0003
    109  CZ        52.3520   77.3780   49.9030 C.ar  126  PHE126     -0.0000
    110  N         55.4090   76.3830   54.5500 N.am  127  TYR127     -0.1976
    111  CA        56.5850   77.1520   54.1190 C.3   127  TYR127      0.1639
    112  C         57.8740   76.3310   54.0040 C.2   127  TYR127      0.2290
    113  O         58.8550   76.8100   53.4150 O.2   127  TYR127     -0.2864
    114  CB        56.7600   78.4210   54.9690 C.3   127  TYR127      0.0560
    115  CG        55.5720   79.3500   54.8190 C.ar  127  TYR127     -0.0198
    116  CD1       55.4460   80.1830   53.7040 C.ar  127  TYR127     -0.0009
    117  CD2       54.5200   79.3250   55.7360 C.ar  127  TYR127     -0.0009
    118  CE1       54.3200   80.9920   53.5250 C.ar  127  TYR127      0.0417
    119  CE2       53.3960   80.1430   55.5770 C.ar  127  TYR127      0.0417
    120  CZ        53.3000   80.9750   54.4700 C.ar  127  TYR127      0.1957
    121  OH        52.1980   81.7810   54.3200 O.3   127  TYR127     -0.2866
    122  N         49.8790   77.3190   44.1160 N.3   138  VAL138     -0.1245
    123  CA        48.7650   76.6190   44.7420 C.3   138  VAL138      0.1561
    124  C         47.4650   76.8730   43.9430 C.2   138  VAL138      0.2260
    125  O         47.1290   78.0160   43.6580 O.2   138  VAL138     -0.2867
    126  CB        48.6540   77.0010   46.2460 C.3   138  VAL138      0.0252
    127  CG1       47.4020   76.4050   46.9010 C.3   138  VAL138      0.0019
    128  CG2       49.9120   76.5920   47.0090 C.3   138  VAL138      0.0019
    129  N         36.9030   75.2870   46.3550 N.3   142  ASN142     -0.1240
    130  CA        35.9900   74.9860   47.4580 C.3   142  ASN142      0.1653
    131  C         34.5940   75.1480   46.8850 C.2   142  ASN142      0.2266
    132  O         34.3990   76.0080   46.0310 O.2   142  ASN142     -0.2867
    133  CB        36.2690   75.9250   48.6570 C.3   142  ASN142      0.1155
    134  CG        35.2990   75.8300   49.8090 C.2   142  ASN142      0.2627
    135  OD1       34.1640   76.3060   49.7370 O.2   142  ASN142     -0.2716
    136  ND2       35.7570   75.3010   50.9360 N.am  142  ASN142     -0.0877
    137  N         47.2390   80.7760   43.8360 N.3   150  TRP150     -0.1241
    138  CA        48.0410   81.5240   44.7880 C.3   150  TRP150      0.1605
    139  C         49.4760   81.1650   44.4690 C.2   150  TRP150      0.2264
    140  O         49.8690   80.0110   44.5840 O.2   150  TRP150     -0.2867
    141  CB        47.6210   81.1930   46.2300 C.3   150  TRP150      0.0550
    142  CG        48.5540   81.6670   47.3000 C.ar  150  TRP150      0.0003
    143  CD1       49.1760   82.8790   47.3800 C.ar  150  TRP150      0.0946
    144  CD2       48.9330   80.9420   48.4700 C.ar  150  TRP150      0.0152
    145  NE1       49.9680   82.9290   48.4980 N.ar  150  TRP150     -0.2442
    146  CE2       49.8260   81.7600   49.1970 C.ar  150  TRP150      0.0810
    147  CE3       48.6110   79.6650   48.9740 C.ar  150  TRP150      0.0012
    148  CZ2       50.4150   81.3400   50.3910 C.ar  150  TRP150      0.0191
    149  CZ3       49.1780   79.2620   50.1700 C.ar  150  TRP150      0.0001
    150  CH2       50.0510   80.1030   50.8760 C.ar  150  TRP150      0.0015
    151  N         42.7290   70.8360   46.5480 N.3   173  THR173     -0.1218
    152  CA        43.9040   71.7070   46.4010 C.3   173  THR173      0.1862
    153  C         45.0990   70.9710   45.7830 C.2   173  THR173      0.2287
    154  O         45.3540   69.8080   46.1020 O.2   173  THR173     -0.2866
    155  CB        44.2800   72.3030   47.7930 C.3   173  THR173      0.1770
    156  OG1       43.1040   72.7250   48.5010 O.3   173  THR173     -0.2211
    157  CG2       45.2440   73.4540   47.7080 C.3   173  THR173      0.0375
    158  N         49.2810   71.5660   45.1950 N.3   175  ILE175     -0.1245
    159  CA        50.4570   72.3490   45.5650 C.3   175  ILE175      0.1561
    160  C         51.5080   71.9760   44.5360 C.2   175  ILE175      0.2260
    161  O         52.0000   70.8400   44.5440 O.2   175  ILE175     -0.2867
    162  CB        50.9740   72.0480   47.0190 C.3   175  ILE175      0.0252
    163  CG1       49.8350   71.9730   48.0800 C.3   175  ILE175      0.0019
    164  CG2       52.0680   73.0180   47.4340 C.3   175  ILE175      0.0019
    165  CD1       49.2380   73.2100   48.6010 C.3   175  ILE175      0.0001
@<TRIPOS>BOND
     1   125   124    2
     2   137   138    1
     3   124   123    1
     4   122   123    1
     5   139   140    2
     6   139   138    1
     7   160   161    2
     8   160   159    1
     9   123   126    1
    10   138   141    1
    11   158   159    1
    12   159   162    1
    13   153   154    2
    14   153   152    1
    15   132   131    2
    16   141   142    1
    17   126   127    1
    18   126   128    1
    19    39    38    2
    20   129   130    1
    21   152   151    1
    22   152   155    1
    23    36    37    1
    24   131   130    1
    25    38    37    1
    26   162   164    1
    27   162   163    1
    28   142   143   ar
    29   142   144   ar
    30    37    40    1
    31   143   145   ar
    32   130   133    1
    33    59    58    2
    34   157   155    1
    35   155   156    1
    36   163   165    1
    37   144   147   ar
    38   144   146   ar
    39   145   146   ar
    40   133   134    1
    41    40    41    1
    42    58    57    1
    43   147   149   ar
    44   146   148   ar
    45    41    43   ar
    46    41    42   ar
    47    56    57    1
    48    56    54   am
    49    53    54    1
    50    53    52    1
    51     7     6    1
    52   135   134    2
    53   134   136   am
    54    57    60    1
    55    47    46    2
    56   109   107   ar
    57   109   108   ar
    58    54    55    2
    59    60    61    1
    60   107   105   ar
    61   149   150   ar
    62    52    46   am
    63   148   150   ar
    64    46    45    1
    65    63    62    1
    66   108   106   ar
    67     6     5    1
    68     6     8    1
    69     5     2    1
    70    61    62    1
    71    44    45    1
    72   105   104   ar
    73    45    48    1
    74    21    18    1
    75   106   104   ar
    76   104   103    1
    77    64    65    1
    78    71    69   ar
    79   102   101    2
    80     4     3    2
    81     2     3    1
    82     2     1    1
    83    18    19    1
    84    18    17    1
    85    48    49    1
    86    48    50    1
    87    49    51    1
    88    68    69    1
    89    68    65    1
    90    66    65    1
    91    66    67    2
    92    26    23    1
    93    20    19    2
    94    69    70   ar
    95   113   112    2
    96   118   116   ar
    97   118   120   ar
    98    17    11   am
    99   116   115   ar
   100   101   100    1
   101   101   110   am
   102   103   100    1
   103    25    24    2
   104   112   111    1
   105    24    23    1
   106   111   110    1
   107   111   114    1
   108   100    99    1
   109   121   120    1
   110   120   119   ar
   111    23    22    1
   112    13    10    1
   113    13    14    1
   114    11    12    2
   115    11    10    1
   116    79    77   am
   117    16    14   am
   118   115   114    1
   119   115   117   ar
   120    76    77    1
   121    76    73    1
   122    10     9    1
   123    14    15    2
   124   119   117   ar
   125    77    78    2
   126    72    73    1
   127    74    73    1
   128    74    75    2
   129    29    30    2
   130    29    28    1
   131    94    92    1
   132    31    28    1
   133    31    32    1
   134    27    28    1
   135    33    32    1
   136    33    34    1
   137    93    91    1
   138    92    91    1
   139    91    88    1
   140    34    35    1
   141    80    81    1
   142    88    87    1
   143    88    89    1
   144    87    82   am
   145    98    97    2
   146    89    90    2
   147    97    96    1
   148    81    84    1
   149    81    82    1
   150    84    85    1
   151    84    86    1
   152    82    83    2
   153    96    95    1
