@<TRIPOS>MOLECULE
tmp/3pejA00.pdb
 189 178 0 0 0
SMALL
GASTEIGER

@<TRIPOS>ATOM
      1  N          7.3600  -22.9790  -57.9230 N.3    31  LEU31      -0.1245
      2  CA         6.3240  -23.0580  -56.8910 C.3    31  LEU31       0.1561
      3  C          5.3370  -21.8810  -56.9700 C.2    31  LEU31       0.2260
      4  O          4.1400  -22.1170  -56.8500 O.2    31  LEU31      -0.2867
      5  CB         6.9090  -23.2550  -55.4790 C.3    31  LEU31       0.0270
      6  CG         7.7760  -24.5240  -55.2780 C.3    31  LEU31       0.0019
      7  CD1        8.3430  -24.5920  -53.8930 C.3    31  LEU31       0.0001
      8  CD2        7.0150  -25.8050  -55.5610 C.3    31  LEU31       0.0001
      9  N          3.1030  -22.7120  -60.0470 N.3    34  ASN34      -0.1225
     10  CA         2.1380  -23.7400  -59.6470 C.3    34  ASN34       0.1785
     11  C          0.9950  -23.1120  -58.8290 C.2    34  ASN34       0.2597
     12  O         -0.1680  -23.3740  -59.1230 O.2    34  ASN34      -0.2718
     13  CB         2.8350  -24.8340  -58.8200 C.3    34  ASN34       0.1169
     14  CG         3.8470  -25.6830  -59.5570 C.2    34  ASN34       0.2627
     15  OD1        4.2240  -25.4110  -60.7100 O.2    34  ASN34      -0.2716
     16  ND2        4.3200  -26.7330  -58.8870 N.am   34  ASN34      -0.0877
     17  N          1.3390  -22.2520  -57.8300 N.am   35  ALA35      -0.1979
     18  CA         0.4100  -21.5380  -56.9500 C.3    35  ALA35       0.1597
     19  C         -0.5260  -20.6420  -57.7700 C.2    35  ALA35       0.2287
     20  O         -1.7370  -20.6440  -57.5290 O.2    35  ALA35      -0.2864
     21  CB         1.1840  -20.7060  -55.9400 C.3    35  ALA35       0.0319
     22  N         -1.3600  -21.0780  -60.9440 N.3    37  ASP37      -0.1225
     23  CA        -2.2200  -21.9780  -61.7110 C.3    37  ASP37       0.1805
     24  C         -3.4000  -22.4870  -60.8670 C.2    37  ASP37       0.2597
     25  O         -4.5290  -22.5220  -61.3630 O.2    37  ASP37      -0.2718
     26  CB        -1.4140  -23.1480  -62.3060 C.3    37  ASP37       0.1424
     27  CG        -2.2410  -24.0720  -63.1790 C.2    37  ASP37       0.3668
     28  OD1       -2.7390  -23.6100  -64.2350 O.co2  37  ASP37      -0.2456
     29  OD2       -2.4010  -25.2550  -62.8040 O.co2  37  ASP37      -0.2456
     30  N         -3.1330  -22.8660  -59.5940 N.am   38  ALA38      -0.1979
     31  CA        -4.1380  -23.3360  -58.6330 C.3    38  ALA38       0.1597
     32  C         -5.1540  -22.2110  -58.3250 C.2    38  ALA38       0.2287
     33  O         -6.3540  -22.4700  -58.2030 O.2    38  ALA38      -0.2864
     34  CB        -3.4520  -23.7870  -57.3560 C.3    38  ALA38       0.0319
     35  N         -7.5270  -21.5770  -61.4170 N.3    41  LYS41      -0.1245
     36  CA        -8.5450  -22.6280  -61.5000 C.3    41  LYS41       0.1561
     37  C         -9.7620  -22.3150  -60.6190 C.2    41  LYS41       0.2260
     38  O        -10.8890  -22.4120  -61.1040 O.2    41  LYS41      -0.2867
     39  CB        -7.9550  -24.0130  -61.1730 C.3    41  LYS41       0.0271
     40  CG        -7.3460  -24.6830  -62.3970 C.3    41  LYS41       0.0035
     41  CD        -6.1860  -25.6150  -62.0540 C.3    41  LYS41       0.0206
     42  CE        -5.6270  -26.3430  -63.2620 C.3    41  LYS41       0.1093
     43  NZ        -5.0390  -25.4230  -64.2850 N.3    41  LYS41      -0.1314
     44  N         -0.9160  -20.9490  -50.8020 N.3    76  ASP76      -0.1239
     45  CA        -1.8320  -20.2730  -51.7190 C.3    76  ASP76       0.1674
     46  C         -3.2650  -20.6020  -51.3110 C.2    76  ASP76       0.2266
     47  O         -3.5200  -21.6740  -50.7560 O.2    76  ASP76      -0.2867
     48  CB        -1.5830  -20.6680  -53.1900 C.3    76  ASP76       0.1410
     49  CG        -1.6830  -22.1570  -53.4780 C.2    76  ASP76       0.3668
     50  OD1       -2.8170  -22.6420  -53.7420 O.co2  76  ASP76      -0.2456
     51  OD2       -0.6330  -22.8370  -53.4420 O.co2  76  ASP76      -0.2456
     52  N         -7.3410  -23.6210  -55.6380 N.3    79  ILE79      -0.1231
     53  CA        -8.3430  -24.6840  -55.7510 C.3    79  ILE79       0.1692
     54  C         -8.1250  -25.8310  -54.7410 C.2    79  ILE79       0.2593
     55  O         -9.1060  -26.3810  -54.2370 O.2    79  ILE79      -0.2718
     56  CB        -8.4930  -25.1950  -57.2270 C.3    79  ILE79       0.0266
     57  CG1       -9.7170  -26.1310  -57.3760 C.3    79  ILE79       0.0019
     58  CG2       -7.2120  -25.8540  -57.7910 C.3    79  ILE79       0.0020
     59  CD1      -10.5710  -25.8380  -58.5750 C.3    79  ILE79       0.0001
     60  N         -6.8700  -26.1630  -54.4480 N.am   80  GLY80      -0.1942
     61  CA        -6.5370  -27.2790  -53.5680 C.3    80  GLY80       0.2014
     62  C         -6.6640  -28.6090  -54.2920 C.2    80  GLY80       0.2638
     63  O         -7.0570  -28.6510  -55.4690 O.2    80  GLY80      -0.2714
     64  N         -6.3300  -29.7140  -53.6010 N.am   81  MET81      -0.1976
     65  CA        -6.3670  -31.0450  -54.2170 C.3    81  MET81       0.1605
     66  C         -7.1290  -32.0880  -53.4190 C.2    81  MET81       0.2287
     67  O         -7.0480  -32.1150  -52.1890 O.2    81  MET81      -0.2864
     68  CB        -4.9420  -31.5630  -54.4630 C.3    81  MET81       0.0413
     69  CG        -4.2130  -30.8490  -55.5780 C.3    81  MET81       0.0598
     70  SD        -2.4950  -31.3790  -55.7170 S.3    81  MET81      -0.1393
     71  CE        -1.7700  -30.5460  -54.2910 C.3    81  MET81       0.0692
     72  N         -7.3800  -36.6060  -57.1540 N.3    85  ASP85      -0.1225
     73  CA        -6.5620  -35.7250  -57.9870 C.3    85  ASP85       0.1805
     74  C         -5.0870  -35.9590  -57.7090 C.2    85  ASP85       0.2597
     75  O         -4.2950  -36.0210  -58.6470 O.2    85  ASP85      -0.2718
     76  CB        -6.9010  -34.2460  -57.7090 C.3    85  ASP85       0.1424
     77  CG        -8.1400  -33.6970  -58.3930 C.2    85  ASP85       0.3668
     78  OD1       -8.7310  -34.4210  -59.2400 O.co2  85  ASP85      -0.2456
     79  OD2       -8.5070  -32.5360  -58.1020 O.co2  85  ASP85      -0.2456
     80  N         -4.7290  -36.1200  -56.4250 N.am   86  LEU86      -0.1979
     81  CA        -3.3580  -36.3340  -55.9860 C.3    86  LEU86       0.1596
     82  C         -2.8070  -37.7070  -56.4210 C.2    86  LEU86       0.2287
     83  O         -1.7070  -37.7670  -56.9700 O.2    86  LEU86      -0.2864
     84  CB        -3.2740  -36.1440  -54.4660 C.3    86  LEU86       0.0297
     85  CG        -1.9090  -35.8200  -53.8580 C.3    86  LEU86       0.0022
     86  CD1       -1.1610  -34.7480  -54.6510 C.3    86  LEU86       0.0001
     87  CD2       -2.0680  -35.3820  -52.4200 C.3    86  LEU86       0.0001
     88  N         -2.8280  -37.8690  -60.4720 N.3    89  ASN89      -0.1225
     89  CA        -1.7580  -37.0060  -60.9880 C.3    89  ASN89       0.1785
     90  C         -0.3660  -37.6080  -60.7420 C.2    89  ASN89       0.2597
     91  O          0.4650  -37.5770  -61.6520 O.2    89  ASN89      -0.2718
     92  CB        -1.8510  -35.5890  -60.4180 C.3    89  ASN89       0.1169
     93  CG        -0.9650  -34.6120  -61.1740 C.2    89  ASN89       0.2627
     94  OD1       -0.4560  -34.9170  -62.2240 O.2    89  ASN89      -0.2716
     95  ND2       -0.8700  -33.4300  -60.6080 N.am   89  ASN89      -0.0877
     96  N         -0.1210  -38.1840  -59.5410 N.am   90  LEU90      -0.1980
     97  CA         1.1580  -38.8390  -59.2290 C.3    90  LEU90       0.1596
     98  C          1.3410  -40.1010  -60.0640 C.2    90  LEU90       0.2287
     99  O          2.4740  -40.5040  -60.3420 O.2    90  LEU90      -0.2864
    100  CB         1.2990  -39.1510  -57.7300 C.3    90  LEU90       0.0297
    101  CG         1.5160  -37.9470  -56.8010 C.3    90  LEU90       0.0022
    102  CD1        1.7680  -38.4000  -55.3850 C.3    90  LEU90       0.0001
    103  CD2        2.6630  -37.0640  -57.2770 C.3    90  LEU90       0.0001
    104  N          2.5980  -39.0420  -63.6980 N.3    93  ILE93      -0.1245
    105  CA         4.0430  -38.7430  -63.6180 C.3    93  ILE93       0.1561
    106  C          4.8800  -40.0510  -63.7360 C.2    93  ILE93       0.2260
    107  O          5.8360  -40.1080  -64.5190 O.2    93  ILE93      -0.2867
    108  CB         4.3630  -37.9390  -62.3070 C.3    93  ILE93       0.0252
    109  CG1        3.9240  -36.4590  -62.4490 C.3    93  ILE93       0.0019
    110  CG2        5.8420  -38.0310  -61.8990 C.3    93  ILE93       0.0019
    111  CD1        3.7030  -35.6760  -61.1150 C.3    93  ILE93       0.0001
    112  N          8.5300  -26.8350  -66.1570 N.3   116  GLY116     -0.1225
    113  CA         7.2350  -26.2540  -65.8390 C.3   116  GLY116      0.1811
    114  C          6.1520  -26.7160  -66.7880 C.2   116  GLY116      0.2280
    115  O          5.1580  -27.2830  -66.3360 O.2   116  GLY116     -0.2866
    116  N          5.1120  -30.3440  -66.4510 N.3   119  GLY119     -0.1210
    117  CA         4.4240  -30.6850  -65.2150 C.3   119  GLY119      0.1956
    118  C          5.2870  -31.4030  -64.1950 C.2   119  GLY119      0.2612
    119  O          4.7600  -32.1960  -63.4120 O.2   119  GLY119     -0.2717
    120  N          6.6130  -31.1370  -64.1790 N.am  120  VAL120     -0.1965
    121  CA         7.5250  -31.7740  -63.2110 C.3   120  VAL120      0.1727
    122  C          8.3160  -30.7170  -62.4110 C.2   120  VAL120      0.2617
    123  O          9.2100  -31.0660  -61.6280 O.2   120  VAL120     -0.2715
    124  CB         8.4650  -32.8520  -63.8330 C.3   120  VAL120      0.0290
    125  CG1        7.6880  -34.0960  -64.2490 C.3   120  VAL120      0.0023
    126  CG2        9.2980  -32.2950  -64.9930 C.3   120  VAL120      0.0023
    127  N          7.9470  -29.4510  -62.6060 N.am  121  GLY121     -0.1940
    128  CA         8.5570  -28.2890  -61.9690 C.3   121  GLY121      0.2014
    129  C          8.6220  -28.3630  -60.4600 C.2   121  GLY121      0.2639
    130  O          9.5620  -27.8340  -59.8690 O.2   121  GLY121     -0.2714
    131  N          7.6360  -29.0410  -59.8280 N.am  122  PHE122     -0.1959
    132  CA         7.5570  -29.2400  -58.3750 C.3   122  PHE122      0.1771
    133  C          8.8280  -29.8960  -57.7910 C.2   122  PHE122      0.2619
    134  O          9.2920  -29.4910  -56.7200 O.2   122  PHE122     -0.2715
    135  CB         6.3110  -30.0840  -58.0160 C.3   122  PHE122      0.0574
    136  CG         6.2450  -30.5420  -56.5780 C.ar  122  PHE122     -0.0200
    137  CD1        5.7480  -29.7060  -55.5850 C.ar  122  PHE122     -0.0042
    138  CD2        6.6870  -31.8100  -56.2130 C.ar  122  PHE122     -0.0042
    139  CE1        5.7000  -30.1280  -54.2540 C.ar  122  PHE122     -0.0003
    140  CE2        6.6470  -32.2260  -54.8810 C.ar  122  PHE122     -0.0003
    141  CZ         6.1470  -31.3850  -53.9130 C.ar  122  PHE122     -0.0000
    142  N          9.3770  -30.9060  -58.4960 N.am  123  TYR123     -0.1974
    143  CA        10.5430  -31.6880  -58.0620 C.3   123  TYR123      0.1639
    144  C         11.8340  -30.8680  -57.9640 C.2   123  TYR123      0.2290
    145  O         12.7930  -31.3340  -57.3380 O.2   123  TYR123     -0.2864
    146  CB        10.7150  -32.9380  -58.9310 C.3   123  TYR123      0.0560
    147  CG         9.4920  -33.8280  -58.8510 C.ar  123  TYR123     -0.0198
    148  CD1        9.2830  -34.6640  -57.7550 C.ar  123  TYR123     -0.0009
    149  CD2        8.4920  -33.7590  -59.8220 C.ar  123  TYR123     -0.0009
    150  CE1        8.1320  -35.4400  -57.6490 C.ar  123  TYR123      0.0417
    151  CE2        7.3290  -34.5180  -59.7180 C.ar  123  TYR123      0.0417
    152  CZ         7.1580  -35.3680  -58.6370 C.ar  123  TYR123      0.1957
    153  OH         6.0170  -36.1320  -58.5490 O.3   123  TYR123     -0.2866
    154  N          3.5520  -31.3140  -48.2860 N.3   134  VAL134     -0.1245
    155  CA         2.4490  -30.6010  -48.9220 C.3   134  VAL134      0.1561
    156  C          1.1560  -30.8310  -48.1200 C.2   134  VAL134      0.2260
    157  O          0.7600  -31.9720  -47.9030 O.2   134  VAL134     -0.2867
    158  CB         2.3030  -31.0090  -50.4260 C.3   134  VAL134      0.0252
    159  CG1        0.9740  -30.5390  -51.0250 C.3   134  VAL134      0.0019
    160  CG2        3.4820  -30.5080  -51.2590 C.3   134  VAL134      0.0019
    161  N          0.7740  -34.7020  -48.1330 N.3   146  TRP146     -0.1241
    162  CA         1.6000  -35.4460  -49.0890 C.3   146  TRP146      0.1605
    163  C          3.0810  -35.0920  -48.8660 C.2   146  TRP146      0.2264
    164  O          3.5690  -34.0440  -49.2950 O.2   146  TRP146     -0.2867
    165  CB         1.1330  -35.2600  -50.5490 C.3   146  TRP146      0.0550
    166  CG         2.1130  -35.7120  -51.5990 C.ar  146  TRP146      0.0003
    167  CD1        2.7960  -36.8940  -51.6420 C.ar  146  TRP146      0.0946
    168  CD2        2.4980  -34.9840  -52.7700 C.ar  146  TRP146      0.0152
    169  NE1        3.5920  -36.9400  -52.7590 N.ar  146  TRP146     -0.2442
    170  CE2        3.4320  -35.7780  -53.4680 C.ar  146  TRP146      0.0810
    171  CE3        2.1440  -33.7300  -53.2990 C.ar  146  TRP146      0.0012
    172  CZ2        4.0280  -35.3540  -54.6600 C.ar  146  TRP146      0.0191
    173  CZ3        2.7180  -33.3200  -54.4890 C.ar  146  TRP146      0.0001
    174  CH2        3.6360  -34.1330  -55.1650 C.ar  146  TRP146      0.0015
    175  N         -3.4250  -24.8330  -50.9110 N.3   169  THR169     -0.1218
    176  CA        -2.2790  -25.7120  -50.7050 C.3   169  THR169      0.1862
    177  C         -1.1350  -24.9940  -49.9660 C.2   169  THR169      0.2287
    178  O         -0.8240  -23.8460  -50.2740 O.2   169  THR169     -0.2866
    179  CB        -1.8130  -26.2560  -52.0840 C.3   169  THR169      0.1770
    180  OG1       -2.9310  -26.7790  -52.8130 O.3   169  THR169     -0.2211
    181  CG2       -0.7260  -27.3200  -51.9770 C.3   169  THR169      0.0375
    182  N          2.9800  -25.5700  -49.0400 N.3   171  ILE171     -0.1245
    183  CA         4.1260  -26.3840  -49.4240 C.3   171  ILE171      0.1561
    184  C          5.2830  -25.9920  -48.5130 C.2   171  ILE171      0.2260
    185  O          5.8030  -24.8760  -48.6080 O.2   171  ILE171     -0.2867
    186  CB         4.4530  -26.3170  -50.9610 C.3   171  ILE171      0.0252
    187  CG1        3.2140  -26.7220  -51.8220 C.3   171  ILE171      0.0019
    188  CG2        5.6710  -27.1940  -51.3100 C.3   171  ILE171      0.0019
    189  CD1        3.3020  -26.4710  -53.3180 C.3   171  ILE171      0.0001
@<TRIPOS>BOND
     1   114   115    2
     2   114   113    1
     3   116   117    1
     4   112   113    1
     5   117   118    1
     6   126   124    1
     7   107   106    2
     8    43    42    1
     9   125   124    1
    10    28    27   ar
    11   118   120   am
    12   118   119    2
    13   120   121    1
    14   124   121    1
    15   106   105    1
    16   104   105    1
    17   105   108    1
    18    42    41    1
    19   121   122    1
    20    27    29   ar
    21    27    26    1
    22   127   122   am
    23   127   128    1
    24   109   108    1
    25   109   111    1
    26   122   123    2
    27    40    41    1
    28    40    39    1
    29   108   110    1
    30    26    23    1
    31    94    93    2
    32   128   129    1
    33    23    22    1
    34    23    24    1
    35    91    90    2
    36    36    35    1
    37    36    39    1
    38    36    37    1
    39    25    24    2
    40    93    95   am
    41    93    92    1
    42    38    37    2
    43    89    90    1
    44    89    88    1
    45    89    92    1
    46    24    30   am
    47    90    96   am
    48    15    14    2
    49   129   130    2
    50   129   131   am
    51    99    98    2
    52    98    97    1
    53     9    10    1
    54   131   132    1
    55   149   151   ar
    56   149   147   ar
    57   151   152   ar
    58    10    11    1
    59    10    13    1
    60    30    31    1
    61    14    16   am
    62    14    13    1
    63    96    97    1
    64    78    77   ar
    65    97   100    1
    66    12    11    2
    67   146   147    1
    68   146   143    1
    69   147   148   ar
    70    11    17   am
    71    75    74    2
    72   152   153    1
    73   152   150   ar
    74    31    32    1
    75    31    34    1
    76    59    57    1
    77   142   143    1
    78   142   133   am
    79    77    79   ar
    80    77    76    1
    81   132   135    1
    82   132   133    1
    83    32    33    2
    84   143   144    1
    85   135   136    1
    86    73    76    1
    87    73    74    1
    88    73    72    1
    89   144   145    2
    90     1     2    1
    91    17    18    1
    92    58    56    1
    93   133   134    2
    94    19    20    2
    95    19    18    1
    96   148   150   ar
    97   100   101    1
    98    74    80   am
    99    57    56    1
   100   103   101    1
   101    56    53    1
   102    83    82    2
   103     3     2    1
   104     3     4    2
   105    18    21    1
   106     2     5    1
   107   101   102    1
   108   136   138   ar
   109   136   137   ar
   110    80    81    1
   111    82    81    1
   112   138   140   ar
   113    81    84    1
   114    53    52    1
   115    53    54    1
   116    70    69    1
   117    70    71    1
   118   137   139   ar
   119    69    68    1
   120     8     6    1
   121     5     6    1
   122    63    62    2
   123     6     7    1
   124   174   172   ar
   125   174   173   ar
   126   140   141   ar
   127    54    60   am
   128    54    55    2
   129   172   170   ar
   130    86    85    1
   131   173   171   ar
   132    84    85    1
   133    68    65    1
   134    60    61    1
   135    62    64   am
   136    62    61    1
   137   139   141   ar
   138    65    64    1
   139    65    66    1
   140    85    87    1
   141    50    49   ar
   142    49    51   ar
   143    49    48    1
   144   170   168   ar
   145   170   169   ar
   146    66    67    2
   147   189   187    1
   148   171   168   ar
   149    48    45    1
   150   180   179    1
   151   168   166   ar
   152   169   167   ar
   153   179   181    1
   154   179   176    1
   155   187   186    1
   156    45    46    1
   157    45    44    1
   158   167   166   ar
   159   166   165    1
   160    46    47    2
   161   188   186    1
   162   160   158    1
   163   159   158    1
   164   186   183    1
   165   175   176    1
   166   176   177    1
   167   165   162    1
   168   158   155    1
   169   178   177    2
   170   183   182    1
   171   183   184    1
   172   164   163    2
   173   162   163    1
   174   162   161    1
   175   155   154    1
   176   155   156    1
   177   185   184    2
   178   156   157    2
