@<TRIPOS>MOLECULE
tmp/3penA01.pdb
 109 99 0 0 0
SMALL
GASTEIGER

@<TRIPOS>ATOM
      1  N        -65.4260  -13.2740  -72.9390 N.3    35  LYS35      -0.1245
      2  CA       -66.2510  -12.3490  -72.1750 C.3    35  LYS35       0.1561
      3  C        -65.4780  -11.1680  -71.6060 C.2    35  LYS35       0.2260
      4  O        -64.3740  -11.3170  -71.0840 O.2    35  LYS35      -0.2867
      5  CB       -66.9730  -13.0890  -71.0460 C.3    35  LYS35       0.0271
      6  CG       -67.8600  -12.2010  -70.1890 C.3    35  LYS35       0.0035
      7  CD       -68.5340  -12.9970  -69.0830 C.3    35  LYS35       0.0206
      8  CE       -69.4040  -14.1060  -69.6530 C.3    35  LYS35       0.1093
      9  NZ       -70.0700  -14.8950  -68.5800 N.3    35  LYS35      -0.1314
     10  N        -72.0590   -8.9050  -63.0310 N.3   207  ARG207     -0.1245
     11  CA       -72.8580   -9.8140  -63.8570 C.3   207  ARG207      0.1563
     12  C        -74.0810  -10.3020  -63.1010 C.2   207  ARG207      0.2260
     13  O        -74.0950  -10.3280  -61.8790 O.2   207  ARG207     -0.2867
     14  CB       -72.0440  -11.0500  -64.2630 C.3   207  ARG207      0.0307
     15  CG       -70.7960  -10.7870  -65.0830 C.3   207  ARG207      0.0489
     16  CD       -69.9060  -12.0360  -65.0720 C.3   207  ARG207      0.2205
     17  NE       -68.6720  -11.8550  -65.8360 N.pl3 207  ARG207     -0.0865
     18  CZ       -67.7640  -12.8080  -66.0420 C.cat 207  ARG207      0.5346
     19  NH1      -67.9400  -14.0310  -65.5440 N.pl3 207  ARG207      0.1354
     20  NH2      -66.6770  -12.5380  -66.7540 N.pl3 207  ARG207      0.1354
     21  N        -77.2850  -13.4710  -64.0130 N.3   209  PHE209     -0.1227
     22  CA       -77.8100  -14.3840  -65.0210 C.3   209  PHE209      0.1736
     23  C        -78.9400  -15.2810  -64.5560 C.2   209  PHE209      0.2595
     24  O        -79.1560  -15.4980  -63.3630 O.2   209  PHE209     -0.2718
     25  CB       -76.7170  -15.2900  -65.6000 C.3   209  PHE209      0.0547
     26  CG       -75.3790  -15.1380  -64.9510 C.ar  209  PHE209     -0.0202
     27  CD1      -75.1510  -15.6280  -63.6850 C.ar  209  PHE209     -0.0042
     28  CD2      -74.3330  -14.5340  -65.6300 C.ar  209  PHE209     -0.0042
     29  CE1      -73.9140  -15.4910  -63.0910 C.ar  209  PHE209     -0.0003
     30  CE2      -73.0870  -14.4050  -65.0430 C.ar  209  PHE209     -0.0003
     31  CZ       -72.8840  -14.8800  -63.7670 C.ar  209  PHE209     -0.0000
     32  N        -79.6480  -15.7940  -65.5530 N.am  210  ASP210     -0.1960
     33  CA       -80.5890  -16.8800  -65.4140 C.3   210  ASP210      0.1840
     34  C        -79.8390  -18.1170  -65.8820 C.2   210  ASP210      0.2621
     35  O        -79.5110  -18.2320  -67.0620 O.2   210  ASP210     -0.2715
     36  CB       -81.7750  -16.6160  -66.3320 C.3   210  ASP210      0.1450
     37  CG       -82.7850  -17.7330  -66.3170 C.2   210  ASP210      0.3671
     38  OD1      -83.9010  -17.5210  -66.8420 O.co2 210  ASP210     -0.2456
     39  OD2      -82.4690  -18.8170  -65.7830 O.co2 210  ASP210     -0.2456
     40  N        -79.5490  -19.0300  -64.9600 N.am  211  VAL211     -0.1977
     41  CA       -78.7790  -20.2300  -65.2810 C.3   211  VAL211      0.1596
     42  C        -79.6260  -21.4260  -65.7330 C.2   211  VAL211      0.2287
     43  O        -79.1060  -22.5260  -65.9010 O.2   211  VAL211     -0.2864
     44  CB       -77.9240  -20.6680  -64.0890 C.3   211  VAL211      0.0276
     45  CG1      -77.0510  -19.5190  -63.6380 C.3   211  VAL211      0.0022
     46  CG2      -78.8140  -21.1410  -62.9500 C.3   211  VAL211      0.0022
     47  N        -81.4960  -23.8650  -68.1680 N.3   213  LYS213     -0.1245
     48  CA       -81.4620  -24.3240  -69.5540 C.3   213  LYS213      0.1561
     49  C        -82.8320  -24.1400  -70.2060 C.2   213  LYS213      0.2260
     50  O        -83.8530  -24.1030  -69.5170 O.2   213  LYS213     -0.2867
     51  CB       -81.0100  -25.7880  -69.6290 C.3   213  LYS213      0.0271
     52  CG       -79.6040  -26.0510  -69.0700 C.3   213  LYS213      0.0035
     53  CD       -78.4880  -25.6770  -70.0600 C.3   213  LYS213      0.0206
     54  CE       -78.2880  -24.1660  -70.1960 C.3   213  LYS213      0.1093
     55  NZ       -77.6500  -23.5380  -68.9940 N.3   213  LYS213     -0.1314
     56  N        -84.2380  -22.6730  -61.3010 N.3   222  LYS222     -0.1245
     57  CA       -83.3190  -22.1910  -60.2690 C.3   222  LYS222      0.1561
     58  C        -83.4580  -20.6840  -60.1280 C.2   222  LYS222      0.2260
     59  O        -83.8250  -19.9970  -61.0840 O.2   222  LYS222     -0.2867
     60  CB       -81.8720  -22.5580  -60.6130 C.3   222  LYS222      0.0271
     61  CG       -81.7100  -24.0160  -61.0470 C.3   222  LYS222      0.0035
     62  CD       -80.3310  -24.3180  -61.6440 C.3   222  LYS222      0.0206
     63  CE       -79.2410  -24.4070  -60.5790 C.3   222  LYS222      0.1093
     64  NZ       -77.9280  -24.8080  -61.1790 N.3   222  LYS222     -0.1314
     65  N        -78.9030  -15.7460  -60.3380 N.3   225  VAL225     -0.1245
     66  CA       -77.5320  -15.7310  -59.8530 C.3   225  VAL225      0.1561
     67  C        -76.9180  -14.3500  -60.0970 C.2   225  VAL225      0.2260
     68  O        -77.1560  -13.7260  -61.1310 O.2   225  VAL225     -0.2867
     69  CB       -76.6960  -16.8390  -60.5290 C.3   225  VAL225      0.0252
     70  CG1      -75.2660  -16.8480  -60.0030 C.3   225  VAL225      0.0019
     71  CG2      -77.3550  -18.1830  -60.3020 C.3   225  VAL225      0.0019
     72  N        -76.7160  -20.2300  -52.5060 N.3   266  SER266     -0.1217
     73  CA       -75.4740  -20.9210  -52.8820 C.3   266  SER266      0.1889
     74  C        -74.3390  -19.9570  -53.2320 C.2   266  SER266      0.2288
     75  O        -74.5750  -18.8300  -53.6780 O.2   266  SER266     -0.2866
     76  CB       -75.7040  -21.8990  -54.0430 C.3   266  SER266      0.2089
     77  OG       -76.1450  -21.2300  -55.2160 O.3   266  SER266     -0.2183
     78  N        -70.4570  -19.8330  -55.2750 N.3   268  ARG268     -0.1245
     79  CA       -69.6610  -20.5590  -56.2560 C.3   268  ARG268      0.1563
     80  C        -68.5140  -19.7010  -56.8090 C.2   268  ARG268      0.2260
     81  O        -68.7050  -18.5330  -57.1620 O.2   268  ARG268     -0.2867
     82  CB       -70.5780  -21.0630  -57.3770 C.3   268  ARG268      0.0307
     83  CG       -69.9550  -22.0630  -58.3300 C.3   268  ARG268      0.0489
     84  CD       -70.9880  -22.6700  -59.2970 C.3   268  ARG268      0.2205
     85  NE       -72.0590  -23.4140  -58.6220 N.pl3 268  ARG268     -0.0865
     86  CZ       -72.9130  -24.2350  -59.2410 C.cat 268  ARG268      0.5346
     87  NH1      -72.8260  -24.4390  -60.5570 N.pl3 268  ARG268      0.1354
     88  NH2      -73.8580  -24.8600  -58.5410 N.pl3 268  ARG268      0.1354
     89  N        -65.6530  -20.2270  -59.8490 N.3   270  GLY270     -0.1210
     90  CA       -65.4880  -21.1550  -60.9540 C.3   270  GLY270      0.1956
     91  C        -66.6490  -22.1380  -60.9610 C.2   270  GLY270      0.2611
     92  O        -67.8190  -21.7450  -61.0250 O.2   270  GLY270     -0.2717
     93  N        -66.3450  -23.4250  -60.8770 N.am  271  ASP271     -0.1973
     94  CA       -67.4160  -24.4160  -60.8020 C.3   271  ASP271      0.1709
     95  C        -67.4780  -25.0880  -59.4270 C.2   271  ASP271      0.2293
     96  O        -68.3030  -25.9750  -59.1960 O.2   271  ASP271     -0.2864
     97  CB       -67.2940  -25.4450  -61.9360 C.3   271  ASP271      0.1436
     98  CG       -65.8570  -25.6330  -62.4080 C.2   271  ASP271      0.3671
     99  OD1      -64.9320  -25.5070  -61.5750 O.co2 271  ASP271     -0.2456
    100  OD2      -65.6530  -25.9030  -63.6130 O.co2 271  ASP271     -0.2456
    101  N        -70.1360  -16.1570  -57.7810 N.3   284  ALA284     -0.1245
    102  CA       -71.5050  -16.2800  -58.2570 C.3   284  ALA284      0.1562
    103  C        -72.3810  -16.5770  -57.0420 C.2   284  ALA284      0.2260
    104  O        -72.3040  -17.6690  -56.4630 O.2   284  ALA284     -0.2867
    105  CB       -71.6210  -17.3970  -59.2800 C.3   284  ALA284      0.0290
    106  N        -75.8320  -17.4350  -55.6130 N.3   286  GLY286     -0.1225
    107  CA       -77.1510  -17.9670  -55.9240 C.3   286  GLY286      0.1811
    108  C        -78.1840  -17.3500  -54.9910 C.2   286  GLY286      0.2280
    109  O        -77.9040  -17.1270  -53.8070 O.2   286  GLY286     -0.2866
@<TRIPOS>BOND
     1     1     2    1
     2     2     3    1
     3     2     5    1
     4     3     4    2
     5     5     6    1
     6    49    48    1
     7    49    50    2
     8    54    53    1
     9    54    55    1
    10     6     7    1
    11    53    52    1
    12     8     7    1
    13     8     9    1
    14    51    48    1
    15    51    52    1
    16    48    47    1
    17    35    34    2
    18    38    37   ar
    19    20    18    1
    20    36    37    1
    21    36    33    1
    22    37    39   ar
    23    18    17    2
    24    18    19    1
    25    43    42    2
    26    34    33    1
    27    34    40   am
    28    17    16    1
    29    42    41    1
    30    28    30   ar
    31    28    26   ar
    32    25    22    1
    33    25    26    1
    34    32    33    1
    35    32    23   am
    36    41    40    1
    37    41    44    1
    38    15    16    1
    39    15    14    1
    40    30    31   ar
    41    22    23    1
    42    22    21    1
    43    26    27   ar
    44    23    24    2
    45    14    11    1
    46    44    45    1
    47    44    46    1
    48    11    12    1
    49    11    10    1
    50    31    29   ar
    51    27    29   ar
    52   100    98   ar
    53    12    13    2
    54    98    97    1
    55    98    99   ar
    56    97    94    1
    57    62    61    1
    58    62    63    1
    59    56    57    1
    60    64    63    1
    61    68    67    2
    62    59    58    2
    63    61    60    1
    64    92    91    2
    65    91    90    1
    66    91    93   am
    67    90    89    1
    68    93    94    1
    69    94    95    1
    70    60    57    1
    71    87    86    1
    72    69    71    1
    73    69    70    1
    74    69    66    1
    75    65    66    1
    76    57    58    1
    77    67    66    1
    78    95    96    2
    79    84    85    1
    80    84    83    1
    81   105   102    1
    82    86    85    2
    83    86    88    1
    84    83    82    1
    85   102   101    1
    86   102   103    1
    87    82    79    1
    88    81    80    2
    89   103   104    2
    90    80    79    1
    91    79    78    1
    92   107   106    1
    93   107   108    1
    94    77    76    1
    95   108   109    2
    96    76    73    1
    97    75    74    2
    98    74    73    1
    99    73    72    1
