@<TRIPOS>MOLECULE
tmp/3peoC00.pdb
 111 108 0 0 0
SMALL
GASTEIGER

@<TRIPOS>ATOM
      1  N         -7.0270   -3.0780    2.4180 N.3    96  TYR96      -0.1227
      2  CA        -7.9190   -1.9040    2.4710 C.3    96  TYR96       0.1736
      3  C         -8.7710   -1.8090    1.2150 C.2    96  TYR96       0.2596
      4  O         -9.5450   -0.8910    1.0730 O.2    96  TYR96      -0.2718
      5  CB        -7.0400   -0.6600    2.5380 C.3    96  TYR96       0.0548
      6  CG        -6.3070   -0.4240    3.8670 C.ar   96  TYR96      -0.0200
      7  CD1       -6.5380   -1.2290    4.9940 C.ar   96  TYR96      -0.0009
      8  CD2       -5.4030    0.6520    3.9890 C.ar   96  TYR96      -0.0009
      9  CE1       -5.9070   -0.9660    6.2240 C.ar   96  TYR96       0.0417
     10  CE2       -4.7490    0.9090    5.2240 C.ar   96  TYR96       0.0417
     11  CZ        -4.9870    0.1040    6.3200 C.ar   96  TYR96       0.1957
     12  OH        -4.3320    0.3930    7.5050 O.3    96  TYR96      -0.2866
     13  N         -8.5410   -2.6750    0.2290 N.am   97  SER97      -0.1952
     14  CA        -9.3840   -2.6640   -0.9800 C.3    97  SER97       0.1924
     15  C         -9.8270   -4.0780   -1.3740 C.2    97  SER97       0.2314
     16  O         -9.8810   -4.4110   -2.5520 O.2    97  SER97      -0.2863
     17  CB        -8.5920   -1.9360   -2.1080 C.3    97  SER97       0.2116
     18  OG        -7.4160   -2.6340   -2.3730 O.3    97  SER97      -0.2180
     19  N         -9.5180   -4.9350   -5.4550 N.3   129  MET129     -0.1245
     20  CA        -9.9030   -4.0600   -6.5760 C.3   129  MET129      0.1570
     21  C         -8.7320   -3.8360   -7.4860 C.2   129  MET129      0.2261
     22  O         -7.6830   -3.4050   -7.0180 O.2   129  MET129     -0.2867
     23  CB       -10.3730   -2.7020   -6.0560 C.3   129  MET129      0.0387
     24  CG       -11.6000   -2.8550   -5.1110 C.3   129  MET129      0.0595
     25  SD       -11.9060   -1.3600   -4.1870 S.3   129  MET129     -0.1393
     26  CE       -12.9850   -2.1010   -2.9280 C.3   129  MET129      0.0692
     27  N         -2.5310   -2.6670   -7.2630 N.3   144  ALA144     -0.1245
     28  CA        -1.9570   -2.4220   -5.9460 C.3   144  ALA144      0.1562
     29  C         -2.9600   -2.6000   -4.8640 C.2   144  ALA144      0.2260
     30  O         -4.1430   -2.3100   -5.0850 O.2   144  ALA144     -0.2867
     31  CB        -1.4520   -0.9460   -5.9410 C.3   144  ALA144      0.0290
     32  N         -3.1450   -2.0540   -0.3820 N.3   146  LYS146     -0.1245
     33  CA        -2.4050   -1.6560    0.8520 C.3   146  LYS146      0.1561
     34  C         -2.9050   -2.6210    1.9680 C.2   146  LYS146      0.2260
     35  O         -4.0820   -2.9490    1.9680 O.2   146  LYS146     -0.2867
     36  CB        -2.8100   -0.2220    1.3040 C.3   146  LYS146      0.0271
     37  CG        -2.4830    0.9210    0.3450 C.3   146  LYS146      0.0035
     38  CD        -3.1180    2.2180    0.9880 C.3   146  LYS146      0.0206
     39  CE        -2.4300    3.4740    0.5850 C.3   146  LYS146      0.1093
     40  NZ        -2.3420    4.5010    1.6790 N.3   146  LYS146     -0.1314
     41  N         -3.2800   -1.8520    9.8040 N.3   149  SER149     -0.1202
     42  CA        -4.2380   -2.0550   10.8830 C.3   149  SER149      0.2020
     43  C         -5.5480   -1.4010   10.5120 C.2   149  SER149      0.2619
     44  O         -5.5950   -0.3530    9.8600 O.2   149  SER149     -0.2717
     45  CB        -3.6880   -1.4860   12.1570 C.3   149  SER149      0.2103
     46  OG        -4.7140   -1.4120   13.0910 O.3   149  SER149     -0.2182
     47  N         -6.6320   -2.0570   10.8400 N.am  150  TRP150     -0.1961
     48  CA        -7.9530   -1.4050   10.5970 C.3   150  TRP150      0.1771
     49  C         -8.2870   -0.3300   11.6610 C.2   150  TRP150      0.2619
     50  O         -8.8940    0.6980   11.3250 O.2   150  TRP150     -0.2715
     51  CB        -9.0960   -2.4410   10.6040 C.3   150  TRP150      0.0590
     52  CG       -10.3410   -1.8230   10.0150 C.ar  150  TRP150      0.0006
     53  CD1      -11.4830   -1.4430   10.6820 C.ar  150  TRP150      0.0946
     54  CD2      -10.5240   -1.4600    8.6580 C.ar  150  TRP150      0.0152
     55  NE1      -12.3580   -0.9270    9.8030 N.ar  150  TRP150     -0.2442
     56  CE2      -11.8020   -0.9070    8.5530 C.ar  150  TRP150      0.0810
     57  CE3       -9.7130   -1.5540    7.4970 C.ar  150  TRP150      0.0012
     58  CZ2      -12.3150   -0.4120    7.3290 C.ar  150  TRP150      0.0191
     59  CZ3      -10.1760   -1.0710    6.2990 C.ar  150  TRP150      0.0001
     60  CH2      -11.4840   -0.4730    6.2200 C.ar  150  TRP150      0.0015
     61  N         -7.9020   -0.5630   12.9250 N.am  151  VAL151     -0.1977
     62  CA        -8.3860    0.2740   14.0550 C.3   151  VAL151      0.1596
     63  C         -7.2800    0.9210   14.8770 C.2   151  VAL151      0.2287
     64  O         -7.5370    1.8340   15.6480 O.2   151  VAL151     -0.2864
     65  CB        -9.2940   -0.5090   15.0250 C.3   151  VAL151      0.0276
     66  CG1      -10.5300   -1.0750   14.2810 C.3   151  VAL151      0.0022
     67  CG2       -8.5240   -1.5990   15.7340 C.3   151  VAL151      0.0022
     68  N         -2.3650   13.0010    6.7390 N.3   191  TYR191     -0.1241
     69  CA        -3.5440   13.6590    6.2510 C.3   191  TYR191      0.1605
     70  C         -3.8630   14.8330    7.1580 C.2   191  TYR191      0.2264
     71  O         -3.6630   14.7510    8.3740 O.2   191  TYR191     -0.2867
     72  CB        -4.6880   12.6430    6.1450 C.3   191  TYR191      0.0534
     73  CG        -4.3410   11.5880    5.1480 C.ar  191  TYR191     -0.0201
     74  CD1       -4.1980   11.9060    3.7890 C.ar  191  TYR191     -0.0009
     75  CD2       -4.1580   10.2650    5.5560 C.ar  191  TYR191     -0.0009
     76  CE1       -3.8540   10.9100    2.8570 C.ar  191  TYR191      0.0417
     77  CE2       -3.8230    9.2710    4.6670 C.ar  191  TYR191      0.0417
     78  CZ        -3.6600    9.5800    3.3230 C.ar  191  TYR191      0.1957
     79  OH        -3.3390    8.5510    2.4800 O.3   191  TYR191     -0.2866
     80  N         -6.9270   16.0380    7.9290 N.3   193  CYS193     -0.1221
     81  CA        -8.0450   15.5650    8.7760 C.3   193  CYS193      0.1808
     82  C         -7.6050   15.1360   10.1720 C.2   193  CYS193      0.2601
     83  O         -8.3400   15.3090   11.1360 O.2   193  CYS193     -0.2717
     84  CB        -8.7600   14.3480    8.1490 C.3   193  CYS193      0.0970
     85  SG        -7.8640   12.6880    8.1300 S.3   193  CYS193     -0.0800
     86  N         -6.4040   14.5530   10.2630 N.am  194  CYS194     -0.1970
     87  CA        -6.0370   13.6720   11.3780 C.3   194  CYS194      0.1712
     88  C         -4.5820   13.9190   11.8280 C.2   194  CYS194      0.2296
     89  O         -3.6830   13.9720   10.9810 O.2   194  CYS194     -0.2864
     90  CB        -6.1970   12.2250   10.8780 C.3   194  CYS194      0.0983
     91  SG        -7.8580   11.8210   10.0210 S.3   194  CYS194     -0.0798
     92  N         -0.8130    7.6950    9.0520 N.3   198  TYR198     -0.1241
     93  CA        -1.4290    6.5480    8.4350 C.3   198  TYR198      0.1605
     94  C         -0.2900    5.6830    7.8740 C.2   198  TYR198      0.2264
     95  O          0.3910    6.0940    6.9540 O.2   198  TYR198     -0.2867
     96  CB        -2.3910    7.0430    7.3200 C.3   198  TYR198      0.0534
     97  CG        -3.8010    7.3410    7.8600 C.ar  198  TYR198     -0.0201
     98  CD1       -4.9250    6.6470    7.3480 C.ar  198  TYR198     -0.0009
     99  CD2       -4.0110    8.2630    8.9110 C.ar  198  TYR198     -0.0009
    100  CE1       -6.2320    6.8810    7.8500 C.ar  198  TYR198      0.0417
    101  CE2       -5.3140    8.5110    9.4200 C.ar  198  TYR198      0.0417
    102  CZ        -6.4170    7.7960    8.8830 C.ar  198  TYR198      0.1957
    103  OH        -7.7040    7.9770    9.3560 O.3   198  TYR198     -0.2866
    104  N          2.3280   -1.3060    0.9950 N.3   202  ASN202     -0.1240
    105  CA         1.6630   -1.3050   -0.3000 C.3   202  ASN202      0.1653
    106  C          2.2370   -2.4250   -1.1210 C.2   202  ASN202      0.2266
    107  O          3.4640   -2.5770   -1.2220 O.2   202  ASN202     -0.2867
    108  CB         1.9320    0.0130   -1.0100 C.3   202  ASN202      0.1155
    109  CG         1.0200    0.2250   -2.2260 C.2   202  ASN202      0.2627
    110  OD1       -0.1690   -0.2440   -2.2650 O.2   202  ASN202     -0.2716
    111  ND2        1.5280    1.0040   -3.1980 N.am  202  ASN202     -0.0877
@<TRIPOS>BOND
     1    21    22    2
     2    21    20    1
     3    27    28    1
     4    20    23    1
     5    20    19    1
     6    23    24    1
     7    28    31    1
     8    28    29    1
     9    24    25    1
    10    30    29    2
    11    25    26    1
    12   111   109   am
    13    16    15    2
    14    18    17    1
    15   110   109    2
    16   109   108    1
    17    17    14    1
    18    15    14    1
    19   107   106    2
    20   106   105    1
    21   108   105    1
    22    14    13    1
    23    32    33    1
    24   105   104    1
    25    13     3   am
    26    37    38    1
    27    37    36    1
    28    39    38    1
    29    39    40    1
    30    33    36    1
    31    33    34    1
    32     4     3    2
    33     3     2    1
    34    34    35    2
    35     1     2    1
    36     2     5    1
    37    79    78    1
    38     5     6    1
    39    76    78   ar
    40    76    74   ar
    41    78    77   ar
    42    74    73   ar
    43     6     8   ar
    44     6     7   ar
    45     8    10   ar
    46    77    75   ar
    47     7     9   ar
    48    73    75   ar
    49    73    72    1
    50    10    11   ar
    51    72    69    1
    52    60    59   ar
    53    60    58   ar
    54     9    11   ar
    55    69    68    1
    56    69    70    1
    57    59    57   ar
    58    11    12    1
    59    95    94    2
    60    70    71    2
    61    96    97    1
    62    96    93    1
    63    58    56   ar
    64    98   100   ar
    65    98    97   ar
    66    57    54   ar
    67   100   102   ar
    68    97    99   ar
    69    94    93    1
    70    80    81    1
    71    85    84    1
    72    85    91    1
    73    84    81    1
    74    93    92    1
    75    56    54   ar
    76    56    55   ar
    77    54    52   ar
    78    81    82    1
    79   102   103    1
    80   102   101   ar
    81    99   101   ar
    82    55    53   ar
    83    41    42    1
    84    44    43    2
    85    52    51    1
    86    52    53   ar
    87    91    90    1
    88    82    86   am
    89    82    83    2
    90    86    87    1
    91    43    47   am
    92    43    42    1
    93    48    51    1
    94    48    47    1
    95    48    49    1
    96    90    87    1
    97    42    45    1
    98    89    88    2
    99    50    49    2
   100    87    88    1
   101    49    61   am
   102    45    46    1
   103    61    62    1
   104    62    63    1
   105    62    65    1
   106    66    65    1
   107    63    64    2
   108    65    67    1
