@<TRIPOS>MOLECULE
tmp/3peqA01.pdb
 87 79 0 0 0
SMALL
GASTEIGER

@<TRIPOS>ATOM
      1  N         26.8800   15.3860   63.2150 N.3    73  VAL73      -0.1245
      2  CA        27.1710   16.3950   64.2320 C.3    73  VAL73       0.1561
      3  C         26.0480   17.4390   64.3030 C.2    73  VAL73       0.2260
      4  O         25.6080   17.8060   65.3950 O.2    73  VAL73      -0.2867
      5  CB        28.5800   17.0420   64.0230 C.3    73  VAL73       0.0252
      6  CG1       28.7560   18.2920   64.8810 C.3    73  VAL73       0.0019
      7  CG2       29.6690   16.0310   64.3370 C.3    73  VAL73       0.0019
      8  N         23.6890   18.0530   67.5260 N.3    77  THR77      -0.1218
      9  CA        23.5040   19.4000   68.0280 C.3    77  THR77       0.1862
     10  C         22.0170   19.6880   68.2450 C.2    77  THR77       0.2287
     11  O         21.6320   20.1490   69.3170 O.2    77  THR77      -0.2866
     12  CB        24.1330   20.4330   67.0620 C.3    77  THR77       0.1770
     13  OG1       25.5330   20.1510   66.9180 O.3    77  THR77      -0.2211
     14  CG2       23.9450   21.8640   67.5740 C.3    77  THR77       0.0375
     15  N         28.8780   23.7500   73.7580 N.3    95  VAL95      -0.1245
     16  CA        29.9310   23.4910   72.7710 C.3    95  VAL95       0.1561
     17  C         30.9960   22.5370   73.3090 C.2    95  VAL95       0.2260
     18  O         31.4530   21.6510   72.5870 O.2    95  VAL95      -0.2867
     19  CB        30.5850   24.8390   72.2820 C.3    95  VAL95       0.0252
     20  CG1       31.9350   24.6230   71.6010 C.3    95  VAL95       0.0019
     21  CG2       29.6470   25.5690   71.3460 C.3    95  VAL95       0.0019
     22  N         29.4840   19.0440   73.3160 N.3    98  LEU98      -0.1231
     23  CA        29.3700   18.5110   71.9570 C.3    98  LEU98       0.1693
     24  C         30.7560   18.2130   71.3920 C.2    98  LEU98       0.2591
     25  O         30.9500   17.1920   70.7410 O.2    98  LEU98      -0.2718
     26  CB        28.5760   19.4550   71.0430 C.3    98  LEU98       0.0284
     27  CG        27.0510   19.4910   71.2560 C.3    98  LEU98       0.0019
     28  CD1       26.4410   20.7470   70.6390 C.3    98  LEU98       0.0001
     29  CD2       26.3390   18.2410   70.7320 C.3    98  LEU98       0.0001
     30  N         31.7180   19.0950   71.6690 N.am   99  LYS99      -0.1980
     31  CA        33.0930   18.8860   71.2440 C.3    99  LYS99       0.1596
     32  C         33.5560   17.4920   71.6460 C.2    99  LYS99       0.2287
     33  O         33.9300   16.6900   70.7900 O.2    99  LYS99      -0.2864
     34  CB        34.0460   19.9460   71.8260 C.3    99  LYS99       0.0298
     35  CG        35.5000   19.7120   71.4390 C.3    99  LYS99       0.0038
     36  CD        36.4490   20.8290   71.8620 C.3    99  LYS99       0.0206
     37  CE        37.8280   20.5590   71.2630 C.3    99  LYS99       0.1093
     38  NZ        38.7580   21.7020   71.3070 N.3    99  LYS99      -0.1314
     39  N         30.4710   14.2240   70.6840 N.3   102  VAL102     -0.1245
     40  CA        29.8480   13.8110   69.4060 C.3   102  VAL102      0.1561
     41  C         30.3950   12.5010   68.8210 C.2   102  VAL102      0.2260
     42  O         29.6210   11.6830   68.3270 O.2   102  VAL102     -0.2867
     43  CB        29.7720   14.9340   68.3150 C.3   102  VAL102      0.0252
     44  CG1       28.8210   16.0340   68.7480 C.3   102  VAL102      0.0019
     45  CG2       31.1630   15.4820   67.9490 C.3   102  VAL102      0.0019
     46  N         35.2110   21.9860   60.5720 N.3   248  LEU248     -0.1245
     47  CA        34.5130   21.6460   61.8080 C.3   248  LEU248      0.1561
     48  C         35.1360   20.4460   62.5240 C.2   248  LEU248      0.2260
     49  O         35.2930   20.4600   63.7520 O.2   248  LEU248     -0.2867
     50  CB        33.0240   21.3970   61.5450 C.3   248  LEU248      0.0270
     51  CG        32.1990   21.1030   62.8040 C.3   248  LEU248      0.0019
     52  CD1       31.8800   22.4070   63.5380 C.3   248  LEU248      0.0001
     53  CD2       30.9340   20.3390   62.4790 C.3   248  LEU248      0.0001
     54  N         38.2290   21.5470   64.1560 N.3   251  GLU251     -0.1231
     55  CA        37.8800   22.2580   65.3860 C.3   251  GLU251      0.1699
     56  C         37.5860   21.2820   66.5100 C.2   251  GLU251      0.2592
     57  O         38.0330   21.4940   67.6410 O.2   251  GLU251     -0.2718
     58  CB        36.6750   23.1880   65.1750 C.3   251  GLU251      0.0402
     59  CG        36.9860   24.4750   64.4270 C.3   251  GLU251      0.1161
     60  CD        37.8630   25.4310   65.2270 C.2   251  GLU251      0.3649
     61  OE1       37.3580   26.0440   66.1960 O.co2 251  GLU251     -0.2457
     62  OE2       39.0550   25.5710   64.8740 O.co2 251  GLU251     -0.2457
     63  N         36.8400   20.2180   66.1940 N.am  252  ILE252     -0.1980
     64  CA        36.5170   19.1790   67.1780 C.3   252  ILE252      0.1595
     65  C         37.7900   18.5250   67.7150 C.2   252  ILE252      0.2287
     66  O         37.9450   18.3710   68.9200 O.2   252  ILE252     -0.2864
     67  CB        35.5370   18.1080   66.6280 C.3   252  ILE252      0.0276
     68  CG1       34.1730   18.7320   66.3130 C.3   252  ILE252      0.0022
     69  CG2       35.3790   16.9500   67.6190 C.3   252  ILE252      0.0022
     70  CD1       33.1580   17.7740   65.6810 C.3   252  ILE252      0.0001
     71  N         40.9500   19.6140   67.5890 N.3   254  LYS254     -0.1231
     72  CA        41.8970   20.5730   68.1370 C.3   254  LYS254      0.1693
     73  C         42.0240   20.4110   69.6490 C.2   254  LYS254      0.2592
     74  O         41.0150   20.2900   70.3510 O.2   254  LYS254     -0.2718
     75  CB        41.4540   21.9940   67.8020 C.3   254  LYS254      0.0285
     76  CG        42.5890   22.9970   67.7260 C.3   254  LYS254      0.0035
     77  CD        42.1610   24.3550   68.2490 C.3   254  LYS254      0.0206
     78  CE        41.0700   24.9840   67.3920 C.3   254  LYS254      0.1093
     79  NZ        40.7660   26.3850   67.8080 N.3   254  LYS254     -0.1314
     80  N         43.2660   20.3950   70.1360 N.am  255  ASP255     -0.1974
     81  CA        43.5610   20.1830   71.5570 C.3   255  ASP255      0.1709
     82  C         42.9830   18.8460   72.0400 C.2   255  ASP255      0.2293
     83  O         42.8250   18.6140   73.2450 O.2   255  ASP255     -0.2864
     84  CB        43.0270   21.3400   72.4140 C.3   255  ASP255      0.1436
     85  CG        43.3890   22.7100   71.8540 C.2   255  ASP255      0.3671
     86  OD1       42.5780   23.6490   72.0390 O.co2 255  ASP255     -0.2456
     87  OD2       44.4740   22.8590   71.2380 O.co2 255  ASP255     -0.2456
@<TRIPOS>BOND
     1    46    47    1
     2    50    47    1
     3    50    51    1
     4    47    48    1
     5    53    51    1
     6    48    49    2
     7    51    52    1
     8     1     2    1
     9     5     2    1
    10     5     7    1
    11     5     6    1
    12    54    55    1
    13     2     3    1
    14     3     4    2
    15    59    58    1
    16    59    60    1
    17    62    60   ar
    18    58    55    1
    19    60    61   ar
    20    55    56    1
    21    70    68    1
    22    63    56   am
    23    63    64    1
    24    68    67    1
    25    56    57    2
    26    67    64    1
    27    67    69    1
    28    13    12    1
    29    12    14    1
    30    12     9    1
    31    64    65    1
    32    78    79    1
    33    78    77    1
    34     8     9    1
    35    71    72    1
    36    65    66    2
    37    76    75    1
    38    76    77    1
    39    75    72    1
    40    45    43    1
    41     9    10    1
    42    72    73    1
    43    10    11    2
    44    43    44    1
    45    43    40    1
    46    42    41    2
    47    41    40    1
    48    40    39    1
    49    73    80   am
    50    73    74    2
    51    80    81    1
    52    28    27    1
    53    29    27    1
    54    25    24    2
    55    33    32    2
    56    26    27    1
    57    26    23    1
    58    87    85   ar
    59    31    32    1
    60    31    30    1
    61    31    34    1
    62    37    38    1
    63    37    36    1
    64    21    19    1
    65    24    30   am
    66    24    23    1
    67    35    34    1
    68    35    36    1
    69    81    82    1
    70    81    84    1
    71    20    19    1
    72    85    86   ar
    73    85    84    1
    74    23    22    1
    75    82    83    2
    76    19    16    1
    77    18    17    2
    78    16    17    1
    79    16    15    1
