@<TRIPOS>MOLECULE
tmp/3peqA02.pdb
 122 116 0 0 0
SMALL
GASTEIGER

@<TRIPOS>ATOM
      1  N         37.0550    8.4480   52.3220 N.3    62  PHE62      -0.1241
      2  CA        37.3610    9.2950   53.4710 C.3    62  PHE62       0.1605
      3  C         36.6260   10.6300   53.3940 C.2    62  PHE62       0.2264
      4  O         36.1260   11.1130   54.4060 O.2    62  PHE62      -0.2867
      5  CB        38.8750    9.5070   53.5860 C.3    62  PHE62       0.0534
      6  CG        39.2970   10.3860   54.7400 C.ar   62  PHE62      -0.0203
      7  CD1       40.2790   11.3570   54.5570 C.ar   62  PHE62      -0.0042
      8  CD2       38.7340   10.2390   56.0030 C.ar   62  PHE62      -0.0042
      9  CE1       40.7000   12.1710   55.6130 C.ar   62  PHE62      -0.0003
     10  CE2       39.1390   11.0610   57.0650 C.ar   62  PHE62      -0.0003
     11  CZ        40.1290   12.0200   56.8700 C.ar   62  PHE62      -0.0000
     12  N         33.5770   12.1260   55.9940 N.3    66  GLN66      -0.1245
     13  CA        33.5890   13.4190   56.6410 C.3    66  GLN66       0.1566
     14  C         32.2400   14.0950   56.4740 C.2    66  GLN66       0.2260
     15  O         31.6870   14.6140   57.4380 O.2    66  GLN66      -0.2867
     16  CB        34.7080   14.2850   56.0740 C.3    66  GLN66       0.0367
     17  CG        36.0980   13.7580   56.3620 C.3    66  GLN66       0.0905
     18  CD        37.1670   14.7810   56.0530 C.2    66  GLN66       0.2608
     19  OE1       37.1470   15.8910   56.5820 O.2    66  GLN66      -0.2717
     20  NE2       38.1130   14.4120   55.2010 N.am   66  GLN66      -0.0878
     21  N         41.0030    9.2470   67.3670 N.3   230  ALA230     -0.1231
     22  CA        41.6900   10.5500   67.3430 C.3   230  ALA230      0.1694
     23  C         43.1890   10.4050   67.0730 C.2   230  ALA230      0.2591
     24  O         43.7800   11.2100   66.3540 O.2   230  ALA230     -0.2718
     25  CB        41.4520   11.3110   68.6500 C.3   230  ALA230      0.0304
     26  N         43.8000    9.3690   67.6320 N.am  231  GLN231     -0.1979
     27  CA        45.2160    9.1010   67.3770 C.3   231  GLN231      0.1601
     28  C         45.4400    8.7620   65.9080 C.2   231  GLN231      0.2287
     29  O         46.3990    9.2290   65.2950 O.2   231  GLN231     -0.2864
     30  CB        45.7360    7.9880   68.2860 C.3   231  GLN231      0.0394
     31  CG        45.8390    8.4190   69.7410 C.3   231  GLN231      0.0908
     32  CD        46.1720    7.2860   70.6880 C.2   231  GLN231      0.2608
     33  OE1       46.0830    6.1030   70.3400 O.2   231  GLN231     -0.2717
     34  NE2       46.5540    7.6440   71.9020 N.am  231  GLN231     -0.0878
     35  N         43.4060    9.6630   63.4330 N.3   233  MET233     -0.1230
     36  CA        43.1140   10.8730   62.6680 C.3   233  MET233      0.1702
     37  C         44.2980   11.8260   62.6490 C.2   233  MET233      0.2592
     38  O         44.5210   12.4840   61.6410 O.2   233  MET233     -0.2718
     39  CB        41.8540   11.5830   63.1790 C.3   233  MET233      0.0401
     40  CG        40.5710   10.7900   62.9700 C.3   233  MET233      0.0596
     41  SD        40.3350   10.2520   61.2730 S.3   233  MET233     -0.1393
     42  CE        39.7550   11.7560   60.5270 C.3   233  MET233      0.0692
     43  N         45.0470   11.8900   63.7560 N.am  234  GLN234     -0.1979
     44  CA        46.2800   12.6750   63.8310 C.3   234  GLN234      0.1601
     45  C         47.3070   12.1390   62.8300 C.2   234  GLN234      0.2287
     46  O         48.0400   12.9040   62.2070 O.2   234  GLN234     -0.2864
     47  CB        46.8530   12.6510   65.2600 C.3   234  GLN234      0.0394
     48  CG        47.7780   13.8230   65.5930 C.3   234  GLN234      0.0908
     49  CD        48.1440   13.9040   67.0750 C.2   234  GLN234      0.2608
     50  OE1       48.1890   12.8930   67.7780 O.2   234  GLN234     -0.2717
     51  NE2       48.4140   15.1180   67.5500 N.am  234  GLN234     -0.0878
     52  N         46.6390   10.5940   59.9670 N.3   236  ILE236     -0.1231
     53  CA        46.2010   11.0550   58.6520 C.3   236  ILE236      0.1692
     54  C         46.6750   12.4940   58.4080 C.2   236  ILE236      0.2591
     55  O         47.3110   12.7770   57.3900 O.2   236  ILE236     -0.2718
     56  CB        44.6620   10.9340   58.4640 C.3   236  ILE236      0.0266
     57  CG1       44.2600    9.4650   58.3430 C.3   236  ILE236      0.0019
     58  CG2       44.2030   11.7070   57.2230 C.3   236  ILE236      0.0020
     59  CD1       42.7810    9.2540   58.2760 C.3   236  ILE236      0.0001
     60  N         46.3920   13.3830   59.3570 N.am  237  LYS237     -0.1980
     61  CA        46.8230   14.7800   59.2630 C.3   237  LYS237      0.1596
     62  C         48.3330   14.9310   59.0370 C.2   237  LYS237      0.2287
     63  O         48.7680   15.8040   58.2850 O.2   237  LYS237     -0.2864
     64  CB        46.3890   15.5680   60.5000 C.3   237  LYS237      0.0298
     65  CG        46.7830   17.0390   60.4430 C.3   237  LYS237      0.0038
     66  CD        46.1200   17.8560   61.5400 C.3   237  LYS237      0.0206
     67  CE        46.6480   19.2940   61.5240 C.3   237  LYS237      0.1093
     68  NZ        46.0050   20.1280   62.5730 N.3   237  LYS237     -0.1314
     69  N         40.8130   18.1450   55.3010 N.3   245  LEU245     -0.1245
     70  CA        40.0780   17.8240   56.5080 C.3   245  LEU245      0.1561
     71  C         39.0390   18.9180   56.7340 C.2   245  LEU245      0.2260
     72  O         39.3790   20.0970   56.7480 O.2   245  LEU245     -0.2867
     73  CB        41.0530   17.7370   57.6930 C.3   245  LEU245      0.0270
     74  CG        42.4550   17.1340   57.4570 C.3   245  LEU245      0.0019
     75  CD1       43.4010   17.4310   58.6160 C.3   245  LEU245      0.0001
     76  CD2       42.4190   15.6200   57.1780 C.3   245  LEU245      0.0001
     77  N         35.4920   19.4120   61.7640 N.3   249  LEU249     -0.1231
     78  CA        36.1510   18.2480   62.3480 C.3   249  LEU249      0.1693
     79  C         37.5310   18.6220   62.8990 C.2   249  LEU249      0.2591
     80  O         37.9480   18.1020   63.9380 O.2   249  LEU249     -0.2718
     81  CB        36.2450   17.0900   61.3420 C.3   249  LEU249      0.0284
     82  CG        34.9450   16.6200   60.6680 C.3   249  LEU249      0.0019
     83  CD1       35.2290   15.4540   59.7120 C.3   249  LEU249      0.0001
     84  CD2       33.8580   16.2500   61.6950 C.3   249  LEU249      0.0001
     85  N         38.2180   19.5350   62.2120 N.am  250  GLN250     -0.1979
     86  CA        39.4890   20.0740   62.6910 C.3   250  GLN250      0.1601
     87  C         39.3140   20.7780   64.0340 C.2   250  GLN250      0.2287
     88  O         40.1470   20.6290   64.9230 O.2   250  GLN250     -0.2864
     89  CB        40.1150   21.0460   61.6730 C.3   250  GLN250      0.0394
     90  CG        40.4880   20.4070   60.3310 C.3   250  GLN250      0.0908
     91  CD        41.4720   21.2460   59.5200 C.2   250  GLN250      0.2608
     92  OE1       42.5720   21.5690   59.9930 O.2   250  GLN250     -0.2717
     93  NE2       41.0870   21.5930   58.2870 N.am  250  GLN250     -0.0878
     94  N         38.7150   18.1790   66.8250 N.3   253  TYR253     -0.1227
     95  CA        39.9200   17.4480   67.2290 C.3   253  TYR253      0.1736
     96  C         40.9760   18.3180   67.8900 C.2   253  TYR253      0.2595
     97  O         41.7910   17.8160   68.6630 O.2   253  TYR253     -0.2718
     98  CB        40.5160   16.6640   66.0520 C.3   253  TYR253      0.0548
     99  CG        39.7300   15.4080   65.7330 C.ar  253  TYR253     -0.0200
    100  CD1       39.7430   14.3180   66.5990 C.ar  253  TYR253     -0.0009
    101  CD2       38.9540   15.3190   64.5710 C.ar  253  TYR253     -0.0009
    102  CE1       39.0060   13.1660   66.3140 C.ar  253  TYR253      0.0417
    103  CE2       38.2300   14.1760   64.2750 C.ar  253  TYR253      0.0417
    104  CZ        38.2590   13.1040   65.1520 C.ar  253  TYR253      0.1957
    105  OH        37.5400   11.9690   64.8680 O.3   253  TYR253     -0.2866
    106  N         40.9500   19.6140   67.5890 N.am  254  LYS254     -0.1966
    107  CA        41.8970   20.5730   68.1370 C.3   254  LYS254      0.1728
    108  C         42.0240   20.4110   69.6490 C.2   254  LYS254      0.2616
    109  O         41.0150   20.2900   70.3510 O.2   254  LYS254     -0.2715
    110  CB        41.4540   21.9940   67.8020 C.3   254  LYS254      0.0311
    111  CG        42.5890   22.9970   67.7260 C.3   254  LYS254      0.0038
    112  CD        42.1610   24.3550   68.2490 C.3   254  LYS254      0.0206
    113  CE        41.0700   24.9840   67.3920 C.3   254  LYS254      0.1093
    114  NZ        40.7660   26.3850   67.8080 N.3   254  LYS254     -0.1314
    115  N         43.2660   20.3950   70.1360 N.am  255  ASP255     -0.1971
    116  CA        43.5610   20.1830   71.5570 C.3   255  ASP255      0.1709
    117  C         42.9830   18.8460   72.0400 C.2   255  ASP255      0.2293
    118  O         42.8250   18.6140   73.2450 O.2   255  ASP255     -0.2864
    119  CB        43.0270   21.3400   72.4140 C.3   255  ASP255      0.1436
    120  CG        43.3890   22.7100   71.8540 C.2   255  ASP255      0.3671
    121  OD1       42.5780   23.6490   72.0390 O.co2 255  ASP255     -0.2456
    122  OD2       44.4740   22.8590   71.2380 O.co2 255  ASP255     -0.2456
@<TRIPOS>BOND
     1     1     2    1
     2     3     2    1
     3     3     4    2
     4     2     5    1
     5     5     6    1
     6     7     6   ar
     7     7     9   ar
     8     6     8   ar
     9    20    18   am
    10    69    70    1
    11     9    11   ar
    12    12    13    1
    13     8    10   ar
    14    18    17    1
    15    18    19    2
    16    16    17    1
    17    16    13    1
    18    14    13    1
    19    14    15    2
    20    70    71    1
    21    70    73    1
    22    71    72    2
    23    11    10   ar
    24    76    74    1
    25    58    56    1
    26    55    54    2
    27    74    73    1
    28    74    75    1
    29    59    57    1
    30    63    62    2
    31    93    91   am
    32    57    56    1
    33    54    53    1
    34    54    60   am
    35    56    53    1
    36    53    52    1
    37    62    61    1
    38    61    60    1
    39    61    64    1
    40    91    92    2
    41    91    90    1
    42    83    82    1
    43    90    89    1
    44    65    64    1
    45    65    66    1
    46    42    41    1
    47    82    81    1
    48    82    84    1
    49    41    40    1
    50    81    78    1
    51    67    66    1
    52    67    68    1
    53    38    37    2
    54    89    86    1
    55    77    78    1
    56    46    45    2
    57    85    86    1
    58    85    79   am
    59    78    79    1
    60    37    36    1
    61    37    43   am
    62    36    39    1
    63    36    35    1
    64    86    87    1
    65    45    44    1
    66    79    80    2
    67    40    39    1
    68    43    44    1
    69    44    47    1
    70    87    88    2
    71   103   101   ar
    72   103   104   ar
    73   101    99   ar
    74   105   104    1
    75   104   102   ar
    76    47    48    1
    77    29    28    2
    78    48    49    1
    79    99    98    1
    80    99   100   ar
    81    28    27    1
    82    98    95    1
    83   102   100   ar
    84    24    23    2
    85    94    95    1
    86    23    22    1
    87    23    26   am
    88    49    51   am
    89    49    50    2
    90    95    96    1
    91    22    21    1
    92    22    25    1
    93    27    26    1
    94    27    30    1
    95   113   114    1
    96   113   112    1
    97   106    96   am
    98   106   107    1
    99   111   110    1
   100   111   112    1
   101   110   107    1
   102    96    97    2
   103   107   108    1
   104    30    31    1
   105   108   115   am
   106   108   109    2
   107    31    32    1
   108   115   116    1
   109    33    32    2
   110    32    34   am
   111   122   120   ar
   112   116   117    1
   113   116   119    1
   114   120   121   ar
   115   120   119    1
   116   117   118    2
