@<TRIPOS>MOLECULE
tmp/3pf1B00.pdb
 218 207 0 0 0
SMALL
GASTEIGER

@<TRIPOS>ATOM
      1  N        -34.5130   -9.2780  -18.6070 N.3     3  PHE3       -0.1241
      2  CA       -34.3680   -9.5800  -20.0280 C.3     3  PHE3        0.1605
      3  C        -35.0900   -8.5680  -20.9360 C.2     3  PHE3        0.2264
      4  O        -35.4510   -8.8610  -22.0810 O.2     3  PHE3       -0.2867
      5  CB       -34.7780  -11.0280  -20.3230 C.3     3  PHE3        0.0534
      6  CG       -36.1260  -11.4110  -19.7710 C.ar    3  PHE3       -0.0203
      7  CD1      -37.2710  -11.2650  -20.5380 C.ar    3  PHE3       -0.0042
      8  CD2      -36.2420  -11.9390  -18.4920 C.ar    3  PHE3       -0.0042
      9  CE1      -38.5100  -11.6330  -20.0360 C.ar    3  PHE3       -0.0003
     10  CE2      -37.4770  -12.3130  -17.9820 C.ar    3  PHE3       -0.0003
     11  CZ       -38.6150  -12.1580  -18.7530 C.ar    3  PHE3       -0.0000
     12  N        -33.0950  -12.5310  -24.5110 N.3   104  LEU104     -0.1245
     13  CA       -32.1650  -13.0750  -23.5520 C.3   104  LEU104      0.1561
     14  C        -31.4680  -14.2550  -24.1920 C.2   104  LEU104      0.2260
     15  O        -32.1130  -15.1090  -24.8100 O.2   104  LEU104     -0.2867
     16  CB       -32.9340  -13.5130  -22.3060 C.3   104  LEU104      0.0270
     17  CG       -32.1770  -14.0250  -21.0870 C.3   104  LEU104      0.0019
     18  CD1      -31.8580  -15.4680  -21.2420 C.3   104  LEU104      0.0001
     19  CD2      -30.9290  -13.2110  -20.8890 C.3   104  LEU104      0.0001
     20  N        -29.8630  -20.6680  -22.6220 N.3   121  THR121     -0.1203
     21  CA       -31.1320  -20.0120  -22.3610 C.3   121  THR121      0.1994
     22  C        -31.3680  -18.9570  -23.4060 C.2   121  THR121      0.2618
     23  O        -30.6100  -18.0120  -23.4960 O.2   121  THR121     -0.2717
     24  CB       -31.1610  -19.3580  -20.9940 C.3   121  THR121      0.1784
     25  OG1      -30.9660  -20.3640  -20.0080 O.3   121  THR121     -0.2211
     26  CG2      -32.5060  -18.7290  -20.7490 C.3   121  THR121      0.0376
     27  N        -32.4250  -19.1270  -24.1900 N.am  122  ASP122     -0.1959
     28  CA       -32.7020  -18.2590  -25.3300 C.3   122  ASP122      0.1840
     29  C        -34.1490  -17.8080  -25.3510 C.2   122  ASP122      0.2621
     30  O        -35.0650  -18.6160  -25.3200 O.2   122  ASP122     -0.2715
     31  CB       -32.4060  -18.9880  -26.6370 C.3   122  ASP122      0.1450
     32  CG       -30.9330  -19.1050  -26.9160 C.2   122  ASP122      0.3671
     33  OD1      -30.3590  -20.1900  -26.6840 O.co2 122  ASP122     -0.2456
     34  OD2      -30.3430  -18.1060  -27.3760 O.co2 122  ASP122     -0.2456
     35  N        -34.3430  -16.5040  -25.3980 N.am  123  LEU123     -0.1977
     36  CA       -35.6560  -15.9260  -25.6050 C.3   123  LEU123      0.1596
     37  C        -35.5040  -14.8880  -26.6890 C.2   123  LEU123      0.2287
     38  O        -34.6840  -13.9870  -26.5540 O.2   123  LEU123     -0.2864
     39  CB       -36.1470  -15.2370  -24.3380 C.3   123  LEU123      0.0297
     40  CG       -37.4990  -14.5420  -24.4880 C.3   123  LEU123      0.0022
     41  CD1      -38.5300  -15.5330  -25.0200 C.3   123  LEU123      0.0001
     42  CD2      -37.9600  -13.9190  -23.1790 C.3   123  LEU123      0.0001
     43  N        -38.4180  -19.5830  -27.6840 N.3   153  ALA153     -0.1231
     44  CA       -37.6040  -19.8230  -26.4960 C.3   153  ALA153      0.1694
     45  C        -37.0020  -21.2110  -26.4680 C.2   153  ALA153      0.2592
     46  O        -37.5310  -22.1520  -27.0710 O.2   153  ALA153     -0.2718
     47  CB       -38.4140  -19.6000  -25.2440 C.3   153  ALA153      0.0304
     48  N        -35.8870  -21.3340  -25.7590 N.am  154  LYS154     -0.1966
     49  CA       -35.2640  -22.6330  -25.5670 C.3   154  LYS154      0.1728
     50  C        -34.4690  -22.6360  -24.2850 C.2   154  LYS154      0.2616
     51  O        -33.7100  -21.7050  -24.0030 O.2   154  LYS154     -0.2715
     52  CB       -34.3510  -22.9700  -26.7370 C.3   154  LYS154      0.0311
     53  CG       -33.8620  -24.3970  -26.7450 C.3   154  LYS154      0.0038
     54  CD       -33.1860  -24.6820  -28.0530 C.3   154  LYS154      0.0206
     55  CE       -31.7990  -25.2320  -27.8400 C.3   154  LYS154      0.1093
     56  NZ       -31.0570  -25.2600  -29.1230 N.3   154  LYS154     -0.1314
     57  N        -34.6580  -23.6860  -23.5010 N.am  155  ILE155     -0.1977
     58  CA       -33.8580  -23.8980  -22.3060 C.3   155  ILE155      0.1596
     59  C        -33.1840  -25.2670  -22.3540 C.2   155  ILE155      0.2287
     60  O        -33.8220  -26.2730  -22.6790 O.2   155  ILE155     -0.2864
     61  CB       -34.7180  -23.7820  -21.0380 C.3   155  ILE155      0.0276
     62  CG1      -34.8910  -22.3200  -20.6660 C.3   155  ILE155      0.0022
     63  CG2      -34.0450  -24.4540  -19.8920 C.3   155  ILE155      0.0022
     64  CD1      -35.8030  -22.0930  -19.5070 C.3   155  ILE155      0.0001
     65  N        -30.2920  -27.5830  -19.8560 N.3   157  ARG157     -0.1245
     66  CA       -29.4320  -27.7350  -18.6950 C.3   157  ARG157      0.1563
     67  C        -28.7400  -29.0840  -18.7600 C.2   157  ARG157      0.2260
     68  O        -29.1900  -29.9930  -19.4520 O.2   157  ARG157     -0.2867
     69  CB       -30.2410  -27.6840  -17.4180 C.3   157  ARG157      0.0307
     70  CG       -30.9970  -26.4170  -17.2050 C.3   157  ARG157      0.0489
     71  CD       -30.0580  -25.2720  -16.9100 C.3   157  ARG157      0.2205
     72  NE       -30.3870  -24.1600  -17.7790 N.pl3 157  ARG157     -0.0865
     73  CZ       -30.9600  -23.0480  -17.3580 C.cat 157  ARG157      0.5346
     74  NH1      -31.2160  -22.8850  -16.0640 N.pl3 157  ARG157      0.1354
     75  NH2      -31.2520  -22.0990  -18.2270 N.pl3 157  ARG157      0.1354
     76  N        -36.3980  -27.5450  -22.9040 N.3   200  LEU200     -0.1231
     77  CA       -37.7040  -26.9450  -23.1450 C.3   200  LEU200      0.1693
     78  C        -37.5590  -26.0800  -24.3450 C.2   200  LEU200      0.2592
     79  O        -36.6950  -25.2110  -24.3730 O.2   200  LEU200     -0.2718
     80  CB       -38.1220  -26.0170  -22.0190 C.3   200  LEU200      0.0284
     81  CG       -38.4520  -26.5750  -20.6420 C.3   200  LEU200      0.0019
     82  CD1      -37.2050  -27.1530  -19.9940 C.3   200  LEU200      0.0001
     83  CD2      -39.0540  -25.4730  -19.7750 C.3   200  LEU200      0.0001
     84  N        -38.3980  -26.2890  -25.3430 N.am  201  ASN201     -0.1960
     85  CA       -38.4700  -25.3030  -26.3990 C.3   201  ASN201      0.1819
     86  C        -39.9030  -25.0800  -26.8260 C.2   201  ASN201      0.2621
     87  O        -40.7410  -25.9630  -26.6820 O.2   201  ASN201     -0.2715
     88  CB       -37.5590  -25.6780  -27.5730 C.3   201  ASN201      0.1195
     89  CG       -38.1430  -26.7560  -28.4410 C.2   201  ASN201      0.2630
     90  OD1      -38.0750  -27.9490  -28.1160 O.2   201  ASN201     -0.2716
     91  ND2      -38.7260  -26.3460  -29.5650 N.am  201  ASN201     -0.0877
     92  N        -40.1790  -23.8780  -27.3170 N.am  202  GLY202     -0.1954
     93  CA       -41.4970  -23.5340  -27.7990 C.3   202  GLY202      0.1869
     94  C        -41.5210  -22.2520  -28.6060 C.2   202  GLY202      0.2309
     95  O        -40.6060  -21.4420  -28.5110 O.2   202  GLY202     -0.2863
     96  N        -47.0090  -20.7640  -23.8840 N.3   235  PHE235     -0.1241
     97  CA       -46.3180  -21.7800  -24.6500 C.3   235  PHE235      0.1605
     98  C        -46.9500  -23.1510  -24.4990 C.2   235  PHE235      0.2264
     99  O        -47.3660  -23.5450  -23.3980 O.2   235  PHE235     -0.2867
    100  CB       -44.8790  -21.8990  -24.1900 C.3   235  PHE235      0.0534
    101  CG       -43.9950  -20.8280  -24.7000 C.ar  235  PHE235     -0.0203
    102  CD1      -43.5530  -19.8050  -23.8510 C.ar  235  PHE235     -0.0042
    103  CD2      -43.5860  -20.8330  -26.0260 C.ar  235  PHE235     -0.0042
    104  CE1      -42.7110  -18.7990  -24.3190 C.ar  235  PHE235     -0.0003
    105  CE2      -42.7440  -19.8250  -26.5090 C.ar  235  PHE235     -0.0003
    106  CZ       -42.3040  -18.8050  -25.6510 C.ar  235  PHE235     -0.0000
    107  N        -45.1170  -26.6020  -25.9080 N.3   237  GLY237     -0.1210
    108  CA       -43.9900  -27.0960  -26.6710 C.3   237  GLY237      0.1956
    109  C        -43.4790  -28.4280  -26.1710 C.2   237  GLY237      0.2612
    110  O        -44.2470  -29.2710  -25.6970 O.2   237  GLY237     -0.2717
    111  N        -42.1710  -28.6210  -26.2740 N.am  238  ASN238     -0.1960
    112  CA       -41.5960  -29.9110  -25.9630 C.3   238  ASN238      0.1819
    113  C        -40.7920  -29.8640  -24.7050 C.2   238  ASN238      0.2621
    114  O        -40.1160  -28.8700  -24.4320 O.2   238  ASN238     -0.2715
    115  CB       -40.6830  -30.3590  -27.0820 C.3   238  ASN238      0.1195
    116  CG       -41.3940  -30.4740  -28.3890 C.2   238  ASN238      0.2630
    117  OD1      -42.5410  -30.9260  -28.4550 O.2   238  ASN238     -0.2716
    118  ND2      -40.7160  -30.0710  -29.4530 N.am  238  ASN238     -0.0877
    119  N        -40.8740  -30.9460  -23.9390 N.am  239  TYR239     -0.1974
    120  CA       -40.0110  -31.1300  -22.7820 C.3   239  TYR239      0.1639
    121  C        -39.3680  -32.4960  -22.8000 C.2   239  TYR239      0.2290
    122  O        -39.9730  -33.4900  -23.2070 O.2   239  TYR239     -0.2864
    123  CB       -40.7380  -30.9210  -21.4500 C.3   239  TYR239      0.0560
    124  CG       -39.8330  -31.2840  -20.2870 C.ar  239  TYR239     -0.0198
    125  CD1      -38.9820  -30.3390  -19.7260 C.ar  239  TYR239     -0.0009
    126  CD2      -39.7930  -32.5860  -19.7840 C.ar  239  TYR239     -0.0009
    127  CE1      -38.1230  -30.6750  -18.6810 C.ar  239  TYR239      0.0417
    128  CE2      -38.9420  -32.9290  -18.7450 C.ar  239  TYR239      0.0417
    129  CZ       -38.1070  -31.9670  -18.2000 C.ar  239  TYR239      0.1957
    130  OH       -37.2640  -32.2910  -17.1690 O.3   239  TYR239     -0.2866
    131  N        -45.3340  -29.8700  -23.1950 N.3   265  GLY265     -0.1210
    132  CA       -45.1840  -28.9890  -22.0530 C.3   265  GLY265      0.1956
    133  C        -45.8830  -27.6610  -22.2340 C.2   265  GLY265      0.2612
    134  O        -46.0140  -27.1490  -23.3400 O.2   265  GLY265     -0.2717
    135  N        -46.3340  -27.0990  -21.1290 N.am  266  TYR266     -0.1962
    136  CA       -47.0370  -25.8310  -21.1430 C.3   266  TYR266      0.1771
    137  C        -46.2970  -24.9120  -20.2050 C.2   266  TYR266      0.2619
    138  O        -46.0220  -25.2740  -19.0630 O.2   266  TYR266     -0.2715
    139  CB       -48.4620  -26.0020  -20.6010 C.3   266  TYR266      0.0574
    140  CG       -49.3030  -26.9240  -21.4220 C.ar  266  TYR266     -0.0198
    141  CD1      -49.2170  -28.2890  -21.2600 C.ar  266  TYR266     -0.0009
    142  CD2      -50.1720  -26.4320  -22.3760 C.ar  266  TYR266     -0.0009
    143  CE1      -49.9780  -29.1400  -22.0200 C.ar  266  TYR266      0.0417
    144  CE2      -50.9340  -27.2780  -23.1400 C.ar  266  TYR266      0.0417
    145  CZ       -50.8360  -28.6320  -22.9590 C.ar  266  TYR266      0.1957
    146  OH       -51.5960  -29.4880  -23.7190 O.3   266  TYR266     -0.2866
    147  N        -45.9760  -23.7190  -20.6730 N.am  267  LEU267     -0.1977
    148  CA       -45.3830  -22.7530  -19.8020 C.3   267  LEU267      0.1596
    149  C        -45.9280  -21.4050  -20.1090 C.2   267  LEU267      0.2287
    150  O        -46.0150  -21.0120  -21.2730 O.2   267  LEU267     -0.2864
    151  CB       -43.8800  -22.7420  -19.9950 C.3   267  LEU267      0.0297
    152  CG       -43.0840  -21.8380  -19.0620 C.3   267  LEU267      0.0022
    153  CD1      -41.7040  -22.4050  -18.9410 C.3   267  LEU267      0.0001
    154  CD2      -43.0430  -20.4080  -19.5810 C.3   267  LEU267      0.0001
    155  N        -45.1540  -17.5130  -19.8540 N.3   269  LEU269     -0.1245
    156  CA       -44.1490  -16.4810  -19.6420 C.3   269  LEU269      0.1561
    157  C        -44.7730  -15.0820  -19.6130 C.2   269  LEU269      0.2260
    158  O        -45.4880  -14.7010  -20.5350 O.2   269  LEU269     -0.2867
    159  CB       -43.1360  -16.5610  -20.7610 C.3   269  LEU269      0.0270
    160  CG       -42.1350  -15.4260  -20.8950 C.3   269  LEU269      0.0019
    161  CD1      -41.2590  -15.3290  -19.6790 C.3   269  LEU269      0.0001
    162  CD2      -41.3040  -15.6390  -22.1550 C.3   269  LEU269      0.0001
    163  N        -43.2140  -11.1630  -13.1590 N.3   301  PHE301     -0.1241
    164  CA       -42.4120  -12.3330  -13.4920 C.3   301  PHE301      0.1605
    165  C        -41.9750  -13.0560  -12.2200 C.2   301  PHE301      0.2264
    166  O        -41.0270  -12.6440  -11.5400 O.2   301  PHE301     -0.2867
    167  CB       -41.1970  -11.8960  -14.2980 C.3   301  PHE301      0.0534
    168  CG       -40.3290  -13.0200  -14.7320 C.ar  301  PHE301     -0.0203
    169  CD1      -40.8250  -14.0040  -15.5810 C.ar  301  PHE301     -0.0042
    170  CD2      -39.0010  -13.0870  -14.3080 C.ar  301  PHE301     -0.0042
    171  CE1      -40.0230  -15.0510  -15.9900 C.ar  301  PHE301     -0.0003
    172  CE2      -38.1780  -14.1240  -14.7140 C.ar  301  PHE301     -0.0003
    173  CZ       -38.6900  -15.1090  -15.5630 C.ar  301  PHE301     -0.0000
    174  N        -40.5380  -19.5140  -13.7620 N.3   304  LEU304     -0.1245
    175  CA       -40.5950  -20.3760  -14.9230 C.3   304  LEU304      0.1561
    176  C        -41.1630  -21.7230  -14.4840 C.2   304  LEU304      0.2260
    177  O        -40.5090  -22.4600  -13.7290 O.2   304  LEU304     -0.2867
    178  CB       -39.1920  -20.5820  -15.4780 C.3   304  LEU304      0.0270
    179  CG       -38.8580  -19.6570  -16.6320 C.3   304  LEU304      0.0019
    180  CD1      -39.5450  -18.3240  -16.4400 C.3   304  LEU304      0.0001
    181  CD2      -37.3800  -19.4930  -16.7180 C.3   304  LEU304      0.0001
    182  N        -42.9650  -25.2060  -16.0730 N.3   306  ALA306     -0.1245
    183  CA       -43.4360  -26.0470  -17.1730 C.3   306  ALA306      0.1562
    184  C        -44.2370  -27.2150  -16.6320 C.2   306  ALA306      0.2260
    185  O        -43.8700  -27.8390  -15.6310 O.2   306  ALA306     -0.2867
    186  CB       -42.2700  -26.5670  -18.0060 C.3   306  ALA306      0.0290
    187  N        -38.4790  -23.0060  -11.8100 N.3   317  LYS317     -0.1245
    188  CA       -37.4230  -22.1710  -11.2710 C.3   317  LYS317      0.1561
    189  C        -38.0460  -20.9450  -10.6590 C.2   317  LYS317      0.2260
    190  O        -38.7860  -20.2370  -11.3210 O.2   317  LYS317     -0.2867
    191  CB       -36.4650  -21.7480  -12.3810 C.3   317  LYS317      0.0271
    192  CG       -35.3760  -20.7920  -11.9300 C.3   317  LYS317      0.0035
    193  CD       -34.4640  -20.3860  -13.0870 C.3   317  LYS317      0.0206
    194  CE       -33.5070  -19.2780  -12.6570 C.3   317  LYS317      0.1093
    195  NZ       -32.7320  -18.7280  -13.7870 N.3   317  LYS317     -0.1314
    196  N        -38.2280  -17.2170   -9.6740 N.3   319  GLU319     -0.1245
    197  CA       -37.5760  -15.9770  -10.0930 C.3   319  GLU319      0.1567
    198  C        -37.8370  -14.8310   -9.1210 C.2   319  GLU319      0.2260
    199  O        -36.9160  -14.0930   -8.7690 O.2   319  GLU319     -0.2867
    200  CB       -38.0190  -15.5800  -11.5020 C.3   319  GLU319      0.0388
    201  CG       -37.7720  -16.6660  -12.5450 C.3   319  GLU319      0.1160
    202  CD       -36.3360  -16.6970  -13.0740 C.2   319  GLU319      0.3649
    203  OE1      -36.1220  -17.3290  -14.1290 O.co2 319  GLU319     -0.2457
    204  OE2      -35.4170  -16.0970  -12.4570 O.co2 319  GLU319     -0.2457
    205  N        -28.1760  -18.0440  -15.4410 N.3   360  SER360     -0.1202
    206  CA       -28.7810  -18.0550  -16.7800 C.3   360  SER360      0.2020
    207  C        -29.2400  -16.6510  -17.1530 C.2   360  SER360      0.2618
    208  O        -29.2860  -16.2820  -18.3280 O.2   360  SER360     -0.2717
    209  CB       -29.9250  -19.0690  -16.8970 C.3   360  SER360      0.2103
    210  OG       -30.8470  -18.9470  -15.8250 O.3   360  SER360     -0.2182
    211  N        -29.5500  -15.8530  -16.1440 N.am  361  ILE361     -0.1979
    212  CA       -29.8140  -14.4400  -16.3840 C.3   361  ILE361      0.1595
    213  C        -29.1160  -13.5790  -15.3240 C.2   361  ILE361      0.2287
    214  O        -29.7390  -13.0810  -14.3890 O.2   361  ILE361     -0.2864
    215  CB       -31.3220  -14.1530  -16.5080 C.3   361  ILE361      0.0276
    216  CG1      -31.5780  -12.6680  -16.6350 C.3   361  ILE361      0.0022
    217  CG2      -32.0790  -14.6620  -15.3160 C.3   361  ILE361      0.0022
    218  CD1      -33.0480  -12.3280  -16.5050 C.3   361  ILE361      0.0001
@<TRIPOS>BOND
     1    91    89   am
     2   118   116   am
     3    56    55    1
     4    94    95    2
     5    94    93    1
     6   117   116    2
     7    89    90    2
     8    89    88    1
     9   116   115    1
    10    54    55    1
    11    54    53    1
    12    93    92    1
    13    43    44    1
    14    88    85    1
    15    34    32   ar
    16    92    86   am
    17   115   112    1
    18    46    45    2
    19    32    33   ar
    20    32    31    1
    21    86    87    2
    22    86    85    1
    23    53    52    1
    24    52    49    1
    25    37    38    2
    26    37    36    1
    27   108   109    1
    28   108   107    1
    29    31    28    1
    30   105   103   ar
    31   105   106   ar
    32    44    45    1
    33    44    47    1
    34    45    48   am
    35    85    84    1
    36   111   109   am
    37   111   112    1
    38   109   110    2
    39   103   101   ar
    40   112   113    1
    41    48    49    1
    42   106   104   ar
    43    36    35    1
    44    36    39    1
    45    49    50    1
    46    35    29   am
    47    29    28    1
    48    29    30    2
    49    84    78   am
    50    28    27    1
    51    41    40    1
    52    15    14    2
    53   113   114    2
    54   113   119   am
    55   101   100    1
    56   101   102   ar
    57    97    98    1
    58    97   100    1
    59    97    96    1
    60    12    13    1
    61    98    99    2
    62    40    39    1
    63    40    42    1
    64    79    78    2
    65    78    77    1
    66   104   102   ar
    67    50    51    2
    68    50    57   am
    69    14    13    1
    70    27    22   am
    71   119   120    1
    72   146   145    1
    73    13    16    1
    74    57    58    1
    75    23    22    2
    76    22    21    1
    77   134   133    2
    78   122   121    2
    79   131   132    1
    80    77    76    1
    81    77    80    1
    82   144   145   ar
    83   144   142   ar
    84   145   143   ar
    85   121   120    1
    86   120   123    1
    87    60    59    2
    88    20    21    1
    89   142   140   ar
    90    21    24    1
    91    59    58    1
    92    58    61    1
    93    16    17    1
    94   133   132    1
    95   133   135   am
    96   162   160    1
    97     4     3    2
    98   143   141   ar
    99    80    81    1
   100   123   124    1
   101   140   141   ar
   102   140   139    1
   103   150   149    2
   104    18    17    1
   105   136   135    1
   106   136   139    1
   107   136   137    1
   108    17    19    1
   109    61    62    1
   110    61    63    1
   111    24    26    1
   112    24    25    1
   113     3     2    1
   114   160   159    1
   115   160   161    1
   116   159   156    1
   117   147   137   am
   118   147   148    1
   119    62    64    1
   120    81    82    1
   121    81    83    1
   122     7     9   ar
   123     7     6   ar
   124   158   157    2
   125     5     2    1
   126     5     6    1
   127   124   126   ar
   128   124   125   ar
   129   137   138    2
   130   149   148    1
   131     9    11   ar
   132     2     1    1
   133   151   148    1
   134   151   152    1
   135    65    66    1
   136   155   156    1
   137   126   128   ar
   138     6     8   ar
   139   125   127   ar
   140   156   157    1
   141   154   152    1
   142    68    67    2
   143   152   153    1
   144    67    66    1
   145    11    10   ar
   146   128   129   ar
   147    66    69    1
   148   127   129   ar
   149     8    10   ar
   150   208   207    2
   151    75    73    1
   152   129   130    1
   153   186   183    1
   154    72    73    2
   155    72    71    1
   156    69    70    1
   157    73    74    1
   158    70    71    1
   159   183   184    1
   160   183   182    1
   161   207   206    1
   162   207   211   am
   163   209   206    1
   164   209   210    1
   165   206   205    1
   166   181   179    1
   167   216   215    1
   168   216   218    1
   169   184   185    2
   170   179   180    1
   171   179   178    1
   172   215   212    1
   173   215   217    1
   174   212   211    1
   175   212   213    1
   176   171   169   ar
   177   171   173   ar
   178   169   168   ar
   179   173   172   ar
   180   178   175    1
   181   213   214    2
   182   175   176    1
   183   175   174    1
   184   168   170   ar
   185   168   167    1
   186   172   170   ar
   187   176   177    2
   188   167   164    1
   189   203   202   ar
   190   195   194    1
   191   164   163    1
   192   164   165    1
   193   193   194    1
   194   193   192    1
   195   202   201    1
   196   202   204   ar
   197   201   200    1
   198   191   192    1
   199   191   188    1
   200   165   166    2
   201   187   188    1
   202   200   197    1
   203   190   189    2
   204   188   189    1
   205   197   196    1
   206   197   198    1
   207   198   199    2
