@<TRIPOS>MOLECULE
tmp/3pf1A03.pdb
 71 68 0 0 0
SMALL
GASTEIGER

@<TRIPOS>ATOM
      1  N        -35.4700  -26.3920   13.7600 N.3   116  SER116     -0.1202
      2  CA       -34.0780  -26.6200   13.3820 C.3   116  SER116      0.2020
      3  C        -33.3190  -25.3180   13.1090 C.2   116  SER116      0.2618
      4  O        -32.1070  -25.3400   12.9660 O.2   116  SER116     -0.2717
      5  CB       -34.0060  -27.5130   12.1580 C.3   116  SER116      0.2103
      6  OG       -34.4810  -26.8230   11.0190 O.3   116  SER116     -0.2182
      7  N        -34.0270  -24.1930   13.0180 N.am  117  VAL117     -0.1979
      8  CA       -33.3780  -22.8860   12.8370 C.3   117  VAL117      0.1595
      9  C        -33.9110  -21.8070   13.7700 C.2   117  VAL117      0.2287
     10  O        -33.6240  -20.6210   13.6110 O.2   117  VAL117     -0.2864
     11  CB       -33.4760  -22.3410   11.3950 C.3   117  VAL117      0.0276
     12  CG1      -32.7470  -23.2460   10.4340 C.3   117  VAL117      0.0022
     13  CG2      -34.9260  -22.1260   10.9970 C.3   117  VAL117      0.0022
     14  N        -39.0080  -31.6560   10.4610 N.3   162  LEU162     -0.1245
     15  CA       -38.1440  -32.3150    9.4730 C.3   162  LEU162      0.1561
     16  C        -38.3840  -33.8230    9.3930 C.2   162  LEU162      0.2260
     17  O        -38.4530  -34.3960    8.2970 O.2   162  LEU162     -0.2867
     18  CB       -36.6630  -32.0400    9.7550 C.3   162  LEU162      0.0270
     19  CG       -36.2590  -30.5680    9.6180 C.3   162  LEU162      0.0019
     20  CD1      -34.7870  -30.3850    9.9550 C.3   162  LEU162      0.0001
     21  CD2      -36.5840  -30.0240    8.2240 C.3   162  LEU162      0.0001
     22  N        -39.3410  -35.5040    5.9310 N.3   166  VAL166     -0.1245
     23  CA       -38.4800  -36.5370    5.3820 C.3   166  VAL166      0.1561
     24  C        -39.2710  -37.8040    5.1610 C.2   166  VAL166      0.2260
     25  O        -39.0930  -38.4890    4.1450 O.2   166  VAL166     -0.2867
     26  CB       -37.3110  -36.8480    6.3430 C.3   166  VAL166      0.0252
     27  CG1      -36.6290  -38.1360    5.9580 C.3   166  VAL166      0.0019
     28  CG2      -36.3220  -35.6930    6.3820 C.3   166  VAL166      0.0019
     29  N        -25.8650  -34.7920    4.9960 N.3   252  LEU252     -0.1231
     30  CA       -27.1470  -34.1200    5.2010 C.3   252  LEU252      0.1678
     31  C        -26.8970  -32.7490    5.8180 C.2   252  LEU252      0.2434
     32  O        -25.9430  -32.5630    6.5610 O.2   252  LEU252     -0.2733
     33  CB       -28.0690  -34.9260    6.1140 C.3   252  LEU252      0.0284
     34  CG       -27.7930  -36.4100    6.3000 C.3   252  LEU252      0.0019
     35  CD1      -26.4140  -36.6110    6.9940 C.3   252  LEU252      0.0001
     36  CD2      -28.9540  -37.0990    7.0800 C.3   252  LEU252      0.0001
     37  N        -27.7590  -31.7760    5.5170 N.am  253  PRO253     -0.2718
     38  CA       -27.5240  -30.4570    6.1080 C.3   253  PRO253      0.1535
     39  C        -28.0050  -30.3980    7.5790 C.2   253  PRO253      0.2598
     40  O        -29.0540  -29.7960    7.8840 O.2   253  PRO253     -0.2715
     41  CB       -28.3520  -29.5220    5.2080 C.3   253  PRO253      0.0310
     42  CG       -29.2860  -30.4310    4.4000 C.3   253  PRO253      0.0237
     43  CD       -29.0650  -31.8520    4.8420 C.3   253  PRO253      0.0939
     44  N        -27.2490  -31.0480    8.4690 N.am  254  ILE254     -0.1978
     45  CA       -27.5490  -31.0560    9.9060 C.3   254  ILE254      0.1596
     46  C        -26.2770  -31.0230   10.7370 C.2   254  ILE254      0.2287
     47  O        -25.2160  -31.4520   10.2890 O.2   254  ILE254     -0.2864
     48  CB       -28.4330  -32.2740   10.3540 C.3   254  ILE254      0.0276
     49  CG1      -27.5960  -33.4910   10.6770 C.3   254  ILE254      0.0022
     50  CG2      -29.3880  -32.7000    9.2790 C.3   254  ILE254      0.0022
     51  CD1      -28.4400  -34.7160   10.7490 C.3   254  ILE254      0.0001
     52  N        -34.9630  -19.7240    5.0520 N.3   399  GLU399     -0.1231
     53  CA       -33.9730  -20.6520    5.6020 C.3   399  GLU399      0.1699
     54  C        -34.3370  -22.0940    5.3390 C.2   399  GLU399      0.2593
     55  O        -35.3800  -22.5650    5.7740 O.2   399  GLU399     -0.2718
     56  CB       -33.8510  -20.4930    7.1180 C.3   399  GLU399      0.0402
     57  CG       -33.1140  -19.2730    7.5760 C.3   399  GLU399      0.1161
     58  CD       -32.8730  -19.3030    9.0520 C.2   399  GLU399      0.3649
     59  OE1      -31.8790  -19.9280    9.4790 O.co2 399  GLU399     -0.2457
     60  OE2      -33.6820  -18.7100    9.7910 O.co2 399  GLU399     -0.2457
     61  N        -33.4530  -22.8170    4.6750 N.am  400  GLY400     -0.1943
     62  CA       -33.7050  -24.2080    4.3810 C.3   400  GLY400      0.1998
     63  C        -34.9840  -24.2850    3.5910 C.2   400  GLY400      0.2480
     64  O        -35.1710  -23.5170    2.6390 O.2   400  GLY400     -0.2729
     65  N        -35.8890  -25.1810    4.0120 N.am  401  PRO401     -0.2726
     66  CA       -37.1630  -25.4530    3.3460 C.3   401  PRO401      0.1402
     67  C        -38.2470  -24.4290    3.7120 C.2   401  PRO401      0.2269
     68  O        -39.3210  -24.4160    3.0960 O.2   401  PRO401     -0.2865
     69  CB       -37.5490  -26.8420    3.8880 C.3   401  PRO401      0.0296
     70  CG       -36.6240  -27.1320    5.0530 C.3   401  PRO401      0.0237
     71  CD       -35.7800  -25.9040    5.2900 C.3   401  PRO401      0.0939
@<TRIPOS>BOND
     1    64    63    2
     2    68    67    2
     3    66    67    1
     4    66    69    1
     5    66    65    1
     6    63    65   am
     7    63    62    1
     8    69    70    1
     9    65    71    1
    10    25    24    2
    11    62    61    1
    12    42    43    1
    13    42    41    1
    14    61    54   am
    15    43    37    1
    16    29    30    1
    17    52    53    1
    18    70    71    1
    19    24    23    1
    20    30    31    1
    21    30    33    1
    22    41    38    1
    23    54    53    1
    24    54    55    2
    25    23    22    1
    26    23    26    1
    27    37    31   am
    28    37    38    1
    29    53    56    1
    30    31    32    2
    31    27    26    1
    32    38    39    1
    33    33    34    1
    34    34    35    1
    35    34    36    1
    36    26    28    1
    37    56    57    1
    38    57    58    1
    39    39    40    2
    40    39    44   am
    41    21    19    1
    42    17    16    2
    43    44    45    1
    44    58    59   ar
    45    58    60   ar
    46    50    48    1
    47    16    15    1
    48    15    18    1
    49    15    14    1
    50    19    18    1
    51    19    20    1
    52    45    48    1
    53    45    46    1
    54    47    46    2
    55    48    49    1
    56    12    11    1
    57    49    51    1
    58    13    11    1
    59     6     5    1
    60    11     8    1
    61     5     2    1
    62     8     7    1
    63     8     9    1
    64     4     3    2
    65     7     3   am
    66     3     2    1
    67     2     1    1
    68    10     9    2
