@<TRIPOS>MOLECULE
tmp/3pf1B03.pdb
 102 101 0 0 0
SMALL
GASTEIGER

@<TRIPOS>ATOM
      1  N        -40.5270    6.7580  -42.6590 N.3    45  PHE45      -0.1241
      2  CA       -40.0830    5.3900  -42.5300 C.3    45  PHE45       0.1605
      3  C        -38.7120    5.3370  -41.8860 C.2    45  PHE45       0.2264
      4  O        -37.8590    6.1880  -42.1310 O.2    45  PHE45      -0.2867
      5  CB       -40.0530    4.7520  -43.9070 C.3    45  PHE45       0.0534
      6  CG       -39.5600    3.3440  -43.9130 C.ar   45  PHE45      -0.0203
      7  CD1      -40.4500    2.2850  -43.8350 C.ar   45  PHE45      -0.0042
      8  CD2      -38.2080    3.0730  -44.0230 C.ar   45  PHE45      -0.0042
      9  CE1      -39.9970    0.9770  -43.8590 C.ar   45  PHE45      -0.0003
     10  CE2      -37.7520    1.7740  -44.0440 C.ar   45  PHE45      -0.0003
     11  CZ       -38.6460    0.7230  -43.9630 C.ar   45  PHE45      -0.0000
     12  N        -35.7040    2.2640  -40.5190 N.3    47  ALA47      -0.1231
     13  CA       -35.2940    0.8700  -40.3680 C.3    47  ALA47       0.1694
     14  C        -33.8080    0.7690  -40.0710 C.2    47  ALA47       0.2593
     15  O        -33.0040    1.5640  -40.5640 O.2    47  ALA47      -0.2718
     16  CB       -35.6500    0.0580  -41.5930 C.3    47  ALA47       0.0304
     17  N        -33.4590   -0.2080  -39.2430 N.am   48  GLY48      -0.1942
     18  CA       -32.0900   -0.4080  -38.8230 C.3    48  GLY48       0.2014
     19  C        -31.9460   -1.5580  -37.8510 C.2    48  GLY48       0.2638
     20  O        -32.8110   -2.4300  -37.7570 O.2    48  GLY48      -0.2714
     21  N        -30.8420   -1.5500  -37.1170 N.am   49  ALA49      -0.1977
     22  CA       -30.5150   -2.6410  -36.2190 C.3    49  ALA49       0.1597
     23  C        -29.5180   -2.1690  -35.1860 C.2    49  ALA49       0.2287
     24  O        -28.6270   -1.3750  -35.4890 O.2    49  ALA49      -0.2864
     25  CB       -29.9230   -3.8110  -37.0060 C.3    49  ALA49       0.0319
     26  N        -26.6040   -3.6740  -32.8070 N.3    51  TYR51      -0.1241
     27  CA       -25.7740   -4.8430  -32.5670 C.3    51  TYR51       0.1605
     28  C        -25.2280   -4.7520  -31.1620 C.2    51  TYR51       0.2264
     29  O        -24.6250   -3.7460  -30.7930 O.2    51  TYR51      -0.2867
     30  CB       -24.6330   -4.9140  -33.5820 C.3    51  TYR51       0.0534
     31  CG       -23.5470   -5.8970  -33.2380 C.ar   51  TYR51      -0.0201
     32  CD1      -23.6680   -7.2450  -33.5710 C.ar   51  TYR51      -0.0009
     33  CD2      -22.3850   -5.4800  -32.5880 C.ar   51  TYR51      -0.0009
     34  CE1      -22.6520   -8.1590  -33.2550 C.ar   51  TYR51       0.0417
     35  CE2      -21.3710   -6.3790  -32.2660 C.ar   51  TYR51       0.0417
     36  CZ       -21.5130   -7.7110  -32.6030 C.ar   51  TYR51       0.1957
     37  OH       -20.5160   -8.5930  -32.2850 O.3    51  TYR51      -0.2866
     38  N        -28.2600   -9.3690  -32.5210 N.3    78  TRP78      -0.1241
     39  CA       -28.5100   -8.4170  -33.5740 C.3    78  TRP78       0.1605
     40  C        -30.0100   -8.1130  -33.5450 C.2    78  TRP78       0.2264
     41  O        -30.8260   -8.9400  -33.9580 O.2    78  TRP78      -0.2867
     42  CB       -28.0510   -9.0270  -34.8990 C.3    78  TRP78       0.0550
     43  CG       -27.9990   -8.0720  -36.0260 C.ar   78  TRP78       0.0003
     44  CD1      -26.9980   -7.1840  -36.3190 C.ar   78  TRP78       0.0946
     45  CD2      -28.9890   -7.9110  -37.0350 C.ar   78  TRP78       0.0152
     46  NE1      -27.3160   -6.4770  -37.4520 N.ar   78  TRP78      -0.2442
     47  CE2      -28.5390   -6.9020  -37.9050 C.ar   78  TRP78       0.0810
     48  CE3      -30.2240   -8.5170  -37.2820 C.ar   78  TRP78       0.0012
     49  CZ2      -29.2750   -6.4940  -39.0090 C.ar   78  TRP78       0.0191
     50  CZ3      -30.9560   -8.1090  -38.3750 C.ar   78  TRP78       0.0001
     51  CH2      -30.4820   -7.1090  -39.2270 C.ar   78  TRP78       0.0015
     52  N        -26.3530    6.9190  -36.5260 N.3   385  VAL385     -0.1231
     53  CA       -25.3290    6.0220  -36.0380 C.3   385  VAL385      0.1692
     54  C        -25.2060    6.2250  -34.5490 C.2   385  VAL385      0.2593
     55  O        -25.0970    7.3520  -34.0800 O.2   385  VAL385     -0.2718
     56  CB       -23.9650    6.2700  -36.7340 C.3   385  VAL385      0.0266
     57  CG1      -22.8590    5.3650  -36.1400 C.3   385  VAL385      0.0020
     58  CG2      -24.0920    6.0430  -38.2350 C.3   385  VAL385      0.0020
     59  N        -25.2300    5.1300  -33.8040 N.am  386  GLY386     -0.1942
     60  CA       -25.1710    5.2170  -32.3620 C.3   386  GLY386      0.2014
     61  C        -24.2230    4.2240  -31.7290 C.2   386  GLY386      0.2638
     62  O        -23.9470    3.1530  -32.2700 O.2   386  GLY386     -0.2714
     63  N        -23.7270    4.5880  -30.5580 N.am  387  VAL387     -0.1977
     64  CA       -22.8350    3.7300  -29.8110 C.3   387  VAL387      0.1596
     65  C        -23.1840    3.8850  -28.3500 C.2   387  VAL387      0.2287
     66  O        -23.4970    4.9790  -27.8960 O.2   387  VAL387     -0.2864
     67  CB       -21.3480    4.1300  -30.0200 C.3   387  VAL387      0.0276
     68  CG1      -20.4280    3.2180  -29.2310 C.3   387  VAL387      0.0022
     69  CG2      -20.9870    4.0810  -31.4880 C.3   387  VAL387      0.0022
     70  N        -23.6240   -1.0170  -30.8640 N.3   413  PHE413     -0.1227
     71  CA       -23.4860   -0.1870  -32.0480 C.3   413  PHE413      0.1736
     72  C        -24.7380   -0.3240  -32.8980 C.2   413  PHE413      0.2596
     73  O        -25.1840   -1.4340  -33.1960 O.2   413  PHE413     -0.2718
     74  CB       -22.2530   -0.6050  -32.8510 C.3   413  PHE413      0.0547
     75  CG       -21.0030   -0.6890  -32.0290 C.ar  413  PHE413     -0.0202
     76  CD1      -20.2840    0.4600  -31.7130 C.ar  413  PHE413     -0.0042
     77  CD2      -20.5490   -1.9110  -31.5560 C.ar  413  PHE413     -0.0042
     78  CE1      -19.1280    0.3860  -30.9490 C.ar  413  PHE413     -0.0003
     79  CE2      -19.3960   -1.9940  -30.7880 C.ar  413  PHE413     -0.0003
     80  CZ       -18.6840   -0.8450  -30.4850 C.ar  413  PHE413     -0.0000
     81  N        -25.3130    0.8020  -33.2890 N.am  414  GLY414     -0.1942
     82  CA       -26.5160    0.7550  -34.0880 C.3   414  GLY414      0.2014
     83  C        -26.4630    1.6310  -35.3160 C.2   414  GLY414      0.2639
     84  O        -25.7320    2.6270  -35.3590 O.2   414  GLY414     -0.2714
     85  N        -27.2530    1.2630  -36.3190 N.am  415  THR415     -0.1950
     86  CA       -27.4280    2.1150  -37.4910 C.3   415  THR415      0.1897
     87  C        -28.8630    2.0960  -37.9840 C.2   415  THR415      0.2313
     88  O        -29.4690    1.0360  -38.1020 O.2   415  THR415     -0.2863
     89  CB       -26.4850    1.7050  -38.6390 C.3   415  THR415      0.1794
     90  OG1      -25.1260    1.9810  -38.2650 O.3   415  THR415     -0.2208
     91  CG2      -26.8280    2.4760  -39.9040 C.3   415  THR415      0.0378
     92  N        -31.7640    3.8970  -40.9470 N.3   417  PHE417     -0.1241
     93  CA       -31.9860    4.7270  -42.1230 C.3   417  PHE417      0.1605
     94  C        -33.3850    5.2910  -42.1160 C.2   417  PHE417      0.2264
     95  O        -34.3270    4.6170  -41.7190 O.2   417  PHE417     -0.2867
     96  CB       -31.7200    3.9590  -43.4120 C.3   417  PHE417      0.0534
     97  CG       -30.2620    3.7950  -43.7130 C.ar  417  PHE417     -0.0203
     98  CD1      -29.6100    2.5960  -43.4420 C.ar  417  PHE417     -0.0042
     99  CD2      -29.5290    4.8500  -44.2450 C.ar  417  PHE417     -0.0042
    100  CE1      -28.2600    2.4440  -43.7130 C.ar  417  PHE417     -0.0003
    101  CE2      -28.1770    4.7050  -44.5180 C.ar  417  PHE417     -0.0003
    102  CZ       -27.5420    3.4980  -44.2500 C.ar  417  PHE417     -0.0000
@<TRIPOS>BOND
     1   101   102   ar
     2   101    99   ar
     3   102   100   ar
     4    99    97   ar
     5    10     8   ar
     6    10    11   ar
     7     8     6   ar
     8    11     9   ar
     9     6     5    1
    10     6     7   ar
    11     5     2    1
    12     9     7   ar
    13   100    98   ar
    14    97    98   ar
    15    97    96    1
    16    96    93    1
    17     1     2    1
    18     2     3    1
    19     4     3    2
    20    93    94    1
    21    93    92    1
    22    94    95    2
    23    16    13    1
    24    15    14    2
    25    12    13    1
    26    13    14    1
    27    14    17   am
    28    91    89    1
    29    17    18    1
    30    51    49   ar
    31    51    50   ar
    32    49    47   ar
    33    18    19    1
    34    89    90    1
    35    89    86    1
    36    50    48   ar
    37    58    56    1
    38    88    87    2
    39    87    86    1
    40    47    46   ar
    41    47    45   ar
    42    19    20    2
    43    19    21   am
    44    86    85    1
    45    46    44   ar
    46    48    45   ar
    47    21    22    1
    48    45    43   ar
    49    25    22    1
    50    56    57    1
    51    56    53    1
    52    52    53    1
    53    85    83   am
    54    44    43   ar
    55    22    23    1
    56    53    54    1
    57    43    42    1
    58    24    23    2
    59    84    83    2
    60    83    82    1
    61    42    39    1
    62    54    55    2
    63    54    59   am
    64    82    81    1
    65    41    40    2
    66    59    60    1
    67    30    31    1
    68    30    27    1
    69    39    40    1
    70    39    38    1
    71    32    34   ar
    72    32    31   ar
    73    81    72   am
    74    34    36   ar
    75    31    33   ar
    76    73    72    2
    77    72    71    1
    78    74    71    1
    79    74    75    1
    80    26    27    1
    81    36    37    1
    82    36    35   ar
    83    33    35   ar
    84    27    28    1
    85    60    61    1
    86    62    61    2
    87    71    70    1
    88    75    76   ar
    89    75    77   ar
    90    61    63   am
    91    76    78   ar
    92    77    79   ar
    93    69    67    1
    94    28    29    2
    95    78    80   ar
    96    79    80   ar
    97    63    64    1
    98    67    64    1
    99    67    68    1
   100    64    65    1
   101    65    66    2
