@<TRIPOS>MOLECULE
tmp/3pf5B00.pdb
 98 97 0 0 0
SMALL
GASTEIGER

@<TRIPOS>ATOM
      1  N         29.4130   11.4260   -2.4240 N.3     7  LYS7       -0.1231
      2  CA        28.2480   10.5230   -2.5000 C.3     7  LYS7        0.1693
      3  C         28.1470    9.9740   -3.9070 C.2     7  LYS7        0.2592
      4  O         28.0200    8.7950   -4.0950 O.2     7  LYS7       -0.2718
      5  CB        26.9810   11.2510   -2.1300 C.3     7  LYS7        0.0285
      6  CG        25.8160   10.3540   -1.9230 C.3     7  LYS7        0.0035
      7  CD        24.5750   11.1630   -1.5330 C.3     7  LYS7        0.0206
      8  CE        23.4440   10.2730   -1.1300 C.3     7  LYS7        0.1093
      9  NZ        22.2220   11.0700   -0.9670 N.3     7  LYS7       -0.1314
     10  N         28.1800   10.8790   -4.8810 N.am    8  TRP8       -0.1962
     11  CA        28.2880   10.5230   -6.2630 C.3     8  TRP8        0.1771
     12  C         28.7890   11.7380   -6.9790 C.2     8  TRP8        0.2620
     13  O         28.6970   12.8670   -6.4730 O.2     8  TRP8       -0.2715
     14  CB        26.9310   10.1000   -6.8300 C.3     8  TRP8        0.0590
     15  CG        25.8410   11.1540   -6.7240 C.ar    8  TRP8        0.0006
     16  CD1       24.9440   11.3200   -5.7070 C.ar    8  TRP8        0.0946
     17  CD2       25.5290   12.1610   -7.6950 C.ar    8  TRP8        0.0152
     18  NE1       24.0980   12.3590   -5.9870 N.ar    8  TRP8       -0.2442
     19  CE2       24.4390   12.8980   -7.1980 C.ar    8  TRP8        0.0810
     20  CE3       26.0860   12.5250   -8.9250 C.ar    8  TRP8        0.0012
     21  CZ2       23.8810   13.9720   -7.8930 C.ar    8  TRP8        0.0191
     22  CZ3       25.5280   13.5870   -9.6180 C.ar    8  TRP8        0.0001
     23  CH2       24.4540   14.3130   -9.0900 C.ar    8  TRP8        0.0015
     24  N         29.3270   11.5110   -8.1560 N.am    9  PHE9       -0.1960
     25  CA        29.7340   12.6230   -8.9910 C.3     9  PHE9        0.1771
     26  C         29.6190   12.2450  -10.4420 C.2     9  PHE9        0.2619
     27  O         30.1600   11.2230  -10.8600 O.2     9  PHE9       -0.2715
     28  CB        31.1480   13.0070   -8.6440 C.3     9  PHE9        0.0574
     29  CG        31.6010   14.2940   -9.2480 C.ar    9  PHE9       -0.0200
     30  CD1       31.3670   15.5240   -8.5710 C.ar    9  PHE9       -0.0042
     31  CD2       32.3280   14.2950  -10.4430 C.ar    9  PHE9       -0.0042
     32  CE1       31.8080   16.6910   -9.0830 C.ar    9  PHE9       -0.0003
     33  CE2       32.7730   15.4570  -10.9790 C.ar    9  PHE9       -0.0003
     34  CZ        32.5360   16.6980  -10.2810 C.ar    9  PHE9       -0.0000
     35  N         28.9330   13.0840  -11.2130 N.am   10  ASN10      -0.1972
     36  CA        28.8240   12.9160  -12.6390 C.3    10  ASN10       0.1688
     37  C         30.0870   13.4560  -13.2970 C.2    10  ASN10       0.2292
     38  O         30.2650   14.6530  -13.3900 O.2    10  ASN10      -0.2864
     39  CB        27.6170   13.6840  -13.1560 C.3    10  ASN10       0.1181
     40  CG        27.3250   13.4330  -14.6530 C.2    10  ASN10       0.2629
     41  OD1       28.2040   13.5230  -15.5220 O.2    10  ASN10      -0.2716
     42  ND2       26.0620   13.1510  -14.9520 N.am   10  ASN10      -0.0877
     43  N         29.5030   15.7590  -16.6350 N.3    13  LYS13      -0.1245
     44  CA        28.9630   17.0960  -16.3830 C.3    13  LYS13       0.1561
     45  C         29.6420   17.8710  -15.2800 C.2    13  LYS13       0.2260
     46  O         29.5280   19.1040  -15.2440 O.2    13  LYS13      -0.2867
     47  CB        27.4460   17.0170  -16.1500 C.3    13  LYS13       0.0271
     48  CG        26.6790   16.4590  -17.3910 C.3    13  LYS13       0.0035
     49  CD        27.1460   17.1230  -18.7480 C.3    13  LYS13       0.0206
     50  CE        26.5420   16.4760  -20.0010 C.3    13  LYS13       0.1093
     51  NZ        27.1410   17.0190  -21.2860 N.3    13  LYS13      -0.1314
     52  N         29.4170   17.5980  -11.7270 N.3    15  PHE15      -0.1241
     53  CA        28.7880   17.9450  -10.4660 C.3    15  PHE15       0.1605
     54  C         28.3530   16.7020   -9.7210 C.2    15  PHE15       0.2264
     55  O         28.2460   15.6580  -10.2940 O.2    15  PHE15      -0.2867
     56  CB        27.6090   18.9220  -10.6470 C.3    15  PHE15       0.0534
     57  CG        26.4480   18.3560  -11.3920 C.ar   15  PHE15      -0.0203
     58  CD1       25.4670   17.6370  -10.7300 C.ar   15  PHE15      -0.0042
     59  CD2       26.3220   18.5600  -12.7570 C.ar   15  PHE15      -0.0042
     60  CE1       24.3750   17.1150  -11.4140 C.ar   15  PHE15      -0.0003
     61  CE2       25.2300   18.0390  -13.4590 C.ar   15  PHE15      -0.0003
     62  CZ        24.2530   17.3100  -12.7700 C.ar   15  PHE15      -0.0000
     63  N         27.3760   15.3670   -5.2850 N.3    17  PHE17      -0.1241
     64  CA        27.1020   15.6960   -3.8860 C.3    17  PHE17       0.1605
     65  C         28.1260   15.0130   -2.9850 C.2    17  PHE17       0.2264
     66  O         28.6090   13.9100   -3.2470 O.2    17  PHE17      -0.2867
     67  CB        25.7030   15.2750   -3.4530 C.3    17  PHE17       0.0534
     68  CG        24.6440   16.2240   -3.8420 C.ar   17  PHE17      -0.0203
     69  CD1       24.0250   16.1180   -5.0480 C.ar   17  PHE17      -0.0042
     70  CD2       24.2440   17.2110   -2.9820 C.ar   17  PHE17      -0.0042
     71  CE1       23.0340   17.0070   -5.4040 C.ar   17  PHE17      -0.0003
     72  CE2       23.2480   18.0880   -3.3380 C.ar   17  PHE17      -0.0003
     73  CZ        22.6600   17.9810   -4.5380 C.ar   17  PHE17      -0.0000
     74  N         22.6640   17.6470    5.7220 N.3    24  ASP24      -0.1225
     75  CA        22.3050   17.4270    4.3270 C.3    24  ASP24       0.1805
     76  C         23.5150   17.3440    3.4380 C.2    24  ASP24       0.2597
     77  O         24.5480   17.9650    3.6920 O.2    24  ASP24      -0.2718
     78  CB        21.4170   18.5670    3.8200 C.3    24  ASP24       0.1424
     79  CG        20.0650   18.6000    4.4790 C.2    24  ASP24       0.3668
     80  OD1       19.7120   17.6440    5.1920 O.co2  24  ASP24      -0.2456
     81  OD2       19.3480   19.6050    4.2710 O.co2  24  ASP24      -0.2456
     82  N         23.3890   16.5700    2.3650 N.am   25  ASP25      -0.1974
     83  CA        24.4130   16.5120    1.3590 C.3    25  ASP25       0.1709
     84  C         24.6680   17.9220    0.8590 C.2    25  ASP25       0.2293
     85  O         23.7500   18.7840    0.8100 O.2    25  ASP25      -0.2864
     86  CB        23.9930   15.6640    0.1600 C.3    25  ASP25       0.1436
     87  CG        23.6400   14.2190    0.5250 C.2    25  ASP25       0.3671
     88  OD1       24.1230   13.7090    1.5390 O.co2  25  ASP25      -0.2456
     89  OD2       22.9050   13.5880   -0.2580 O.co2  25  ASP25      -0.2456
     90  N         32.9410    8.7120   -6.5100 N.3    43  GLU43      -0.1245
     91  CA        32.1630    8.1770   -5.4310 C.3    43  GLU43       0.1567
     92  C         33.0570    7.5320   -4.3810 C.2    43  GLU43       0.2260
     93  O         34.0030    6.7860   -4.7150 O.2    43  GLU43      -0.2867
     94  CB        31.1970    7.1450   -6.0110 C.3    43  GLU43       0.0388
     95  CG        30.1500    6.6450   -5.0980 C.3    43  GLU43       0.1160
     96  CD        28.8990    6.1110   -5.8510 C.2    43  GLU43       0.3649
     97  OE1       28.7040    6.4300   -7.0540 O.co2  43  GLU43      -0.2457
     98  OE2       28.1050    5.3810   -5.2260 O.co2  43  GLU43      -0.2457
@<TRIPOS>BOND
     1    51    50    1
     2    50    49    1
     3    49    48    1
     4    48    47    1
     5    43    44    1
     6    44    47    1
     7    44    45    1
     8    41    40    2
     9    45    46    2
    10    42    40   am
    11    40    39    1
    12    61    62   ar
    13    61    59   ar
    14    38    37    2
    15    37    36    1
    16    39    36    1
    17    62    60   ar
    18    59    57   ar
    19    36    35    1
    20    52    53    1
    21    60    58   ar
    22    57    58   ar
    23    57    56    1
    24    35    26   am
    25    33    31   ar
    26    33    34   ar
    27    27    26    2
    28    56    53    1
    29    53    54    1
    30    31    29   ar
    31    26    25    1
    32    55    54    2
    33    34    32   ar
    34    22    23   ar
    35    22    20   ar
    36    29    28    1
    37    29    30   ar
    38    23    21   ar
    39    32    30   ar
    40    25    28    1
    41    25    24    1
    42    20    17   ar
    43    24    12   am
    44    21    19   ar
    45    17    19   ar
    46    17    15   ar
    47    19    18   ar
    48    97    96   ar
    49    12    13    2
    50    12    11    1
    51    14    15    1
    52    14    11    1
    53    15    16   ar
    54    90    91    1
    55    11    10    1
    56    94    91    1
    57    94    95    1
    58    18    16   ar
    59    96    98   ar
    60    96    95    1
    61    91    92    1
    62    71    69   ar
    63    71    73   ar
    64    63    64    1
    65    69    68   ar
    66    10     3   am
    67    93    92    2
    68    73    72   ar
    69     4     3    2
    70     3     2    1
    71    64    67    1
    72    64    65    1
    73    68    67    1
    74    68    70   ar
    75    72    70   ar
    76    66    65    2
    77     2     1    1
    78     2     5    1
    79     5     6    1
    80     6     7    1
    81     7     8    1
    82     8     9    1
    83    89    87   ar
    84    86    87    1
    85    86    83    1
    86    87    88   ar
    87    85    84    2
    88    84    83    1
    89    83    82    1
    90    82    76   am
    91    76    77    2
    92    76    75    1
    93    78    75    1
    94    78    79    1
    95    81    79   ar
    96    75    74    1
    97    79    80   ar
