@<TRIPOS>MOLECULE
tmp/3pf7A00.pdb
 125 117 0 0 0
SMALL
GASTEIGER

@<TRIPOS>ATOM
      1  N        -48.1710   16.7330  -17.9810 N.3   116  GLN116     -0.1245
      2  CA       -46.7640   16.3510  -18.0360 C.3   116  GLN116      0.1566
      3  C        -46.5530   14.9600  -17.4160 C.2   116  GLN116      0.2260
      4  O        -45.8660   14.1170  -17.9850 O.2   116  GLN116     -0.2867
      5  CB       -45.8940   17.3850  -17.3240 C.3   116  GLN116      0.0367
      6  CG       -44.4080   17.0230  -17.2900 C.3   116  GLN116      0.0905
      7  CD       -43.8020   16.9030  -18.6710 C.2   116  GLN116      0.2608
      8  OE1      -44.0280   17.7440  -19.5400 O.2   116  GLN116     -0.2717
      9  NE2      -43.0270   15.8480  -18.8840 N.am  116  GLN116     -0.0878
     10  N        -47.3800   11.7320  -19.6620 N.3   119  THR119     -0.1203
     11  CA       -46.5010   11.2680  -20.7340 C.3   119  THR119      0.1994
     12  C        -45.4250   10.2870  -20.2490 C.2   119  THR119      0.2617
     13  O        -44.8910    9.5140  -21.0500 O.2   119  THR119     -0.2717
     14  CB       -45.7720   12.4480  -21.4390 C.3   119  THR119      0.1784
     15  OG1      -44.7310   12.9600  -20.5870 O.3   119  THR119     -0.2211
     16  CG2      -46.7650   13.5850  -21.7790 C.3   119  THR119      0.0376
     17  N        -45.1210   10.3060  -18.9560 N.am  120  GLU120     -0.1979
     18  CA       -44.0160    9.5220  -18.4110 C.3   120  GLU120      0.1602
     19  C        -44.3670    8.0270  -18.3960 C.2   120  GLU120      0.2287
     20  O        -43.6730    7.2290  -19.0260 O.2   120  GLU120     -0.2864
     21  CB       -43.6290   10.0130  -17.0020 C.3   120  GLU120      0.0415
     22  CG       -43.6200   11.5390  -16.8250 C.3   120  GLU120      0.1163
     23  CD       -42.4660   12.2590  -17.5410 C.2   120  GLU120      0.3649
     24  OE1      -41.6010   11.6240  -18.1720 O.co2 120  GLU120     -0.2457
     25  OE2      -42.4070   13.4980  -17.4470 O.co2 120  GLU120     -0.2457
     26  N        -44.6780    6.5330  -22.0320 N.3   123  SER123     -0.1217
     27  CA       -43.5110    6.1400  -22.8240 C.3   123  SER123      0.1889
     28  C        -43.0920    4.7320  -22.4140 C.2   123  SER123      0.2288
     29  O        -42.6600    3.9590  -23.2470 O.2   123  SER123     -0.2866
     30  CB       -42.3460    7.1050  -22.6570 C.3   123  SER123      0.2089
     31  OG       -41.7260    6.9380  -21.4080 O.3   123  SER123     -0.2183
     32  N        -38.1610    7.3120  -16.5580 N.3   150  GLU150     -0.1245
     33  CA       -39.4960    7.8310  -16.8730 C.3   150  GLU150      0.1567
     34  C        -40.4270    7.4190  -15.7480 C.2   150  GLU150      0.2260
     35  O        -41.3260    8.1670  -15.3760 O.2   150  GLU150     -0.2867
     36  CB       -39.9900    7.3050  -18.2420 C.3   150  GLU150      0.0388
     37  CG       -39.0590    7.6390  -19.4130 C.3   150  GLU150      0.1160
     38  CD       -39.0160    9.1290  -19.7240 C.2   150  GLU150      0.3649
     39  OE1      -38.5730    9.5130  -20.8320 O.co2 150  GLU150     -0.2457
     40  OE2      -39.4270    9.9140  -18.8480 O.co2 150  GLU150     -0.2457
     41  N        -40.0590    9.9640  -13.2720 N.3   153  HIS153     -0.1241
     42  CA       -40.6760   11.2460  -13.6540 C.3   153  HIS153      0.1621
     43  C        -42.1380   11.2540  -13.2480 C.2   153  HIS153      0.2264
     44  O        -42.6960   12.3030  -12.8910 O.2   153  HIS153     -0.2867
     45  CB       -40.5050   11.4950  -15.1520 C.3   153  HIS153      0.0745
     46  CG       -39.1140   11.8810  -15.5210 C.ar  153  HIS153      0.0817
     47  ND1      -38.7420   12.1830  -16.8110 N.ar  153  HIS153     -0.2268
     48  CD2      -38.0050   12.0470  -14.7580 C.ar  153  HIS153      0.1154
     49  CE1      -37.4610   12.5130  -16.8300 C.ar  153  HIS153      0.1986
     50  NE2      -36.9920   12.4420  -15.5960 N.ar  153  HIS153     -0.2212
     51  N        -48.5030    9.8860  -27.6570 N.3   193  PHE193     -0.1241
     52  CA       -48.2040    8.9250  -26.5870 C.3   193  PHE193      0.1605
     53  C        -49.2040    7.7600  -26.5660 C.2   193  PHE193      0.2264
     54  O        -49.1720    6.8930  -25.6790 O.2   193  PHE193     -0.2867
     55  CB       -48.1180    9.6440  -25.2300 C.3   193  PHE193      0.0534
     56  CG       -46.9380   10.5820  -25.1310 C.ar  193  PHE193     -0.0203
     57  CD1      -45.6890   10.1120  -24.7330 C.ar  193  PHE193     -0.0042
     58  CD2      -47.0640   11.9220  -25.4800 C.ar  193  PHE193     -0.0042
     59  CE1      -44.6010   10.9600  -24.6580 C.ar  193  PHE193     -0.0003
     60  CE2      -45.9760   12.7810  -25.4110 C.ar  193  PHE193     -0.0003
     61  CZ       -44.7430   12.3070  -25.0020 C.ar  193  PHE193     -0.0000
     62  N        -37.9000    8.2260  -31.3750 N.3   206  PHE206     -0.1241
     63  CA       -38.7410    8.7370  -30.2880 C.3   206  PHE206      0.1605
     64  C        -37.8980    9.3970  -29.1850 C.2   206  PHE206      0.2264
     65  O        -38.2320   10.5000  -28.7130 O.2   206  PHE206     -0.2867
     66  CB       -39.6350    7.6060  -29.7170 C.3   206  PHE206      0.0534
     67  CG       -40.6350    8.0630  -28.6710 C.ar  206  PHE206     -0.0203
     68  CD1      -41.9760    8.2360  -28.9970 C.ar  206  PHE206     -0.0042
     69  CD2      -40.2350    8.2830  -27.3540 C.ar  206  PHE206     -0.0042
     70  CE1      -42.8900    8.6440  -28.0240 C.ar  206  PHE206     -0.0003
     71  CE2      -41.1370    8.6930  -26.3850 C.ar  206  PHE206     -0.0003
     72  CZ       -42.4710    8.8700  -26.7160 C.ar  206  PHE206     -0.0000
     73  N        -39.0390   12.9430  -29.6020 N.3   210  THR210     -0.1203
     74  CA       -40.1840   13.1490  -28.7190 C.3   210  THR210      0.1994
     75  C        -39.7550   13.4000  -27.2800 C.2   210  THR210      0.2617
     76  O        -40.3440   14.2550  -26.6090 O.2   210  THR210     -0.2717
     77  CB       -41.1810   11.9710  -28.8030 C.3   210  THR210      0.1784
     78  OG1      -41.4090   11.6700  -30.1830 O.3   210  THR210     -0.2211
     79  CG2      -42.5210   12.3450  -28.1410 C.3   210  THR210      0.0376
     80  N        -38.7190   12.7070  -26.7890 N.am  211  ASP211     -0.1973
     81  CA       -38.1820   13.0810  -25.4750 C.3   211  ASP211      0.1709
     82  C        -37.6790   14.5210  -25.5440 C.2   211  ASP211      0.2293
     83  O        -37.5480   15.1540  -24.5040 O.2   211  ASP211     -0.2864
     84  CB       -37.0560   12.1590  -24.9700 C.3   211  ASP211      0.1436
     85  CG       -37.5700   10.7830  -24.4950 C.2   211  ASP211      0.3671
     86  OD1      -38.1920   10.0920  -25.3030 O.co2 211  ASP211     -0.2456
     87  OD2      -37.3390   10.3790  -23.3180 O.co2 211  ASP211     -0.2456
     88  N        -39.3650   16.9740  -26.9380 N.3   213  ASP213     -0.1225
     89  CA       -40.5280   17.7750  -26.5410 C.3   213  ASP213      0.1805
     90  C        -40.5670   17.8110  -25.0240 C.2   213  ASP213      0.2598
     91  O        -40.9000   18.8330  -24.4280 O.2   213  ASP213     -0.2718
     92  CB       -41.8560   17.2070  -27.0800 C.3   213  ASP213      0.1424
     93  CG       -43.0590   17.8320  -26.4200 C.2   213  ASP213      0.3668
     94  OD1      -43.3480   19.0180  -26.7230 O.co2 213  ASP213     -0.2456
     95  OD2      -43.7080   17.1590  -25.5860 O.co2 213  ASP213     -0.2456
     96  N        -40.2080   16.6970  -24.3900 N.am  214  GLY214     -0.1957
     97  CA       -40.0980   16.6850  -22.9460 C.3   214  GLY214      0.1869
     98  C        -39.1130   17.7490  -22.4730 C.2   214  GLY214      0.2309
     99  O        -39.4250   18.5250  -21.5730 O.2   214  GLY214     -0.2863
    100  N        -40.7230   21.2820  -23.0240 N.3   217  GLN217     -0.1231
    101  CA       -41.8090   21.5210  -22.0810 C.3   217  GLN217      0.1698
    102  C        -41.2610   21.6760  -20.6510 C.2   217  GLN217      0.2592
    103  O        -41.6670   22.5760  -19.9120 O.2   217  GLN217     -0.2718
    104  CB       -42.8780   20.4180  -22.1300 C.3   217  GLN217      0.0381
    105  CG       -43.5290   20.1910  -23.5180 C.3   217  GLN217      0.0905
    106  CD       -44.3670   21.3610  -23.9730 C.2   217  GLN217      0.2608
    107  OE1      -44.7020   22.2410  -23.1780 O.2   217  GLN217     -0.2717
    108  NE2      -44.7050   21.3890  -25.2650 N.am  217  GLN217     -0.0878
    109  N        -40.3430   20.7970  -20.2500 N.am  218  LEU218     -0.1980
    110  CA       -39.7530   20.8750  -18.9070 C.3   218  LEU218      0.1596
    111  C        -38.9160   22.1500  -18.7070 C.2   218  LEU218      0.2287
    112  O        -38.8910   22.7130  -17.6250 O.2   218  LEU218     -0.2864
    113  CB       -38.8390   19.6810  -18.6680 C.3   218  LEU218      0.0297
    114  CG       -39.5430   18.3280  -18.5280 C.3   218  LEU218      0.0022
    115  CD1      -38.4840   17.2290  -18.5490 C.3   218  LEU218      0.0001
    116  CD2      -40.3770   18.2910  -17.2570 C.3   218  LEU218      0.0001
    117  N        -33.5920   13.8390  -18.7210 N.3   240  GLU240     -0.1245
    118  CA       -33.9680   13.9950  -20.1240 C.3   240  GLU240      0.1567
    119  C        -32.7570   14.0490  -21.0660 C.2   240  GLU240      0.2260
    120  O        -32.8120   13.5340  -22.1800 O.2   240  GLU240     -0.2867
    121  CB       -34.7890   15.2700  -20.3110 C.3   240  GLU240      0.0388
    122  CG       -35.5890   15.2610  -21.5960 C.3   240  GLU240      0.1160
    123  CD       -36.7840   14.3230  -21.4940 C.2   240  GLU240      0.3649
    124  OE1      -36.6510   13.1190  -21.8290 O.co2 240  GLU240     -0.2457
    125  OE2      -37.8450   14.7870  -21.0280 O.co2 240  GLU240     -0.2457
@<TRIPOS>BOND
     1    62    63    1
     2    63    66    1
     3    63    64    1
     4    78    77    1
     5    66    67    1
     6    73    74    1
     7    64    65    2
     8    68    67   ar
     9    68    70   ar
    10    77    74    1
    11    77    79    1
    12    74    75    1
    13    67    69   ar
    14    70    72   ar
    15    51    52    1
    16    69    71   ar
    17    75    80   am
    18    75    76    2
    19    92    89    1
    20    92    93    1
    21    88    89    1
    22    80    81    1
    23    94    93   ar
    24    72    71   ar
    25    52    53    1
    26    52    55    1
    27    53    54    2
    28    89    90    1
    29    93    95   ar
    30    82    81    1
    31    82    83    2
    32    58    60   ar
    33    58    56   ar
    34    81    84    1
    35    60    61   ar
    36    86    85   ar
    37   108   106   am
    38    55    56    1
    39    56    57   ar
    40    90    91    2
    41    90    96   am
    42    61    59   ar
    43    84    85    1
    44    57    59   ar
    45    85    87   ar
    46    96    97    1
    47   106   105    1
    48   106   107    2
    49   105   104    1
    50    29    28    2
    51   100   101    1
    52    97    98    1
    53    27    30    1
    54    27    28    1
    55    27    26    1
    56    30    31    1
    57    98    99    2
    58   120   119    2
    59   104   101    1
    60   101   102    1
    61   124   123   ar
    62    16    14    1
    63   122   123    1
    64   122   121    1
    65   123   125   ar
    66    14    11    1
    67    14    15    1
    68   119   118    1
    69    13    12    2
    70    39    38   ar
    71    11    12    1
    72    11    10    1
    73   102   109   am
    74   102   103    2
    75   121   118    1
    76   109   110    1
    77    12    17   am
    78   118   117    1
    79    38    37    1
    80    38    40   ar
    81     8     7    2
    82    37    36    1
    83    20    19    2
    84    17    18    1
    85   110   111    1
    86   110   113    1
    87     9     7   am
    88   111   112    2
    89     7     6    1
    90   113   114    1
    91   115   114    1
    92   114   116    1
    93    18    19    1
    94    18    21    1
    95    36    33    1
    96    24    23   ar
    97     2     1    1
    98     2     3    1
    99     2     5    1
   100     4     3    2
   101    23    25   ar
   102    23    22    1
   103     5     6    1
   104    21    22    1
   105    33    32    1
   106    33    34    1
   107    49    47   ar
   108    49    50   ar
   109    47    46   ar
   110    34    35    2
   111    50    48   ar
   112    46    45    1
   113    46    48   ar
   114    45    42    1
   115    42    41    1
   116    42    43    1
   117    43    44    2
