@<TRIPOS>MOLECULE
tmp/3pfcA00.pdb
 135 129 0 0 0
SMALL
GASTEIGER

@<TRIPOS>ATOM
      1  N        -26.8310  -11.3780  -13.8960 N.3    39  GLY39      -0.1210
      2  CA       -26.0430  -10.2130  -14.2690 C.3    39  GLY39       0.1956
      3  C        -26.8430   -8.9440  -14.5410 C.2    39  GLY39       0.2611
      4  O        -28.0670   -8.8940  -14.3690 O.2    39  GLY39      -0.2717
      5  N        -26.1070   -7.9220  -14.9820 N.am   40  PHE40      -0.1976
      6  CA       -26.6050   -6.5860  -15.3130 C.3    40  PHE40       0.1639
      7  C        -27.5530   -6.6470  -16.5220 C.2    40  PHE40       0.2290
      8  O        -27.1970   -7.1600  -17.5860 O.2    40  PHE40      -0.2864
      9  CB       -25.3560   -5.7620  -15.6300 C.3    40  PHE40       0.0560
     10  CG       -25.5950   -4.3570  -16.0750 C.ar   40  PHE40      -0.0200
     11  CD1      -25.8930   -3.3520  -15.1580 C.ar   40  PHE40      -0.0042
     12  CD2      -25.4140   -4.0150  -17.4030 C.ar   40  PHE40      -0.0042
     13  CE1      -26.0560   -2.0360  -15.5980 C.ar   40  PHE40      -0.0003
     14  CE2      -25.5850   -2.6920  -17.8360 C.ar   40  PHE40      -0.0003
     15  CZ       -25.8940   -1.7080  -16.9100 C.ar   40  PHE40      -0.0000
     16  N        -23.0910  -14.7670  -11.9340 N.3   111  HIS111     -0.1226
     17  CA       -22.6960  -14.5400  -13.2960 C.3   111  HIS111      0.1752
     18  C        -22.5040  -13.0520  -13.5090 C.2   111  HIS111      0.2596
     19  O        -23.4160  -12.2340  -13.2340 O.2   111  HIS111     -0.2718
     20  CB       -23.7570  -15.0530  -14.2840 C.3   111  HIS111      0.0759
     21  CG       -23.5300  -14.6300  -15.7140 C.ar  111  HIS111      0.0818
     22  ND1      -22.3460  -14.8340  -16.4030 N.ar  111  HIS111     -0.2268
     23  CD2      -24.3680  -14.0390  -16.5970 C.ar  111  HIS111      0.1154
     24  CE1      -22.4750  -14.4000  -17.6470 C.ar  111  HIS111      0.1986
     25  NE2      -23.6940  -13.9090  -17.7920 N.ar  111  HIS111     -0.2212
     26  N        -21.3090  -12.7120  -14.0030 N.am  112  ALA112     -0.1966
     27  CA       -21.0180  -11.3240  -14.4710 C.3   112  ALA112      0.1728
     28  C        -21.2050  -10.3100  -13.3470 C.2   112  ALA112      0.2616
     29  O        -20.5040  -10.3940  -12.3430 O.2   112  ALA112     -0.2715
     30  CB       -21.8930  -11.0140  -15.7390 C.3   112  ALA112      0.0334
     31  N        -22.0900   -9.3250  -13.4440 N.am  113  GLN113     -0.1977
     32  CA       -22.2500   -8.4380  -12.2480 C.3   113  GLN113      0.1601
     33  C        -22.7200   -9.2350  -11.0060 C.2   113  GLN113      0.2287
     34  O        -22.3730   -8.8880   -9.8840 O.2   113  GLN113     -0.2864
     35  CB       -23.2090   -7.2640  -12.5620 C.3   113  GLN113      0.0394
     36  CG       -23.3850   -6.3030  -11.3230 C.3   113  GLN113      0.0908
     37  CD       -24.2690   -5.1290  -11.7340 C.2   113  GLN113      0.2608
     38  OE1      -23.9200   -4.3920  -12.6650 O.2   113  GLN113     -0.2717
     39  NE2      -25.3760   -4.9130  -11.0170 N.am  113  GLN113     -0.0878
     40  N        -17.8740   -9.6010  -13.2340 N.3   138  ALA138     -0.1245
     41  CA       -17.6970   -8.3500  -13.9720 C.3   138  ALA138      0.1562
     42  C        -16.9400   -7.3030  -13.1660 C.2   138  ALA138      0.2260
     43  O        -17.3830   -6.1480  -13.0620 O.2   138  ALA138     -0.2867
     44  CB       -19.1060   -7.7970  -14.4700 C.3   138  ALA138      0.0290
     45  N        -14.4370   -5.6540  -13.8300 N.3   140  THR140     -0.1203
     46  CA       -14.0710   -4.5470  -14.7200 C.3   140  THR140      0.1994
     47  C        -15.0840   -3.4020  -14.7310 C.2   140  THR140      0.2617
     48  O        -14.7720   -2.3390  -15.2580 O.2   140  THR140     -0.2717
     49  CB       -13.8730   -5.0420  -16.1890 C.3   140  THR140      0.1784
     50  OG1      -15.0010   -5.8400  -16.5680 O.3   140  THR140     -0.2211
     51  CG2      -12.6110   -5.9040  -16.3010 C.3   140  THR140      0.0376
     52  N        -16.2930   -3.6110  -14.1920 N.am  141  LEU141     -0.1979
     53  CA       -17.2610   -2.5090  -14.1410 C.3   141  LEU141      0.1596
     54  C        -16.6710   -1.3040  -13.3930 C.2   141  LEU141      0.2287
     55  O        -16.9700   -0.1600  -13.7510 O.2   141  LEU141     -0.2864
     56  CB       -18.6240   -2.9550  -13.5460 C.3   141  LEU141      0.0297
     57  CG       -18.7280   -3.4210  -12.0810 C.3   141  LEU141      0.0022
     58  CD1      -18.9150   -2.1870  -11.1960 C.3   141  LEU141      0.0001
     59  CD2      -19.9080   -4.3790  -11.9210 C.3   141  LEU141      0.0001
     60  N        -14.0110    0.3380  -15.7990 N.3   144  ASP144     -0.1239
     61  CA       -14.8390    0.9670  -16.8410 C.3   144  ASP144      0.1674
     62  C        -15.3930    2.3220  -16.3910 C.2   144  ASP144      0.2266
     63  O        -15.3370    3.3210  -17.1410 O.2   144  ASP144     -0.2867
     64  CB       -16.0010    0.0520  -17.2680 C.3   144  ASP144      0.1410
     65  CG       -15.5400   -1.1920  -18.0840 C.2   144  ASP144      0.3668
     66  OD1      -14.3400   -1.3460  -18.3500 O.co2 144  ASP144     -0.2456
     67  OD2      -16.4090   -1.9840  -18.4920 O.co2 144  ASP144     -0.2456
     68  N        -18.5770    2.7140  -20.2910 N.3   150  THR150     -0.1203
     69  CA       -19.3430    1.5720  -19.7900 C.3   150  THR150      0.1994
     70  C        -20.0760    0.9540  -20.9710 C.2   150  THR150      0.2617
     71  O        -21.0500    1.5220  -21.4880 O.2   150  THR150     -0.2717
     72  CB       -20.3630    2.0610  -18.7100 C.3   150  THR150      0.1784
     73  OG1      -19.6180    2.5570  -17.5990 O.3   150  THR150     -0.2211
     74  CG2      -21.3330    0.9510  -18.2790 C.3   150  THR150      0.0376
     75  N        -19.5660   -0.1810  -21.4330 N.am  151  GLN151     -0.1979
     76  CA       -20.1350   -0.9120  -22.5830 C.3   151  GLN151      0.1601
     77  C        -20.4250   -0.0180  -23.7960 C.2   151  GLN151      0.2287
     78  O        -21.5080   -0.0970  -24.3730 O.2   151  GLN151     -0.2864
     79  CB       -21.3990   -1.7010  -22.1630 C.3   151  GLN151      0.0394
     80  CG       -21.1210   -2.6940  -21.0150 C.3   151  GLN151      0.0908
     81  CD       -22.1930   -3.7710  -20.8240 C.2   151  GLN151      0.2608
     82  OE1      -22.2420   -4.4170  -19.7700 O.2   151  GLN151     -0.2717
     83  NE2      -23.0320   -3.9880  -21.8390 N.am  151  GLN151     -0.0878
     84  N        -29.4530    4.1550  -16.8690 N.3   171  LEU171     -0.1245
     85  CA       -28.5320    3.7860  -15.8070 C.3   171  LEU171      0.1561
     86  C        -28.3740    4.9820  -14.8470 C.2   171  LEU171      0.2260
     87  O        -28.2070    6.1300  -15.2820 O.2   171  LEU171     -0.2867
     88  CB       -27.1850    3.3950  -16.3880 C.3   171  LEU171      0.0270
     89  CG       -26.1100    2.8590  -15.4330 C.3   171  LEU171      0.0019
     90  CD1      -26.5230    1.5050  -14.7960 C.3   171  LEU171      0.0001
     91  CD2      -24.7990    2.7440  -16.2140 C.3   171  LEU171      0.0001
     92  N        -25.1250    4.6560   -9.7230 N.3   175  TYR175     -0.1227
     93  CA       -24.5330    3.3540  -10.0480 C.3   175  TYR175      0.1736
     94  C        -23.0370    3.5530  -10.3370 C.2   175  TYR175      0.2595
     95  O        -22.1930    2.8430   -9.8020 O.2   175  TYR175     -0.2718
     96  CB       -25.2400    2.7030  -11.2600 C.3   175  TYR175      0.0548
     97  CG       -24.5670    1.3940  -11.7040 C.ar  175  TYR175     -0.0200
     98  CD1      -25.1750    0.1650  -11.4470 C.ar  175  TYR175     -0.0009
     99  CD2      -23.3200    1.4030  -12.3410 C.ar  175  TYR175     -0.0009
    100  CE1      -24.5380   -1.0410  -11.8030 C.ar  175  TYR175      0.0417
    101  CE2      -22.6900    0.2390  -12.7380 C.ar  175  TYR175      0.0417
    102  CZ       -23.3040   -0.9780  -12.4650 C.ar  175  TYR175      0.1957
    103  OH       -22.6710   -2.1310  -12.7860 O.3   175  TYR175     -0.2866
    104  N        -22.7290    4.5080  -11.2230 N.am  176  LEU176     -0.1980
    105  CA       -21.3520    4.7020  -11.7150 C.3   176  LEU176      0.1596
    106  C        -20.4470    5.2970  -10.6450 C.2   176  LEU176      0.2287
    107  O        -19.2820    4.9160  -10.5310 O.2   176  LEU176     -0.2864
    108  CB       -21.3680    5.5430  -13.0170 C.3   176  LEU176      0.0297
    109  CG       -22.1430    4.8820  -14.1560 C.3   176  LEU176      0.0022
    110  CD1      -22.4390    5.9290  -15.2870 C.3   176  LEU176      0.0001
    111  CD2      -21.3430    3.7160  -14.6990 C.3   176  LEU176      0.0001
    112  N        -17.3070   -8.5530  -23.3230 N.3   205  VAL205     -0.1231
    113  CA       -17.9830   -7.6500  -22.3650 C.3   205  VAL205      0.1692
    114  C        -17.1350   -7.4160  -21.1000 C.2   205  VAL205      0.2591
    115  O        -17.0100   -6.2630  -20.5970 O.2   205  VAL205     -0.2718
    116  CB       -19.3970   -8.2080  -21.9490 C.3   205  VAL205      0.0266
    117  CG1      -20.0820   -7.2730  -20.9480 C.3   205  VAL205      0.0020
    118  CG2      -20.2770   -8.4470  -23.2090 C.3   205  VAL205      0.0020
    119  N        -16.5680   -8.4990  -20.5810 N.am  206  VAL206     -0.1980
    120  CA       -15.7020   -8.4500  -19.3940 C.3   206  VAL206      0.1595
    121  C        -14.4470   -9.2250  -19.7900 C.2   206  VAL206      0.2287
    122  O        -14.5250  -10.4240  -20.1380 O.2   206  VAL206     -0.2864
    123  CB       -16.3380   -9.1710  -18.1310 C.3   206  VAL206      0.0276
    124  CG1      -15.3190   -9.2310  -16.9930 C.3   206  VAL206      0.0022
    125  CG2      -17.5980   -8.4720  -17.6740 C.3   206  VAL206      0.0022
    126  N        -19.5430  -14.0970  -23.3170 N.3   231  HIS231     -0.1241
    127  CA       -19.8590  -13.5930  -22.0040 C.3   231  HIS231      0.1621
    128  C        -20.9770  -14.3730  -21.3340 C.2   231  HIS231      0.2264
    129  O        -21.0150  -14.5060  -20.1100 O.2   231  HIS231     -0.2867
    130  CB       -20.2900  -12.1470  -22.1320 C.3   231  HIS231      0.0745
    131  CG       -20.5640  -11.5100  -20.8190 C.ar  231  HIS231      0.0817
    132  ND1      -19.6170  -11.4420  -19.8170 N.ar  231  HIS231     -0.2268
    133  CD2      -21.6640  -10.8840  -20.3330 C.ar  231  HIS231      0.1154
    134  CE1      -20.1200  -10.8110  -18.7710 C.ar  231  HIS231      0.1986
    135  NE2      -21.3660  -10.4630  -19.0560 N.ar  231  HIS231     -0.2212
@<TRIPOS>BOND
     1    78    77    2
     2    77    76    1
     3   112   113    1
     4   126   127    1
     5   118   116    1
     6    76    79    1
     7    76    75    1
     8   113   116    1
     9   113   114    1
    10    79    80    1
    11   130   127    1
    12   130   131    1
    13   127   128    1
    14   116   117    1
    15    83    81   am
    16    71    70    2
    17    75    70   am
    18   128   129    2
    19   114   115    2
    20   114   119   am
    21    80    81    1
    22    70    69    1
    23    81    82    2
    24   131   133   ar
    25   131   132   ar
    26   119   120    1
    27   133   135   ar
    28    68    69    1
    29   122   121    2
    30   132   134   ar
    31   121   120    1
    32    69    72    1
    33   120   123    1
    34   135   134   ar
    35    72    74    1
    36    72    73    1
    37    67    65   ar
    38    66    65   ar
    39   123   125    1
    40   123   124    1
    41    65    64    1
    42    14    12   ar
    43    14    15   ar
    44    25    24   ar
    45    25    23   ar
    46    24    22   ar
    47     8     7    2
    48    12    10   ar
    49    64    61    1
    50    63    62    2
    51    15    13   ar
    52    84    85    1
    53    61    62    1
    54    61    60    1
    55    23    21   ar
    56    50    49    1
    57     7     6    1
    58    22    21   ar
    59    88    85    1
    60    88    89    1
    61    51    49    1
    62    91    89    1
    63    49    46    1
    64    10     9    1
    65    10    11   ar
    66    85    86    1
    67    30    27    1
    68    21    20    1
    69     9     6    1
    70    13    11   ar
    71    89    90    1
    72     6     5    1
    73   110   109    1
    74    87    86    2
    75    48    47    2
    76     5     3   am
    77    47    46    1
    78    47    52   am
    79    46    45    1
    80   111   109    1
    81     3     4    2
    82     3     2    1
    83    27    26    1
    84    27    28    1
    85    44    41    1
    86    20    17    1
    87     2     1    1
    88    52    53    1
    89   109   108    1
    90    53    56    1
    91    53    54    1
    92    26    18   am
    93    41    40    1
    94    41    42    1
    95    55    54    2
    96    56    57    1
    97    18    17    1
    98    18    19    2
    99    31    28   am
   100    31    32    1
   101    28    29    2
   102    17    16    1
   103    42    43    2
   104   108   105    1
   105   103   102    1
   106   101   102   ar
   107   101    99   ar
   108    38    37    2
   109    35    32    1
   110    35    36    1
   111   102   100   ar
   112    99    97   ar
   113    32    33    1
   114    57    59    1
   115    57    58    1
   116   100    98   ar
   117    37    36    1
   118    37    39   am
   119   105   104    1
   120   105   106    1
   121    97    98   ar
   122    97    96    1
   123    96    93    1
   124   104    94   am
   125    33    34    2
   126   106   107    2
   127    94    93    1
   128    94    95    2
   129    93    92    1
