@<TRIPOS>MOLECULE
tmp/3pfdD01.pdb
 204 195 0 0 0
SMALL
GASTEIGER

@<TRIPOS>ATOM
      1  N         71.7170   27.4020   46.8840 N.3    82  VAL82      -0.1245
      2  CA        72.2670   26.0890   47.1810 C.3    82  VAL82       0.1561
      3  C         72.7960   25.9940   48.6400 C.2    82  VAL82       0.2260
      4  O         72.6910   24.9320   49.2670 O.2    82  VAL82      -0.2867
      5  CB        73.1970   25.5840   46.0550 C.3    82  VAL82       0.0252
      6  CG1       74.0000   24.3490   46.4910 C.3    82  VAL82       0.0019
      7  CG2       72.3390   25.2380   44.8370 C.3    82  VAL82       0.0019
      8  N         69.5510   24.7310   49.7940 N.3    85  LEU85      -0.1245
      9  CA        69.3330   23.3450   49.3580 C.3    85  LEU85       0.1561
     10  C         70.1960   22.3330   50.1360 C.2    85  LEU85       0.2260
     11  O         69.6940   21.3000   50.5820 O.2    85  LEU85      -0.2867
     12  CB        69.5310   23.2230   47.8460 C.3    85  LEU85       0.0270
     13  CG        69.2210   21.8820   47.1800 C.3    85  LEU85       0.0019
     14  CD1       67.7050   21.5760   47.1990 C.3    85  LEU85       0.0001
     15  CD2       69.7690   21.9110   45.7390 C.3    85  LEU85       0.0001
     16  N         74.3290   19.9150   47.8330 N.3   115  TYR115     -0.1241
     17  CA        73.3200   18.8910   47.9830 C.3   115  TYR115      0.1605
     18  C         73.6370   17.8070   46.9750 C.2   115  TYR115      0.2264
     19  O         73.6980   18.0620   45.7720 O.2   115  TYR115     -0.2867
     20  CB        71.9510   19.5150   47.7260 C.3   115  TYR115      0.0534
     21  CG        70.7630   18.5960   47.8950 C.ar  115  TYR115     -0.0201
     22  CD1       70.4280   18.0960   49.1590 C.ar  115  TYR115     -0.0009
     23  CD2       69.9560   18.2480   46.8020 C.ar  115  TYR115     -0.0009
     24  CE1       69.3180   17.2870   49.3360 C.ar  115  TYR115      0.0417
     25  CE2       68.8200   17.4450   46.9770 C.ar  115  TYR115      0.0417
     26  CZ        68.5310   16.9610   48.2570 C.ar  115  TYR115      0.1957
     27  OH        67.4540   16.1330   48.4700 O.3   115  TYR115     -0.2866
     28  N         72.4090   14.4210   45.6480 N.3   117  LEU117     -0.1231
     29  CA        71.3750   13.4130   45.5280 C.3   117  LEU117      0.1693
     30  C         71.5680   12.5990   44.2440 C.2   117  LEU117      0.2593
     31  O         71.5680   11.3700   44.2680 O.2   117  LEU117     -0.2718
     32  CB        69.9910   14.0950   45.5090 C.3   117  LEU117      0.0284
     33  CG        68.7010   13.2540   45.3350 C.3   117  LEU117      0.0019
     34  CD1       68.4190   12.4860   46.6110 C.3   117  LEU117      0.0001
     35  CD2       67.4740   14.1470   45.0320 C.3   117  LEU117      0.0001
     36  N         71.7120   13.3060   43.1300 N.am  118  SER118     -0.1938
     37  CA        71.6030   12.7120   41.7850 C.3   118  SER118      0.2055
     38  C         72.8110   11.8620   41.3750 C.2   118  SER118      0.2643
     39  O         73.9130   12.1200   41.8210 O.2   118  SER118     -0.2714
     40  CB        71.4560   13.8140   40.7600 C.3   118  SER118      0.2130
     41  OG        70.3210   14.6130   41.0340 O.3   118  SER118     -0.2179
     42  N         72.5770   10.9080   40.4700 N.am  119  GLU119     -0.1963
     43  CA        73.6290   10.0800   39.8940 C.3   119  GLU119      0.1733
     44  C         73.2870    9.9180   38.4110 C.2   119  GLU119      0.2616
     45  O         72.1700   10.2820   37.9790 O.2   119  GLU119     -0.2715
     46  CB        73.6700    8.7140   40.5870 C.3   119  GLU119      0.0429
     47  CG        73.8050    8.8350   42.1160 C.3   119  GLU119      0.1163
     48  CD        73.8920    7.5240   42.8010 C.2   119  GLU119      0.3649
     49  OE1       73.7530    6.4790   42.1280 O.co2 119  GLU119     -0.2457
     50  OE2       74.0820    7.5260   44.0240 O.co2 119  GLU119     -0.2457
     51  N         74.2250    9.3800   37.6300 N.am  120  ARG120     -0.1977
     52  CA        73.9760    9.2110   36.1900 C.3   120  ARG120      0.1597
     53  C         72.7400    8.3850   35.8940 C.2   120  ARG120      0.2287
     54  O         72.0270    8.6720   34.9610 O.2   120  ARG120     -0.2864
     55  CB        75.2080    8.6290   35.4560 C.3   120  ARG120      0.0334
     56  CG        76.4140    9.5890   35.4810 C.3   120  ARG120      0.0492
     57  CD        76.2800   10.8040   34.5220 C.3   120  ARG120      0.2205
     58  NE        77.4580   11.6470   34.6840 N.pl3 120  ARG120     -0.0865
     59  CZ        77.5530   12.9490   34.4240 C.cat 120  ARG120      0.5346
     60  NH1       76.5200   13.6540   33.9580 N.pl3 120  ARG120      0.1354
     61  NH2       78.7210   13.5490   34.6530 N.pl3 120  ARG120      0.1354
     62  N         68.2580   10.2610   38.2630 N.3   123  GLY123     -0.1210
     63  CA        67.9560   11.6790   38.1200 C.3   123  GLY123      0.1956
     64  C         66.5690   11.9610   38.6350 C.2   123  GLY123      0.2613
     65  O         66.3800   12.1470   39.8460 O.2   123  GLY123     -0.2717
     66  N         65.5840   11.9520   37.7380 N.am  124  SER124     -0.1938
     67  CA        64.1840   12.0440   38.1720 C.3   124  SER124      0.2055
     68  C         63.8440   10.8950   39.1330 C.2   124  SER124      0.2643
     69  O         63.1900   11.1080   40.1420 O.2   124  SER124     -0.2714
     70  CB        63.2100   12.0410   36.9860 C.3   124  SER124      0.2130
     71  OG        63.3560   13.2130   36.2220 O.3   124  SER124     -0.2179
     72  N         64.2940    9.6860   38.7980 N.am  125  ASP125     -0.1971
     73  CA        64.0740    8.5030   39.6140 C.3   125  ASP125      0.1709
     74  C         65.2130    8.4080   40.6270 C.2   125  ASP125      0.2293
     75  O         66.0230    7.4920   40.5790 O.2   125  ASP125     -0.2864
     76  CB        64.0010    7.2710   38.6920 C.3   125  ASP125      0.1436
     77  CG        63.7480    5.9500   39.4440 C.2   125  ASP125      0.3671
     78  OD1       63.4100    5.9570   40.6580 O.co2 125  ASP125     -0.2456
     79  OD2       63.8970    4.8890   38.7880 O.co2 125  ASP125     -0.2456
     80  N         76.0050   16.1050   38.7340 N.3   148  TRP148     -0.1227
     81  CA        75.2120   17.3000   38.6520 C.3   148  TRP148      0.1737
     82  C         75.3310   18.2050   39.8850 C.2   148  TRP148      0.2595
     83  O         74.4450   19.0350   40.1150 O.2   148  TRP148     -0.2718
     84  CB        73.7320   16.9340   38.4380 C.3   148  TRP148      0.0564
     85  CG        73.4530   16.0880   37.1950 C.ar  148  TRP148      0.0003
     86  CD1       72.8070   14.8830   37.1550 C.ar  148  TRP148      0.0946
     87  CD2       73.8030   16.3940   35.8410 C.ar  148  TRP148      0.0152
     88  NE1       72.7130   14.4260   35.8540 N.ar  148  TRP148     -0.2442
     89  CE2       73.3180   15.3370   35.0300 C.ar  148  TRP148      0.0810
     90  CE3       74.4550   17.4680   35.2270 C.ar  148  TRP148      0.0012
     91  CZ2       73.4690   15.3260   33.6370 C.ar  148  TRP148      0.0191
     92  CZ3       74.6140   17.4400   33.8330 C.ar  148  TRP148      0.0001
     93  CH2       74.1280   16.3890   33.0660 C.ar  148  TRP148      0.0015
     94  N         76.4300   18.0900   40.6440 N.am  149  ILE149     -0.1966
     95  CA        76.5310   18.7590   41.9430 C.3   149  ILE149      0.1727
     96  C         76.9720   20.2260   41.8540 C.2   149  ILE149      0.2616
     97  O         78.1340   20.5520   41.5690 O.2   149  ILE149     -0.2715
     98  CB        77.3650   17.9210   42.9800 C.3   149  ILE149      0.0290
     99  CG1       76.8250   16.4730   43.0910 C.3   149  ILE149      0.0022
    100  CG2       77.4020   18.5990   44.3540 C.3   149  ILE149      0.0023
    101  CD1       75.2540   16.3530   43.2490 C.3   149  ILE149      0.0001
    102  N         76.0050   21.1130   42.0730 N.am  150  THR150     -0.1951
    103  CA        76.2330   22.5470   42.0400 C.3   150  THR150      0.1897
    104  C         77.1520   22.9670   43.2070 C.2   150  THR150      0.2313
    105  O         76.9100   22.5790   44.3700 O.2   150  THR150     -0.2863
    106  CB        74.8930   23.2970   42.1550 C.3   150  THR150      0.1794
    107  OG1       74.0650   22.9620   41.0400 O.3   150  THR150     -0.2208
    108  CG2       75.1030   24.8490   42.1650 C.3   150  THR150      0.0378
    109  N         78.3190   23.6250   29.9620 N.3   193  LYS193     -0.1245
    110  CA        76.8720   23.8140   30.0310 C.3   193  LYS193      0.1561
    111  C         76.3230   24.9120   29.1290 C.2   193  LYS193      0.2260
    112  O         77.0530   25.7910   28.7110 O.2   193  LYS193     -0.2867
    113  CB        76.4570   24.1210   31.4680 C.3   193  LYS193      0.0271
    114  CG        76.9520   23.1370   32.5250 C.3   193  LYS193      0.0035
    115  CD        76.1520   23.2500   33.8240 C.3   193  LYS193      0.0206
    116  CE        76.3810   24.5710   34.5760 C.3   193  LYS193      0.1093
    117  NZ        77.8420   24.7430   34.8480 N.3   193  LYS193     -0.1314
    118  N         74.2720   29.0280   33.2850 N.3   196  ILE196     -0.1245
    119  CA        74.9710   29.1030   34.5700 C.3   196  ILE196      0.1561
    120  C         76.4070   28.5550   34.4660 C.2   196  ILE196      0.2260
    121  O         76.8360   27.7270   35.2570 O.2   196  ILE196     -0.2867
    122  CB        74.1590   28.4790   35.7380 C.3   196  ILE196      0.0252
    123  CG1       73.7080   27.0420   35.3910 C.3   196  ILE196      0.0019
    124  CG2       72.9290   29.4040   36.0810 C.3   196  ILE196      0.0019
    125  CD1       73.2750   26.2020   36.6030 C.3   196  ILE196      0.0001
    126  N         79.6620   22.5290   38.4190 N.3   201  THR201     -0.1218
    127  CA        78.6680   21.4600   38.3830 C.3   201  THR201      0.1862
    128  C         79.4630   20.1630   38.2110 C.2   201  THR201      0.2287
    129  O         79.9000   19.8720   37.1190 O.2   201  THR201     -0.2866
    130  CB        77.6680   21.6480   37.2300 C.3   201  THR201      0.1770
    131  OG1       77.1740   22.9970   37.2210 O.3   201  THR201     -0.2211
    132  CG2       76.4680   20.7020   37.3780 C.3   201  THR201      0.0375
    133  N         67.8150   26.3640   32.6870 N.3   348  ILE348     -0.1245
    134  CA        68.0820   25.4230   33.8040 C.3   348  ILE348      0.1561
    135  C         66.9140   25.3930   34.8190 C.2   348  ILE348      0.2260
    136  O         66.6690   24.3680   35.4590 O.2   348  ILE348     -0.2867
    137  CB        69.4560   25.6690   34.5500 C.3   348  ILE348      0.0252
    138  CG1       69.8410   24.4410   35.4100 C.3   348  ILE348      0.0019
    139  CG2       69.3650   26.9050   35.4730 C.3   348  ILE348      0.0019
    140  CD1       69.9310   23.1020   34.5680 C.3   348  ILE348      0.0001
    141  N         64.5220   22.6140   34.7120 N.3   351  ILE351     -0.1231
    142  CA        65.1490   21.3000   34.7690 C.3   351  ILE351      0.1692
    143  C         65.5360   20.8740   36.1880 C.2   351  ILE351      0.2592
    144  O         65.1000   19.8100   36.6310 O.2   351  ILE351     -0.2718
    145  CB        66.3950   21.2020   33.8180 C.3   351  ILE351      0.0266
    146  CG1       65.9620   21.3370   32.3500 C.3   351  ILE351      0.0019
    147  CG2       67.1700   19.8520   34.0270 C.3   351  ILE351      0.0020
    148  CD1       67.1120   21.3940   31.3940 C.3   351  ILE351      0.0001
    149  N         66.3620   21.6760   36.8850 N.am  352  TYR352     -0.1962
    150  CA        66.7950   21.2790   38.2190 C.3   352  TYR352      0.1771
    151  C         65.7810   21.4980   39.3160 C.2   352  TYR352      0.2619
    152  O         64.7980   22.2130   39.1240 O.2   352  TYR352     -0.2715
    153  CB        68.2130   21.7630   38.6180 C.3   352  TYR352      0.0574
    154  CG        68.5150   23.2600   38.7470 C.ar  352  TYR352     -0.0198
    155  CD1       69.8510   23.6910   38.9260 C.ar  352  TYR352     -0.0009
    156  CD2       67.5030   24.2340   38.7250 C.ar  352  TYR352     -0.0009
    157  CE1       70.1810   25.0680   39.0490 C.ar  352  TYR352      0.0417
    158  CE2       67.8300   25.6250   38.8500 C.ar  352  TYR352      0.0417
    159  CZ        69.1630   26.0170   39.0010 C.ar  352  TYR352      0.1957
    160  OH        69.4800   27.3480   39.1400 O.3   352  TYR352     -0.2866
    161  N         66.0770   20.8920   40.4700 N.am  353  GLU353     -0.1963
    162  CA        65.1630   20.7350   41.5770 C.3   353  GLU353      0.1733
    163  C         63.8010   20.1030   41.1560 C.2   353  GLU353      0.2617
    164  O         62.7400   20.4520   41.7110 O.2   353  GLU353     -0.2715
    165  CB        65.0160   22.0570   42.3770 C.3   353  GLU353      0.0429
    166  CG        66.2770   22.3850   43.1300 C.3   353  GLU353      0.1163
    167  CD        66.1050   23.4020   44.2500 C.2   353  GLU353      0.3649
    168  OE1       65.0320   23.4610   44.8840 O.co2 353  GLU353     -0.2457
    169  OE2       67.0810   24.1230   44.5130 O.co2 353  GLU353     -0.2457
    170  N         63.8750   19.1480   40.2260 N.am  354  GLY354     -0.1940
    171  CA        62.7270   18.4150   39.7020 C.3   354  GLY354      0.2014
    172  C         62.3570   19.0720   38.3730 C.2   354  GLY354      0.2639
    173  O         62.0350   20.2640   38.3330 O.2   354  GLY354     -0.2714
    174  N         62.3960   18.3230   37.2800 N.am  355  THR355     -0.1950
    175  CA        62.0010   18.8890   35.9960 C.3   355  THR355      0.1897
    176  C         60.5520   19.2990   36.0690 C.2   355  THR355      0.2313
    177  O         59.7940   18.8140   36.9310 O.2   355  THR355     -0.2863
    178  CB        62.0940   17.8600   34.8600 C.3   355  THR355      0.1794
    179  OG1       61.1530   16.8030   35.1220 O.3   355  THR355     -0.2208
    180  CG2       63.5690   17.3140   34.7080 C.3   355  THR355      0.0378
    181  N         58.2170   18.4790   34.1350 N.3   357  GLN357     -0.1231
    182  CA        57.3320   17.3230   33.9050 C.3   357  GLN357      0.1698
    183  C         57.0570   16.6540   35.2540 C.2   357  GLN357      0.2592
    184  O         55.9190   16.3070   35.5580 O.2   357  GLN357     -0.2718
    185  CB        57.9330   16.2990   32.9090 C.3   357  GLN357      0.0381
    186  CG        58.0340   16.8160   31.4540 C.3   357  GLN357      0.0905
    187  CD        58.9490   18.0270   31.3430 C.2   357  GLN357      0.2608
    188  OE1       60.1270   17.9780   31.7760 O.2   357  GLN357     -0.2717
    189  NE2       58.4100   19.1480   30.7800 N.am  357  GLN357     -0.0878
    190  N         58.1040   16.4880   36.0630 N.am  358  ILE358     -0.1980
    191  CA        57.9450   15.9520   37.4280 C.3   358  ILE358      0.1595
    192  C         57.0800   16.8920   38.3040 C.2   358  ILE358      0.2287
    193  O         56.2560   16.4310   39.1320 O.2   358  ILE358     -0.2864
    194  CB        59.3270   15.6380   38.0800 C.3   358  ILE358      0.0276
    195  CG1       60.0200   14.4660   37.3550 C.3   358  ILE358      0.0022
    196  CG2       59.2130   15.3130   39.5970 C.3   358  ILE358      0.0022
    197  CD1       59.2030   13.1910   37.2220 C.3   358  ILE358      0.0001
    198  N         53.6230   16.0550   37.5350 N.3   361  VAL361     -0.1245
    199  CA        53.2820   14.7760   38.1950 C.3   361  VAL361      0.1561
    200  C         52.8320   15.0520   39.6300 C.2   361  VAL361      0.2260
    201  O         51.7790   14.5920   40.0540 O.2   361  VAL361     -0.2867
    202  CB        54.4780   13.7850   38.2230 C.3   361  VAL361      0.0252
    203  CG1       54.2120   12.6130   39.2170 C.3   361  VAL361      0.0019
    204  CG2       54.7950   13.2650   36.8300 C.3   361  VAL361      0.0019
@<TRIPOS>BOND
     1   112   111    2
     2   111   110    1
     3   109   110    1
     4   110   113    1
     5   189   187   am
     6   187   186    1
     7   187   188    2
     8   148   146    1
     9   186   185    1
    10   113   114    1
    11   146   145    1
    12   114   115    1
    13   133   134    1
    14   185   182    1
    15    93    91   ar
    16    93    92   ar
    17   118   119    1
    18    91    89   ar
    19   134   137    1
    20   134   135    1
    21   145   147    1
    22   145   142    1
    23   115   116    1
    24    92    90   ar
    25   182   181    1
    26   182   183    1
    27    60    59    1
    28    59    61    1
    29    59    58    2
    30   120   119    1
    31   120   121    2
    32    57    58    1
    33    57    56    1
    34   137   138    1
    35   137   139    1
    36   140   138    1
    37   119   122    1
    38   116   117    1
    39   180   178    1
    40   141   142    1
    41   142   143    1
    42   135   136    2
    43   178   179    1
    44   178   175    1
    45    54    53    2
    46    89    87   ar
    47    89    88   ar
    48    90    87   ar
    49   183   184    2
    50   183   190   am
    51   123   122    1
    52   123   125    1
    53    55    56    1
    54    55    52    1
    55   122   124    1
    56    87    85   ar
    57    88    86   ar
    58    53    52    1
    59   175   176    1
    60   175   174    1
    61   190   191    1
    62   176   177    2
    63   143   144    2
    64   143   149   am
    65    52    51    1
    66    71    70    1
    67   204   202    1
    68   149   150    1
    69    70    67    1
    70   129   128    2
    71    86    85   ar
    72    85    84    1
    73   131   130    1
    74   197   195    1
    75   130   132    1
    76   130   127    1
    77   174   172   am
    78   195   194    1
    79   191   194    1
    80   191   192    1
    81   198   199    1
    82    51    44   am
    83    66    67    1
    84    66    64   am
    85    45    44    2
    86   194   196    1
    87    63    62    1
    88    63    64    1
    89    67    68    1
    90   199   202    1
    91   199   200    1
    92   128   127    1
    93   150   153    1
    94   150   151    1
    95   202   203    1
    96   192   193    2
    97   173   172    2
    98   172   171    1
    99   127   126    1
   100    44    43    1
   101    84    81    1
   102   153   154    1
   103    64    65    2
   104    81    80    1
   105    81    82    1
   106    76    77    1
   107    76    73    1
   108   156   154   ar
   109   156   158   ar
   110   154   155   ar
   111    79    77   ar
   112    72    68   am
   113    72    73    1
   114   158   159   ar
   115   155   157   ar
   116   159   157   ar
   117   159   160    1
   118   152   151    2
   119    68    69    2
   120   151   161   am
   121    77    78   ar
   122    73    74    1
   123   200   201    2
   124   171   170    1
   125    82    83    2
   126    82    94   am
   127    43    42    1
   128    43    46    1
   129   170   163   am
   130   161   162    1
   131    42    38   am
   132    75    74    2
   133    46    47    1
   134    94    95    1
   135    40    41    1
   136    40    37    1
   137   107   106    1
   138   163   162    1
   139   163   164    2
   140    38    37    1
   141    38    39    2
   142    97    96    2
   143   162   165    1
   144    37    36    1
   145    96    95    1
   146    96   102   am
   147    95    98    1
   148   103   102    1
   149   103   106    1
   150   103   104    1
   151    47    48    1
   152    49    48   ar
   153   106   108    1
   154   165   166    1
   155    48    50   ar
   156    98    99    1
   157    98   100    1
   158    99   101    1
   159   166   167    1
   160    36    30   am
   161   104   105    2
   162    30    31    2
   163    30    29    1
   164   167   169   ar
   165   167   168   ar
   166     7     5    1
   167    35    33    1
   168    33    32    1
   169    33    34    1
   170    32    29    1
   171    29    28    1
   172    15    13    1
   173    19    18    2
   174     5     6    1
   175     5     2    1
   176    23    25   ar
   177    23    21   ar
   178     1     2    1
   179    18    17    1
   180    25    26   ar
   181    13    14    1
   182    13    12    1
   183     2     3    1
   184    20    21    1
   185    20    17    1
   186    16    17    1
   187    12     9    1
   188    21    22   ar
   189    26    27    1
   190    26    24   ar
   191     3     4    2
   192    22    24   ar
   193     9     8    1
   194     9    10    1
   195    10    11    2
