@<TRIPOS>MOLECULE
tmp/3pfdD00.pdb
 147 143 0 0 0
SMALL
GASTEIGER

@<TRIPOS>ATOM
      1  N         66.3420   49.3100   26.8310 N.3   256  TYR256     -0.1241
      2  CA        66.8800   49.2240   25.4550 C.3   256  TYR256      0.1605
      3  C         65.8660   49.6930   24.4110 C.2   256  TYR256      0.2264
      4  O         66.1990   50.5020   23.5640 O.2   256  TYR256     -0.2867
      5  CB        67.4020   47.8130   25.0910 C.3   256  TYR256      0.0534
      6  CG        68.0310   47.7640   23.7210 C.ar  256  TYR256     -0.0201
      7  CD1       69.3710   48.1210   23.5390 C.ar  256  TYR256     -0.0009
      8  CD2       67.2820   47.4060   22.5870 C.ar  256  TYR256     -0.0009
      9  CE1       69.9560   48.0980   22.2790 C.ar  256  TYR256      0.0417
     10  CE2       67.8650   47.3870   21.3100 C.ar  256  TYR256      0.0417
     11  CZ        69.2060   47.7350   21.1760 C.ar  256  TYR256      0.1957
     12  OH        69.7860   47.7350   19.9260 O.3   256  TYR256     -0.2866
     13  N         66.6340   52.5390   21.5130 N.3   260  ARG260     -0.1245
     14  CA        66.8640   52.1120   20.1360 C.3   260  ARG260      0.1563
     15  C         65.7680   52.6900   19.2320 C.2   260  ARG260      0.2260
     16  O         64.5750   52.4450   19.4430 O.2   260  ARG260     -0.2867
     17  CB        66.8620   50.5720   20.0550 C.3   260  ARG260      0.0307
     18  CG        66.8600   49.9940   18.6510 C.3   260  ARG260      0.0489
     19  CD        68.0540   50.5110   17.8090 C.3   260  ARG260      0.2205
     20  NE        68.2840   49.7190   16.6020 N.pl3 260  ARG260     -0.0865
     21  CZ        69.3710   49.8340   15.8300 C.cat 260  ARG260      0.5346
     22  NH1       70.2980   50.7600   16.1000 N.pl3 260  ARG260      0.1354
     23  NH2       69.5150   49.0410   14.7740 N.pl3 260  ARG260      0.1354
     24  N         64.2820   53.1680   15.4090 N.3   262  GLN262     -0.1231
     25  CA        64.2050   52.7320   14.0120 C.3   262  GLN262      0.1698
     26  C         62.9230   53.3280   13.4450 C.2   262  GLN262      0.2592
     27  O         61.9270   53.4630   14.1830 O.2   262  GLN262     -0.2718
     28  CB        64.1450   51.2030   13.9250 C.3   262  GLN262      0.0381
     29  CG        65.4570   50.4520   14.1900 C.3   262  GLN262      0.0905
     30  CD        66.4730   50.6630   13.0950 C.2   262  GLN262      0.2608
     31  OE1       66.5460   49.8780   12.1450 O.2   262  GLN262     -0.2717
     32  NE2       67.2590   51.7420   13.2080 N.am  262  GLN262     -0.0878
     33  N         62.9300   53.6750   12.1470 N.am  263  PHE263     -0.1976
     34  CA        61.7910   54.3600   11.4840 C.3   263  PHE263      0.1639
     35  C         61.4510   55.7190   12.1000 C.2   263  PHE263      0.2290
     36  O         60.3270   56.1820   11.9850 O.2   263  PHE263     -0.2864
     37  CB        60.5260   53.4560   11.4150 C.3   263  PHE263      0.0560
     38  CG        60.7940   52.0710   10.8550 C.ar  263  PHE263     -0.0200
     39  CD1       60.9190   51.8720    9.4660 C.ar  263  PHE263     -0.0042
     40  CD2       60.9350   50.9790   11.7120 C.ar  263  PHE263     -0.0042
     41  CE1       61.1660   50.5930    8.9380 C.ar  263  PHE263     -0.0003
     42  CE2       61.1770   49.6950   11.2170 C.ar  263  PHE263     -0.0003
     43  CZ        61.2880   49.4950    9.8190 C.ar  263  PHE263     -0.0000
     44  N         61.4790   56.5300   15.3800 N.3   265  ARG265     -0.1245
     45  CA        60.8490   56.4550   16.7100 C.3   265  ARG265      0.1563
     46  C         61.4830   55.3250   17.5240 C.2   265  ARG265      0.2260
     47  O         62.0160   54.4030   16.9320 O.2   265  ARG265     -0.2867
     48  CB        59.3140   56.2500   16.5680 C.3   265  ARG265      0.0307
     49  CG        58.9130   55.0120   15.7760 C.3   265  ARG265      0.0489
     50  CD        57.3660   54.7990   15.5740 C.3   265  ARG265      0.2205
     51  NE        57.1850   53.4640   14.9890 N.pl3 265  ARG265     -0.0865
     52  CZ        57.2060   53.1900   13.6830 C.cat 265  ARG265      0.5346
     53  NH1       57.3210   54.1570   12.7770 N.pl3 265  ARG265      0.1354
     54  NH2       57.0950   51.9410   13.2750 N.pl3 265  ARG265      0.1354
     55  N         61.8240   51.8500   19.1320 N.3   267  VAL267     -0.1245
     56  CA        61.1370   50.5920   18.8010 C.3   267  VAL267      0.1561
     57  C         60.0530   50.2020   19.8190 C.2   267  VAL267      0.2260
     58  O         59.1200   49.4890   19.4750 O.2   267  VAL267     -0.2867
     59  CB        62.0870   49.4130   18.5000 C.3   267  VAL267      0.0252
     60  CG1       63.0230   49.7880   17.3800 C.3   267  VAL267      0.0019
     61  CG2       62.8220   48.9570   19.7510 C.3   267  VAL267      0.0019
     62  N         56.1190   50.8270   19.0850 N.3   270  ASN270     -0.1240
     63  CA        55.2830   49.9980   18.2330 C.3   270  ASN270      0.1653
     64  C         54.4360   49.1520   19.1490 C.2   270  ASN270      0.2266
     65  O         54.9550   48.5540   20.1010 O.2   270  ASN270     -0.2867
     66  CB        56.1510   49.0960   17.3750 C.3   270  ASN270      0.1155
     67  CG        57.1070   49.8860   16.4940 C.2   270  ASN270      0.2627
     68  OD1       56.6710   50.5470   15.5810 O.2   270  ASN270     -0.2716
     69  ND2       58.4150   49.7950   16.7610 N.am  270  ASN270     -0.0877
     70  N         53.1000   46.2240   18.9030 N.3   272  GLY272     -0.1210
     71  CA        53.4540   44.7860   19.0060 C.3   272  GLY272      0.1956
     72  C         54.5080   44.5860   20.0940 C.2   272  GLY272      0.2611
     73  O         54.4360   43.6400   20.8640 O.2   272  GLY272     -0.2717
     74  N         55.4650   45.5130   20.1500 N.am  273  VAL273     -0.1979
     75  CA        56.4950   45.5640   21.1930 C.3   273  VAL273      0.1595
     76  C         55.8910   45.8990   22.5670 C.2   273  VAL273      0.2287
     77  O         56.1810   45.2180   23.5630 O.2   273  VAL273     -0.2864
     78  CB        57.6530   46.5700   20.7600 C.3   273  VAL273      0.0276
     79  CG1       58.6590   46.8330   21.8790 C.3   273  VAL273      0.0022
     80  CG2       58.3600   46.0270   19.5050 C.3   273  VAL273      0.0022
     81  N         64.7600   38.6820   21.5640 N.3   326  GLN326     -0.1231
     82  CA        64.0470   39.1640   20.3700 C.3   326  GLN326      0.1698
     83  C         63.9380   40.6840   20.2990 C.2   326  GLN326      0.2592
     84  O         64.1490   41.2930   19.2400 O.2   326  GLN326     -0.2718
     85  CB        62.6250   38.5980   20.3090 C.3   326  GLN326      0.0381
     86  CG        61.9160   38.8940   19.0030 C.3   326  GLN326      0.0905
     87  CD        62.4820   38.0700   17.8660 C.2   326  GLN326      0.2608
     88  OE1       63.1730   37.0700   18.0900 O.2   326  GLN326     -0.2717
     89  NE2       62.2030   38.4880   16.6380 N.am  326  GLN326     -0.0878
     90  N         63.5740   41.2810   21.4260 N.am  327  LEU327     -0.1966
     91  CA        63.3550   42.7110   21.5000 C.3   327  LEU327      0.1728
     92  C         64.6320   43.5440   21.3020 C.2   327  LEU327      0.2616
     93  O         64.5440   44.7130   20.9640 O.2   327  LEU327     -0.2715
     94  CB        62.6810   43.0530   22.8060 C.3   327  LEU327      0.0311
     95  CG        61.1910   42.6630   22.8390 C.3   327  LEU327      0.0022
     96  CD1       60.5540   43.0410   24.1820 C.3   327  LEU327      0.0001
     97  CD2       60.3990   43.2240   21.6660 C.3   327  LEU327      0.0001
     98  N         65.8010   42.9450   21.5170 N.am  328  PHE328     -0.1960
     99  CA        67.0850   43.6150   21.2360 C.3   328  PHE328      0.1771
    100  C         67.4700   43.5000   19.7470 C.2   328  PHE328      0.2620
    101  O         68.4340   44.1320   19.3030 O.2   328  PHE328     -0.2715
    102  CB        68.2020   43.0200   22.1120 C.3   328  PHE328      0.0574
    103  CG        68.3210   43.6480   23.5100 C.ar  328  PHE328     -0.0200
    104  CD1       67.3380   43.4480   24.4840 C.ar  328  PHE328     -0.0042
    105  CD2       69.4380   44.4100   23.8420 C.ar  328  PHE328     -0.0042
    106  CE1       67.4570   44.0330   25.7640 C.ar  328  PHE328     -0.0003
    107  CE2       69.5780   44.9800   25.1200 C.ar  328  PHE328     -0.0003
    108  CZ        68.6010   44.8060   26.0740 C.ar  328  PHE328     -0.0000
    109  N         66.7370   42.6820   18.9840 N.am  329  GLY329     -0.1940
    110  CA        67.1140   42.3430   17.6100 C.3   329  GLY329      0.2014
    111  C         68.4960   41.6640   17.5600 C.2   329  GLY329      0.2639
    112  O         68.8400   40.8420   18.4220 O.2   329  GLY329     -0.2714
    113  N         69.2780   42.0420   16.5550 N.am  330  GLY330     -0.1939
    114  CA        70.6670   41.5840   16.3920 C.3   330  GLY330      0.2014
    115  C         71.5190   41.6690   17.6410 C.2   330  GLY330      0.2638
    116  O         72.1400   40.6840   18.0350 O.2   330  GLY330     -0.2714
    117  N         71.5310   42.8450   18.2710 N.am  331  TYR331     -0.1973
    118  CA        72.2900   43.0670   19.4970 C.3   331  TYR331      0.1639
    119  C         71.9370   42.0640   20.6240 C.2   331  TYR331      0.2290
    120  O         72.8000   41.6420   21.3900 O.2   331  TYR331     -0.2864
    121  CB        72.1580   44.5290   19.9360 C.3   331  TYR331      0.0560
    122  CG        72.8090   45.4980   18.9670 C.ar  331  TYR331     -0.0198
    123  CD1       74.1860   45.6070   18.9030 C.ar  331  TYR331     -0.0009
    124  CD2       72.0550   46.2750   18.0980 C.ar  331  TYR331     -0.0009
    125  CE1       74.7960   46.4500   17.9830 C.ar  331  TYR331      0.0417
    126  CE2       72.6290   47.1300   17.1950 C.ar  331  TYR331      0.0417
    127  CZ        74.0170   47.2020   17.1250 C.ar  331  TYR331      0.1957
    128  OH        74.6560   48.0210   16.2110 O.3   331  TYR331     -0.2866
    129  N         71.2440   38.9230   20.2070 N.3   333  TYR333     -0.1227
    130  CA        71.9700   37.6940   19.8450 C.3   333  TYR333      0.1736
    131  C         73.4930   37.7520   20.1410 C.2   333  TYR333      0.2596
    132  O         74.2070   36.7790   19.9140 O.2   333  TYR333     -0.2718
    133  CB        71.7240   37.3420   18.3690 C.3   333  TYR333      0.0548
    134  CG        71.8350   35.8660   18.0420 C.ar  333  TYR333     -0.0200
    135  CD1       70.8600   34.9550   18.4760 C.ar  333  TYR333     -0.0009
    136  CD2       72.8840   35.3860   17.2530 C.ar  333  TYR333     -0.0009
    137  CE1       70.9600   33.6240   18.1730 C.ar  333  TYR333      0.0417
    138  CE2       72.9900   34.0350   16.9430 C.ar  333  TYR333      0.0417
    139  CZ        72.0200   33.1670   17.4140 C.ar  333  TYR333      0.1957
    140  OH        72.0970   31.8330   17.1430 O.3   333  TYR333     -0.2866
    141  N         73.9790   38.8800   20.6600 N.am  334  THR334     -0.1953
    142  CA        75.4100   39.0290   20.9220 C.3   334  THR334      0.1897
    143  C         75.7260   39.0060   22.4070 C.2   334  THR334      0.2313
    144  O         74.8730   39.3350   23.2140 O.2   334  THR334     -0.2863
    145  CB        76.0060   40.3340   20.3240 C.3   334  THR334      0.1794
    146  OG1       75.5380   41.4760   21.0600 O.3   334  THR334     -0.2208
    147  CG2       75.6530   40.4680   18.8630 C.3   334  THR334      0.0378
@<TRIPOS>BOND
     1    41    39   ar
     2    41    43   ar
     3    39    38   ar
     4    43    42   ar
     5    38    37    1
     6    38    40   ar
     7    42    40   ar
     8    37    34    1
     9    34    35    1
    10    34    33    1
    11    36    35    2
    12    31    30    2
    13    33    26   am
    14    53    52    1
    15    30    32   am
    16    30    29    1
    17    54    52    1
    18    26    25    1
    19    26    27    2
    20    52    51    2
    21    28    25    1
    22    28    29    1
    23    25    24    1
    24    23    21    1
    25    51    50    1
    26    44    45    1
    27    50    49    1
    28    68    67    2
    29    49    48    1
    30    21    22    1
    31    21    20    2
    32   128   127    1
    33   114   113    1
    34   114   115    1
    35    67    69   am
    36    67    66    1
    37   113   111   am
    38    48    45    1
    39    20    19    1
    40    89    87   am
    41    45    46    1
    42    47    46    2
    43   138   136   ar
    44   138   139   ar
    45   127   126   ar
    46   127   125   ar
    47   140   139    1
    48   126   124   ar
    49   136   134   ar
    50    66    63    1
    51    60    59    1
    52   139   137   ar
    53   111   110    1
    54   111   112    2
    55   110   109    1
    56   115   116    2
    57   115   117   am
    58    19    18    1
    59    87    88    2
    60    87    86    1
    61   125   123   ar
    62   134   133    1
    63   134   135   ar
    64   124   122   ar
    65   137   135   ar
    66    63    62    1
    67    63    64    1
    68   117   118    1
    69   133   130    1
    70    59    56    1
    71    59    61    1
    72    18    17    1
    73    56    55    1
    74    56    57    1
    75   147   145    1
    76    70    71    1
    77   123   122   ar
    78   122   121    1
    79   109   100   am
    80    86    85    1
    81    71    72    1
    82    64    65    2
    83    15    16    2
    84    15    14    1
    85    84    83    2
    86   101   100    2
    87    58    57    2
    88   118   121    1
    89   118   119    1
    90    80    78    1
    91   100    99    1
    92   130   131    1
    93   130   129    1
    94   132   131    2
    95    12    11    1
    96    17    14    1
    97    72    74   am
    98    72    73    2
    99    14    13    1
   100   131   141   am
   101    74    75    1
   102    83    82    1
   103    83    90   am
   104    85    82    1
   105   145   142    1
   106   145   146    1
   107    82    81    1
   108   119   120    2
   109   141   142    1
   110    78    75    1
   111    78    79    1
   112   142   143    1
   113    93    92    2
   114    11    10   ar
   115    11     9   ar
   116    75    76    1
   117    99    98    1
   118    99   102    1
   119    92    91    1
   120    92    98   am
   121    10     8   ar
   122    90    91    1
   123    91    94    1
   124    97    95    1
   125   102   103    1
   126     9     7   ar
   127   143   144    2
   128    76    77    2
   129     8     6   ar
   130    94    95    1
   131    95    96    1
   132   103   105   ar
   133   103   104   ar
   134     7     6   ar
   135     4     3    2
   136     6     5    1
   137   105   107   ar
   138     3     2    1
   139   104   106   ar
   140     5     2    1
   141   107   108   ar
   142     2     1    1
   143   106   108   ar
