@<TRIPOS>MOLECULE
tmp/3pfeA00.pdb
 74 68 0 0 0
SMALL
GASTEIGER

@<TRIPOS>ATOM
      1  N         38.5950   27.7330   58.3420 N.3   260  GLU260     -0.1245
      2  CA        37.4000   27.7860   57.5230 C.3   260  GLU260      0.1567
      3  C         37.3950   26.6910   56.4650 C.2   260  GLU260      0.2260
      4  O         36.3340   26.2360   56.0770 O.2   260  GLU260     -0.2867
      5  CB        37.2460   29.1680   56.8730 C.3   260  GLU260      0.0388
      6  CG        35.7480   29.5170   56.4850 C.3   260  GLU260      0.1160
      7  CD        34.6510   29.2860   57.5840 C.2   260  GLU260      0.3649
      8  OE1       34.8620   29.4830   58.8330 O.co2 260  GLU260     -0.2457
      9  OE2       33.5220   28.9110   57.1600 O.co2 260  GLU260     -0.2457
     10  N         34.5530   23.9280   55.8770 N.3   264  GLN264     -0.1245
     11  CA        34.0000   23.6940   54.5540 C.3   264  GLN264      0.1566
     12  C         34.1050   22.2210   54.1780 C.2   264  GLN264      0.2260
     13  O         33.1760   21.6740   53.5810 O.2   264  GLN264     -0.2867
     14  CB        34.6880   24.5840   53.5070 C.3   264  GLN264      0.0367
     15  CG        34.2000   26.0450   53.6250 C.3   264  GLN264      0.0905
     16  CD        34.9760   27.0020   52.7860 C.2   264  GLN264      0.2608
     17  OE1       36.1710   26.7900   52.5060 O.2   264  GLN264     -0.2717
     18  NE2       34.3110   28.0970   52.3840 N.am  264  GLN264     -0.0878
     19  N         31.2980   20.2910   55.7110 N.3   267  GLN267     -0.1231
     20  CA        30.0520   20.5630   55.0190 C.3   267  GLN267      0.1698
     21  C         30.0390   19.7990   53.6970 C.2   267  GLN267      0.2592
     22  O         29.0090   19.2360   53.3280 O.2   267  GLN267     -0.2718
     23  CB        29.8940   22.0680   54.8350 C.3   267  GLN267      0.0381
     24  CG        29.7630   22.7970   56.1730 C.3   267  GLN267      0.0905
     25  CD        29.8530   24.3310   56.1180 C.2   267  GLN267      0.2608
     26  OE1       30.4640   24.9190   55.2260 O.2   267  GLN267     -0.2717
     27  NE2       29.2800   24.9730   57.1290 N.am  267  GLN267     -0.0878
     28  N         31.1610   19.7760   52.9870 N.am  268  CYS268     -0.1970
     29  CA        31.1770   19.0680   51.7100 C.3   268  CYS268      0.1712
     30  C         31.0470   17.5710   51.9060 C.2   268  CYS268      0.2296
     31  O         30.4560   16.8830   51.0870 O.2   268  CYS268     -0.2864
     32  CB        32.4170   19.3830   50.9070 C.3   268  CYS268      0.0983
     33  SG        32.2950   20.9840   50.2310 S.3   268  CYS268     -0.0798
     34  N         36.3060   35.9050   50.8410 N.3   377  LEU377     -0.1245
     35  CA        35.2250   35.9870   49.8430 C.3   377  LEU377      0.1561
     36  C         34.4200   37.2680   50.0360 C.2   377  LEU377      0.2260
     37  O         33.9080   37.5170   51.1320 O.2   377  LEU377     -0.2867
     38  CB        34.3230   34.7750   49.9700 C.3   377  LEU377      0.0270
     39  CG        33.1320   34.6590   49.0410 C.3   377  LEU377      0.0019
     40  CD1       33.5660   34.6500   47.5700 C.3   377  LEU377      0.0001
     41  CD2       32.3110   33.4080   49.4640 C.3   377  LEU377      0.0001
     42  N         29.7280   35.9830   47.1380 N.3   382  ALA382     -0.1245
     43  CA        29.0060   34.9600   47.8810 C.3   382  ALA382      0.1562
     44  C         27.5030   34.9750   47.5400 C.2   382  ALA382      0.2260
     45  O         26.8780   33.9380   47.2830 O.2   382  ALA382     -0.2867
     46  CB        29.2330   35.1370   49.3940 C.3   382  ALA382      0.0290
     47  N         25.5130   32.1390   45.2420 N.3   386  SER386     -0.1217
     48  CA        24.3670   31.4930   45.8490 C.3   386  SER386      0.1889
     49  C         23.1160   31.6810   44.9820 C.2   386  SER386      0.2288
     50  O         22.3810   30.7240   44.7130 O.2   386  SER386     -0.2866
     51  CB        24.1720   32.0520   47.2800 C.3   386  SER386      0.2089
     52  OG        23.0060   31.5220   47.8690 O.3   386  SER386     -0.2183
     53  N         25.1160   27.0200   46.2690 N.3   396  ALA396     -0.1231
     54  CA        26.5340   26.8810   45.8710 C.3   396  ALA396      0.1694
     55  C         27.2950   26.1200   46.9380 C.2   396  ALA396      0.2592
     56  O         27.0360   26.2430   48.1600 O.2   396  ALA396     -0.2718
     57  CB        27.2010   28.2550   45.6570 C.3   396  ALA396      0.0304
     58  N         28.2370   25.3110   46.4950 N.am  397  ALA397     -0.1966
     59  CA        29.0470   24.5310   47.3890 C.3   397  ALA397      0.1728
     60  C         30.5090   24.8970   47.1850 C.2   397  ALA397      0.2616
     61  O         30.9450   25.1720   46.0530 O.2   397  ALA397     -0.2715
     62  CB        28.8030   23.0250   47.1410 C.3   397  ALA397      0.0334
     63  N         31.2860   24.8480   48.2650 N.am  398  TYR398     -0.1974
     64  CA        32.6490   25.3280   48.3130 C.3   398  TYR398      0.1639
     65  C         33.5890   24.1710   48.6520 C.2   398  TYR398      0.2290
     66  O         33.4700   23.5700   49.7250 O.2   398  TYR398     -0.2864
     67  CB        32.7760   26.4660   49.3560 C.3   398  TYR398      0.0560
     68  CG        32.1190   27.7330   48.8630 C.ar  398  TYR398     -0.0198
     69  CD1       30.7230   27.8770   48.8970 C.ar  398  TYR398     -0.0009
     70  CD2       32.8660   28.7690   48.3490 C.ar  398  TYR398     -0.0009
     71  CE1       30.1110   29.0160   48.4010 C.ar  398  TYR398      0.0417
     72  CE2       32.2680   29.9110   47.8390 C.ar  398  TYR398      0.0417
     73  CZ        30.8940   30.0260   47.8600 C.ar  398  TYR398      0.1957
     74  OH        30.3150   31.1700   47.3570 O.3   398  TYR398     -0.2866
@<TRIPOS>BOND
     1    50    49    2
     2    49    48    1
     3    47    48    1
     4    57    54    1
     5    48    51    1
     6    54    53    1
     7    54    55    1
     8    61    60    2
     9    58    55   am
    10    58    59    1
    11    55    56    2
    12    42    43    1
    13    62    59    1
    14    60    59    1
    15    60    63   am
    16    51    52    1
    17    45    44    2
    18    74    73    1
    19    44    43    1
    20    40    39    1
    21    72    73   ar
    22    72    70   ar
    23    73    71   ar
    24    43    46    1
    25    63    64    1
    26    64    65    1
    27    64    67    1
    28    70    68   ar
    29    71    69   ar
    30    65    66    2
    31    68    69   ar
    32    68    67    1
    33    39    41    1
    34    39    38    1
    35    35    38    1
    36    35    36    1
    37    35    34    1
    38    36    37    2
    39    33    32    1
    40    32    29    1
    41    31    30    2
    42    29    30    1
    43    29    28    1
    44    18    16   am
    45    17    16    2
    46    16    15    1
    47    28    21   am
    48    22    21    2
    49    14    15    1
    50    14    11    1
    51    13    12    2
    52    21    20    1
    53    12    11    1
    54    11    10    1
    55    23    20    1
    56    23    24    1
    57    20    19    1
    58    26    25    2
    59     4     3    2
    60    25    24    1
    61    25    27   am
    62     3     2    1
    63     6     5    1
    64     6     7    1
    65     5     2    1
    66     9     7   ar
    67     2     1    1
    68     7     8   ar
