@<TRIPOS>MOLECULE
tmp/3pffA00.pdb
 88 84 0 0 0
SMALL
GASTEIGER

@<TRIPOS>ATOM
      1  N         23.6150   24.2560   26.7750 N.3   279  ALA279     -0.1231
      2  CA        24.6040   24.9470   25.9620 C.3   279  ALA279      0.1694
      3  C         24.0890   26.3220   25.5750 C.2   279  ALA279      0.2592
      4  O         23.0240   26.4440   24.9630 O.2   279  ALA279     -0.2718
      5  CB        24.9050   24.1400   24.7130 C.3   279  ALA279      0.0304
      6  N         24.8560   27.3520   25.9060 N.am  280  GLY280     -0.1957
      7  CA        24.4810   28.7120   25.5780 C.3   280  GLY280      0.1869
      8  C         24.0330   29.4430   26.8310 C.2   280  GLY280      0.2309
      9  O         23.2770   28.9020   27.6380 O.2   280  GLY280     -0.2863
     10  N         27.3190   25.3000   29.7050 N.3   306  TYR306     -0.1227
     11  CA        28.5890   24.9310   29.1370 C.3   306  TYR306      0.1736
     12  C         28.6000   25.5200   27.7340 C.2   306  TYR306      0.2596
     13  O         27.8970   25.0630   26.8460 O.2   306  TYR306     -0.2718
     14  CB        28.7960   23.4070   29.1840 C.3   306  TYR306      0.0548
     15  CG        27.9430   22.6020   28.2340 C.ar  306  TYR306     -0.0200
     16  CD1       28.4540   22.1950   27.0210 C.ar  306  TYR306     -0.0009
     17  CD2       26.6320   22.2470   28.5500 C.ar  306  TYR306     -0.0009
     18  CE1       27.7090   21.4640   26.1380 C.ar  306  TYR306      0.0417
     19  CE2       25.8630   21.5080   27.6550 C.ar  306  TYR306      0.0417
     20  CZ        26.4210   21.1220   26.4410 C.ar  306  TYR306      0.1957
     21  OH        25.7170   20.3990   25.5030 O.3   306  TYR306     -0.2866
     22  N         29.3770   26.5760   27.5580 N.am  307  SER307     -0.1938
     23  CA        29.3090   27.3900   26.3580 C.3   307  SER307      0.2055
     24  C         30.6950   27.7290   25.8400 C.2   307  SER307      0.2644
     25  O         31.7040   27.4290   26.4790 O.2   307  SER307     -0.2714
     26  CB        28.5600   28.6840   26.6660 C.3   307  SER307      0.2130
     27  OG        27.3440   28.3980   27.3450 O.3   307  SER307     -0.2179
     28  N         30.7290   28.3590   24.6720 N.am  308  GLY308     -0.1939
     29  CA        31.9660   28.8130   24.0760 C.3   308  GLY308      0.2014
     30  C         32.7960   27.6500   23.5960 C.2   308  GLY308      0.2638
     31  O         34.0190   27.6430   23.7440 O.2   308  GLY308     -0.2714
     32  N         32.1260   26.6500   23.0360 N.am  309  ALA309     -0.1977
     33  CA        32.8150   25.5340   22.3780 C.3   309  ALA309      0.1597
     34  C         33.8300   24.7910   23.2490 C.2   309  ALA309      0.2287
     35  O         35.0150   24.8080   22.9590 O.2   309  ALA309     -0.2864
     36  CB        33.4950   26.0190   21.0940 C.3   309  ALA309      0.0319
     37  N         20.3860   26.3300   22.4200 N.3   342  SER342     -0.1217
     38  CA        19.9670   26.9770   21.1900 C.3   342  SER342      0.1889
     39  C         20.7160   26.3250   20.0500 C.2   342  SER342      0.2288
     40  O         21.2700   25.2430   20.2130 O.2   342  SER342     -0.2866
     41  CB        20.2700   28.4790   21.2470 C.3   342  SER342      0.2089
     42  OG        21.5040   28.7290   21.9250 O.3   342  SER342     -0.2183
     43  N         23.8850   26.3800   17.9750 N.3   344  ALA344     -0.1231
     44  CA        25.2450   26.8950   18.0120 C.3   344  ALA344      0.1694
     45  C         25.6650   27.5120   16.6770 C.2   344  ALA344      0.2592
     46  O         25.2100   27.0830   15.6250 O.2   344  ALA344     -0.2718
     47  CB        26.1990   25.7810   18.4050 C.3   344  ALA344      0.0304
     48  N         26.5160   28.5340   16.7340 N.am  345  ASN345     -0.1960
     49  CA        27.1010   29.1340   15.5380 C.3   345  ASN345      0.1819
     50  C         28.3890   28.4110   15.1350 C.2   345  ASN345      0.2621
     51  O         28.6760   28.2690   13.9510 O.2   345  ASN345     -0.2715
     52  CB        27.4100   30.6240   15.7520 C.3   345  ASN345      0.1195
     53  CG        26.1580   31.4840   15.8640 C.2   345  ASN345      0.2630
     54  OD1       25.5380   31.8290   14.8580 O.2   345  ASN345     -0.2716
     55  ND2       25.7950   31.8540   17.0880 N.am  345  ASN345     -0.0877
     56  N         29.1640   27.9570   16.1180 N.am  346  PHE346     -0.1960
     57  CA        30.4580   27.3260   15.8300 C.3   346  PHE346      0.1771
     58  C         30.8380   26.1200   16.7140 C.2   346  PHE346      0.2620
     59  O         31.7150   25.3390   16.3420 O.2   346  PHE346     -0.2715
     60  CB        31.5880   28.3730   15.8560 C.3   346  PHE346      0.0574
     61  CG        31.5990   29.2140   17.1010 C.ar  346  PHE346     -0.0200
     62  CD1       30.8720   30.4000   17.1630 C.ar  346  PHE346     -0.0042
     63  CD2       32.2990   28.8070   18.2200 C.ar  346  PHE346     -0.0042
     64  CE1       30.8590   31.1730   18.3110 C.ar  346  PHE346     -0.0003
     65  CE2       32.2910   29.5790   19.3710 C.ar  346  PHE346     -0.0003
     66  CZ        31.5680   30.7620   19.4150 C.ar  346  PHE346     -0.0000
     67  N         30.2070   25.9640   17.8750 N.am  347  THR347     -0.1951
     68  CA        30.4940   24.8020   18.7200 C.3   347  THR347      0.1897
     69  C         30.2900   23.5230   17.9300 C.2   347  THR347      0.2313
     70  O         29.3840   23.4480   17.0950 O.2   347  THR347     -0.2863
     71  CB        29.5770   24.7430   19.9630 C.3   347  THR347      0.1794
     72  OG1       29.6840   25.9670   20.6960 O.3   347  THR347     -0.2208
     73  CG2       29.9490   23.5580   20.8710 C.3   347  THR347      0.0378
     74  N         19.0290   20.1740   20.6980 N.3   378  ARG378     -0.1245
     75  CA        20.2520   20.8950   20.3910 C.3   378  ARG378      0.1563
     76  C         20.4330   21.0710   18.8990 C.2   378  ARG378      0.2260
     77  O         20.1230   20.1820   18.1140 O.2   378  ARG378     -0.2867
     78  CB        21.4530   20.1340   20.9560 C.3   378  ARG378      0.0307
     79  CG        22.7970   20.8180   20.7450 C.3   378  ARG378      0.0489
     80  CD        22.9440   22.0590   21.6030 C.3   378  ARG378      0.2205
     81  NE        24.3380   22.4920   21.6950 N.pl3 378  ARG378     -0.0865
     82  CZ        24.7630   23.7240   21.4210 C.cat 378  ARG378      0.5346
     83  NH1       23.9030   24.6650   21.0360 N.pl3 378  ARG378      0.1354
     84  NH2       26.0510   24.0280   21.5500 N.pl3 378  ARG378      0.1354
     85  N         23.8740   32.9530   20.4690 N.3   603  GLY603     -0.1225
     86  CA        23.2530   31.6460   20.5940 C.3   603  GLY603      0.1811
     87  C         21.7650   31.7690   20.3370 C.2   603  GLY603      0.2280
     88  O         21.1850   31.0470   19.5170 O.2   603  GLY603     -0.2866
@<TRIPOS>BOND
     1    51    50    2
     2    54    53    2
     3    50    49    1
     4    50    56   am
     5    49    52    1
     6    49    48    1
     7    46    45    2
     8    52    53    1
     9    57    60    1
    10    57    56    1
    11    57    58    1
    12    60    61    1
    13    53    55   am
    14    59    58    2
    15    45    48   am
    16    45    44    1
    17    58    67   am
    18    70    69    2
    19    61    62   ar
    20    61    63   ar
    21    62    64   ar
    22    67    68    1
    23    69    68    1
    24    43    44    1
    25    44    47    1
    26    77    76    2
    27    63    65   ar
    28    64    66   ar
    29    68    71    1
    30    76    75    1
    31    65    66   ar
    32    88    87    2
    33    71    72    1
    34    71    73    1
    35    39    40    2
    36    39    38    1
    37    87    86    1
    38    75    74    1
    39    75    78    1
    40    85    86    1
    41    79    78    1
    42    79    80    1
    43    83    82    1
    44    36    33    1
    45    38    41    1
    46    38    37    1
    47    41    42    1
    48    82    84    1
    49    82    81    2
    50    80    81    1
    51    33    32    1
    52    33    34    1
    53    35    34    2
    54    32    30   am
    55    30    31    2
    56    30    29    1
    57    29    28    1
    58    28    24   am
    59     5     2    1
    60     4     3    2
    61    21    20    1
    62     3     6   am
    63     3     2    1
    64     7     6    1
    65     7     8    1
    66    24    23    1
    67    24    25    2
    68     2     1    1
    69    18    20   ar
    70    18    16   ar
    71    23    26    1
    72    23    22    1
    73    20    19   ar
    74    26    27    1
    75     8     9    2
    76    13    12    2
    77    16    15   ar
    78    22    12   am
    79    19    17   ar
    80    12    11    1
    81    15    17   ar
    82    15    14    1
    83    11    14    1
    84    11    10    1
