@<TRIPOS>MOLECULE
tmp/3pfiA00.pdb
 136 133 0 0 0
SMALL
GASTEIGER

@<TRIPOS>ATOM
      1  N         41.8050    4.1310  158.8020 N.3     1  LEU1       -0.1231
      2  CA        42.9540    4.1380  157.8470 C.3     1  LEU1        0.1693
      3  C         42.5370    4.7890  156.5210 C.2     1  LEU1        0.2592
      4  O         42.7710    4.2580  155.4300 O.2     1  LEU1       -0.2718
      5  CB        43.4790    2.7190  157.6390 C.3     1  LEU1        0.0284
      6  CG        43.7280    1.9920  158.9680 C.3     1  LEU1        0.0019
      7  CD1       42.4100    1.8090  159.7060 C.3     1  LEU1        0.0001
      8  CD2       44.4120    0.6410  158.7770 C.3     1  LEU1        0.0001
      9  N         41.8940    5.9440  156.6540 N.am    2  ARG2       -0.1966
     10  CA        41.4620    6.7540  155.5310 C.3     2  ARG2        0.1714
     11  C         42.2030    8.0840  155.6600 C.2     2  ARG2        0.2458
     12  O         42.6610    8.4220  156.7500 O.2     2  ARG2       -0.2730
     13  CB        39.9460    6.9770  155.5670 C.3     2  ARG2        0.0347
     14  CG        39.4010    7.5100  156.8870 C.3     2  ARG2        0.0492
     15  CD        37.9970    8.0760  156.7060 C.3     2  ARG2        0.2205
     16  NE        37.0370    7.0960  156.1930 N.pl3   2  ARG2       -0.0865
     17  CZ        36.0820    6.5080  156.9140 C.cat   2  ARG2        0.5346
     18  NH1       35.9180    6.8060  158.1980 N.pl3   2  ARG2        0.1354
     19  NH2       35.2640    5.6340  156.3390 N.pl3   2  ARG2        0.1354
     20  N         42.3380    8.8380  154.5570 N.am    3  PRO3       -0.2727
     21  CA        43.0570   10.1100  154.6610 C.3     3  PRO3        0.1402
     22  C         42.5750   10.9830  155.8290 C.2     3  PRO3        0.2269
     23  O         41.3750   11.0560  156.1010 O.2     3  PRO3       -0.2865
     24  CB        42.7920   10.7890  153.3070 C.3     3  PRO3        0.0296
     25  CG        41.7640    9.9410  152.6070 C.3     3  PRO3        0.0237
     26  CD        41.8790    8.5740  153.1840 C.3     3  PRO3        0.0939
     27  N         45.0290   14.2750  149.7980 N.3     9  TYR9       -0.1227
     28  CA        43.7160   13.7160  149.4530 C.3     9  TYR9        0.1736
     29  C         43.6390   13.5380  147.9420 C.2     9  TYR9        0.2595
     30  O         43.8560   14.4960  147.1960 O.2     9  TYR9       -0.2718
     31  CB        42.6100   14.6500  149.9240 C.3     9  TYR9        0.0548
     32  CG        41.2010   14.1420  149.7040 C.ar    9  TYR9       -0.0200
     33  CD1       40.5450   13.4130  150.6870 C.ar    9  TYR9       -0.0009
     34  CD2       40.5140   14.4180  148.5310 C.ar    9  TYR9       -0.0009
     35  CE1       39.2510   12.9620  150.5050 C.ar    9  TYR9        0.0417
     36  CE2       39.2160   13.9690  148.3370 C.ar    9  TYR9        0.0417
     37  CZ        38.5880   13.2440  149.3280 C.ar    9  TYR9        0.1957
     38  OH        37.2960   12.7930  149.1430 O.3     9  TYR9       -0.2866
     39  N         43.3190   12.3250  147.4930 N.am   10  ILE10      -0.1980
     40  CA        43.2800   12.0320  146.0610 C.3    10  ILE10       0.1595
     41  C         41.9000   12.2320  145.4570 C.2    10  ILE10       0.2287
     42  O         40.9000   11.8170  146.0300 O.2    10  ILE10      -0.2864
     43  CB        43.7070   10.5820  145.7610 C.3    10  ILE10       0.0276
     44  CG1       45.0210   10.2360  146.4690 C.3    10  ILE10       0.0022
     45  CG2       43.8190   10.3680  144.2500 C.3    10  ILE10       0.0022
     46  CD1       46.1760   11.1160  146.0730 C.3    10  ILE10       0.0001
     47  N         27.4630    5.6970  147.0180 N.3    42  ALA42      -0.1231
     48  CA        28.1350    5.1740  148.2080 C.3    42  ALA42       0.1694
     49  C         29.5900    4.8210  147.9500 C.2    42  ALA42       0.2593
     50  O         29.9530    4.4130  146.8440 O.2    42  ALA42      -0.2718
     51  CB        27.3960    3.9480  148.7330 C.3    42  ALA42       0.0304
     52  N         30.4130    4.9930  148.9860 N.am   43  GLY43      -0.1942
     53  CA        31.8330    4.6670  148.9290 C.3    43  GLY43       0.2014
     54  C         32.7140    5.5950  148.1120 C.2    43  GLY43       0.2639
     55  O         33.8200    5.2120  147.7270 O.2    43  GLY43      -0.2714
     56  N         32.2500    6.8130  147.8470 N.am   44  LEU44      -0.1963
     57  CA        33.0530    7.7600  147.0670 C.3    44  LEU44       0.1728
     58  C         33.8610    8.7080  147.9510 C.2    44  LEU44       0.2617
     59  O         34.6060    9.5440  147.4490 O.2    44  LEU44      -0.2715
     60  CB        32.2000    8.5250  146.0470 C.3    44  LEU44       0.0311
     61  CG        31.7150    7.6650  144.8720 C.3    44  LEU44       0.0022
     62  CD1       30.8840    8.4810  143.8800 C.3    44  LEU44       0.0001
     63  CD2       32.8910    7.0230  144.1540 C.3    44  LEU44       0.0001
     64  N         33.7080    8.5850  149.2650 N.am   45  GLY45      -0.1940
     65  CA        34.5010    9.3930  150.1890 C.3    45  GLY45       0.2014
     66  C         33.8710   10.6290  150.7970 C.2    45  GLY45       0.2639
     67  O         34.5730   11.5980  151.0810 O.2    45  GLY45      -0.2714
     68  N         32.5640   10.6080  151.0220 N.am   46  LYS46      -0.1963
     69  CA        31.9050   11.7650  151.6210 C.3    46  LYS46       0.1728
     70  C         32.0020   11.7450  153.1500 C.2    46  LYS46       0.2617
     71  O         32.1010   12.7950  153.7830 O.2    46  LYS46      -0.2715
     72  CB        30.4730   11.9570  151.0860 C.3    46  LYS46       0.0311
     73  CG        29.6390   10.7010  150.9400 C.3    46  LYS46       0.0038
     74  CD        28.3650   10.9790  150.1480 C.3    46  LYS46       0.0206
     75  CE        27.5310    9.7120  149.9720 C.3    46  LYS46       0.1093
     76  NZ        28.2540    8.6260  149.2420 N.3    46  LYS46      -0.1314
     77  N         32.0060   10.5610  153.7490 N.am   47  THR47      -0.1937
     78  CA        32.1830   10.4790  155.1880 C.3    47  THR47       0.2028
     79  C         33.6080   10.9260  155.4810 C.2    47  THR47       0.2642
     80  O         33.8810   11.5580  156.5100 O.2    47  THR47      -0.2714
     81  CB        31.9930    9.0570  155.7270 C.3    47  THR47       0.1808
     82  OG1       30.6610    8.6130  155.4510 O.3    47  THR47      -0.2208
     83  CG2       32.2310    9.0220  157.2340 C.3    47  THR47       0.0379
     84  N         34.5140   10.5940  154.5620 N.am   48  THR48      -0.1950
     85  CA        35.9210   10.9530  154.7060 C.3    48  THR48       0.1897
     86  C         36.0690   12.4700  154.7530 C.2    48  THR48       0.2313
     87  O         36.5490   13.0160  155.7510 O.2    48  THR48      -0.2863
     88  CB        36.7750   10.3550  153.5720 C.3    48  THR48       0.1794
     89  OG1       36.7060    8.9250  153.6330 O.3    48  THR48      -0.2208
     90  CG2       38.2260   10.7850  153.7000 C.3    48  THR48       0.0378
     91  N         35.9960    8.2950  140.4060 N.3   148  TYR148     -0.1241
     92  CA        37.4410    8.4380  140.2850 C.3   148  TYR148      0.1605
     93  C         38.0100    7.8580  138.9970 C.2   148  TYR148      0.2264
     94  O         37.4920    6.8850  138.4520 O.2   148  TYR148     -0.2867
     95  CB        38.1260    7.7800  141.4880 C.3   148  TYR148      0.0534
     96  CG        37.8060    8.4640  142.7930 C.ar  148  TYR148     -0.0201
     97  CD1       36.6000    8.2440  143.4310 C.ar  148  TYR148     -0.0009
     98  CD2       38.7070    9.3280  143.3830 C.ar  148  TYR148     -0.0009
     99  CE1       36.2950    8.8680  144.6190 C.ar  148  TYR148      0.0417
    100  CE2       38.4130    9.9580  144.5780 C.ar  148  TYR148      0.0417
    101  CZ        37.2030    9.7230  145.1900 C.ar  148  TYR148      0.1957
    102  OH        36.8920   10.3460  146.3740 O.3   148  TYR148     -0.2866
    103  N         45.4620    5.8540  145.2990 N.3   156  ILE156     -0.1245
    104  CA        44.7930    5.4960  146.5480 C.3   156  ILE156      0.1561
    105  C         45.2180    4.1070  147.0160 C.2   156  ILE156      0.2260
    106  O         45.4900    3.9010  148.2010 O.2   156  ILE156     -0.2867
    107  CB        43.2590    5.5550  146.4100 C.3   156  ILE156      0.0252
    108  CG1       42.8070    7.0020  146.1730 C.3   156  ILE156      0.0019
    109  CG2       42.5980    5.0050  147.6580 C.3   156  ILE156      0.0019
    110  CD1       41.3120    7.1660  145.9750 C.3   156  ILE156      0.0001
    111  N         36.5830    3.9450  145.4460 N.3   184  PRO184     -0.2102
    112  CA        37.6050    3.6640  146.4500 C.3   184  PRO184      0.1504
    113  C         37.3020    2.4790  147.3590 C.2   184  PRO184      0.2575
    114  O         38.1960    1.6900  147.6390 O.2   184  PRO184     -0.2718
    115  CB        37.6430    4.9520  147.2780 C.3   184  PRO184      0.0282
    116  CG        37.2680    6.0230  146.3130 C.3   184  PRO184      0.0208
    117  CD        36.3070    5.3910  145.3310 C.3   184  PRO184      0.0893
    118  N         36.0620    2.3500  147.8180 N.am  185  ARG185     -0.1980
    119  CA        35.7070    1.2590  148.7290 C.3   185  ARG185      0.1597
    120  C         35.8580   -0.1110  148.0870 C.2   185  ARG185      0.2287
    121  O         36.4130   -1.0170  148.7030 O.2   185  ARG185     -0.2864
    122  CB        34.2930    1.4330  149.2590 C.3   185  ARG185      0.0334
    123  CG        33.8320    0.3060  150.1610 C.3   185  ARG185      0.0492
    124  CD        32.4470    0.6040  150.6730 C.3   185  ARG185      0.2205
    125  NE        32.4540    1.7480  151.5810 N.pl3 185  ARG185     -0.0865
    126  CZ        31.3730    2.4320  151.9440 C.cat 185  ARG185      0.5346
    127  NH1       30.1810    2.1210  151.4420 N.pl3 185  ARG185      0.1354
    128  NH2       31.4880    3.4520  152.7870 N.pl3 185  ARG185      0.1354
    129  N         39.5820   -0.7180  147.6460 N.3   188  LEU188     -0.1245
    130  CA        40.2260   -1.0190  148.9210 C.3   188  LEU188      0.1561
    131  C         39.8370   -2.4140  149.3760 C.2   188  LEU188      0.2260
    132  O         40.6010   -3.0730  150.0780 O.2   188  LEU188     -0.2867
    133  CB        39.8620    0.0080  149.9960 C.3   188  LEU188      0.0270
    134  CG        40.4730    1.4000  149.8080 C.3   188  LEU188      0.0019
    135  CD1       39.7940    2.4170  150.7130 C.3   188  LEU188      0.0001
    136  CD2       41.9890    1.3790  150.0340 C.3   188  LEU188      0.0001
@<TRIPOS>BOND
     1    94    93    2
     2    93    92    1
     3    92    91    1
     4    92    95    1
     5    95    96    1
     6    96    98   ar
     7    96    97   ar
     8    98   100   ar
     9    97    99   ar
    10    62    61    1
    11    63    61    1
    12    45    43    1
    13   100   101   ar
    14    99   101   ar
    15    61    60    1
    16   101   102    1
    17   103   104    1
    18   117   111    1
    19   117   116    1
    20   111   112    1
    21    41    42    2
    22    41    40    1
    23    43    40    1
    24    43    44    1
    25   110   108    1
    26    60    57    1
    27    40    39    1
    28    46    44    1
    29   108   107    1
    30   116   115    1
    31   107   104    1
    32   107   109    1
    33   112   115    1
    34   112   113    1
    35   104   105    1
    36    50    49    2
    37   105   106    2
    38    47    48    1
    39    57    56    1
    40    57    58    1
    41    30    29    2
    42   113   114    2
    43   113   118   am
    44    59    58    2
    45    39    29   am
    46   129   130    1
    47    55    54    2
    48   118   119    1
    49    56    54   am
    50    29    28    1
    51    49    48    1
    52    49    52   am
    53    58    64   am
    54   120   121    2
    55   120   119    1
    56    54    53    1
    57    48    51    1
    58    36    34   ar
    59    36    37   ar
    60    34    32   ar
    61   119   122    1
    62   130   131    1
    63   130   133    1
    64    53    52    1
    65    38    37    1
    66    76    75    1
    67   122   123    1
    68    64    65    1
    69    37    35   ar
    70   131   132    2
    71    28    27    1
    72    28    31    1
    73    32    31    1
    74    32    33   ar
    75   134   133    1
    76   134   136    1
    77   134   135    1
    78    75    74    1
    79    74    73    1
    80   123   124    1
    81    65    66    1
    82    35    33   ar
    83   124   125    1
    84    66    68   am
    85    66    67    2
    86    73    72    1
    87    68    69    1
    88    72    69    1
    89   127   126    1
    90   125   126    2
    91    69    70    1
    92   126   128    1
    93    25    26    1
    94    25    24    1
    95    70    77   am
    96    70    71    2
    97    26    20    1
    98    24    21    1
    99    88    89    1
   100    88    90    1
   101    88    85    1
   102    77    78    1
   103    20    21    1
   104    20    11   am
   105    84    85    1
   106    84    79   am
   107    21    22    1
   108    85    86    1
   109    86    87    2
   110    78    79    1
   111    78    81    1
   112     4     3    2
   113    82    81    1
   114    79    80    2
   115    10    13    1
   116    10    11    1
   117    10     9    1
   118    13    14    1
   119    11    12    2
   120    81    83    1
   121    22    23    2
   122    16    15    1
   123    16    17    2
   124    19    17    1
   125     3     9   am
   126     3     2    1
   127    15    14    1
   128    17    18    1
   129     5     2    1
   130     5     6    1
   131     2     1    1
   132     8     6    1
   133     6     7    1
