@<TRIPOS>MOLECULE
tmp/3pfpA00.pdb
 164 156 0 0 0
SMALL
GASTEIGER

@<TRIPOS>ATOM
      1  N         34.5330  121.3300   11.0990 N.3    89  CYS89      -0.1235
      2  CA        34.1650  121.7180   12.4530 C.3    89  CYS89       0.1677
      3  C         32.7620  121.2200   12.7610 C.2    89  CYS89       0.2270
      4  O         32.5230  120.6080   13.8190 O.2    89  CYS89      -0.2867
      5  CB        34.2280  123.2350   12.6540 C.3    89  CYS89       0.0956
      6  SG        33.6830  123.7170   14.3610 S.3    89  CYS89      -0.0801
      7  N         36.9650  113.6050   11.3160 N.3   128  ARG128     -0.1245
      8  CA        35.7890  114.2380   11.9290 C.3   128  ARG128      0.1563
      9  C         34.6900  114.1700   10.8910 C.2   128  ARG128      0.2260
     10  O         34.5850  115.0630   10.0330 O.2   128  ARG128     -0.2867
     11  CB        36.0550  115.7200   12.2710 C.3   128  ARG128      0.0307
     12  CG        37.0430  115.9780   13.4050 C.3   128  ARG128      0.0489
     13  CD        37.3480  117.4900   13.5210 C.3   128  ARG128      0.2205
     14  NE        36.1530  118.2820   13.8350 N.pl3 128  ARG128     -0.0865
     15  CZ        35.9620  118.9580   14.9710 C.cat 128  ARG128      0.5346
     16  NH1       36.8840  118.9710   15.9240 N.pl3 128  ARG128      0.1354
     17  NH2       34.8340  119.6200   15.1600 N.pl3 128  ARG128      0.1354
     18  N         27.1260  120.9510   18.2220 N.3   135  LYS135     -0.1231
     19  CA        28.1010  121.8970   18.7380 C.3   135  LYS135      0.1678
     20  C         27.6470  122.4390   20.0810 C.2   135  LYS135      0.2434
     21  O         26.4620  122.7320   20.2740 O.2   135  LYS135     -0.2733
     22  CB        28.2750  123.0720   17.7650 C.3   135  LYS135      0.0284
     23  CG        28.4950  122.6510   16.2900 C.3   135  LYS135      0.0035
     24  CD        29.6680  121.6380   16.1090 C.3   135  LYS135      0.0206
     25  CE        31.0170  122.3420   15.9930 C.3   135  LYS135      0.1093
     26  NZ        32.1200  121.6510   16.7450 N.3   135  LYS135     -0.1314
     27  N         28.5960  122.6010   21.0140 N.am  136  PRO136     -0.2718
     28  CA        28.2990  123.4410   22.1770 C.3   136  PRO136      0.1535
     29  C         28.4140  124.9000   21.7550 C.2   136  PRO136      0.2598
     30  O         29.1410  125.2040   20.8090 O.2   136  PRO136     -0.2715
     31  CB        29.4160  123.0970   23.1470 C.3   136  PRO136      0.0310
     32  CG        30.5960  122.7490   22.2450 C.3   136  PRO136      0.0237
     33  CD        30.0080  122.1730   20.9690 C.3   136  PRO136      0.0939
     34  N         27.6940  125.7930   22.4160 N.am  137  ARG137     -0.1964
     35  CA        27.8820  127.2140   22.1570 C.3   137  ARG137      0.1729
     36  C         28.2530  127.9610   23.4170 C.2   137  ARG137      0.2617
     37  O         27.9070  127.5420   24.5270 O.2   137  ARG137     -0.2715
     38  CB        26.6370  127.8350   21.5150 C.3   137  ARG137      0.0348
     39  CG        26.1320  127.0990   20.2490 C.3   137  ARG137      0.0492
     40  CD        27.1940  126.9050   19.1430 C.3   137  ARG137      0.2205
     41  NE        27.8770  128.1290   18.7130 N.pl3 137  ARG137     -0.0865
     42  CZ        27.6640  128.7780   17.5590 C.cat 137  ARG137      0.5346
     43  NH1       26.7470  128.3660   16.6830 N.pl3 137  ARG137      0.1354
     44  NH2       28.3870  129.8540   17.2700 N.pl3 137  ARG137      0.1354
     45  N         28.9810  129.0570   23.2330 N.am  138  SER138     -0.1936
     46  CA        29.3390  129.9540   24.3340 C.3   138  SER138      0.2055
     47  C         28.1360  130.7510   24.7970 C.2   138  SER138      0.2642
     48  O         28.0230  131.0700   25.9760 O.2   138  SER138     -0.2714
     49  CB        30.4450  130.9320   23.9150 C.3   138  SER138      0.2130
     50  OG        31.5850  130.2350   23.4550 O.3   138  SER138     -0.2179
     51  N         27.2570  131.0990   23.8600 N.am  139  ALA139     -0.1977
     52  CA        26.1520  132.0160   24.1580 C.3   139  ALA139      0.1597
     53  C         24.8280  131.4490   23.6870 C.2   139  ALA139      0.2287
     54  O         24.7520  130.8430   22.6170 O.2   139  ALA139     -0.2864
     55  CB        26.4010  133.3720   23.5150 C.3   139  ALA139      0.0319
     56  N         32.6250  114.8010   18.3420 N.3   250  GLU250     -0.1245
     57  CA        32.4280  115.1160   19.7460 C.3   250  GLU250      0.1567
     58  C         31.1550  114.4310   20.2400 C.2   250  GLU250      0.2260
     59  O         30.0820  114.6180   19.6690 O.2   250  GLU250     -0.2867
     60  CB        32.3340  116.6390   19.9860 C.3   250  GLU250      0.0388
     61  CG        32.1590  116.9750   21.4790 C.3   250  GLU250      0.1160
     62  CD        31.8750  118.4520   21.7650 C.2   250  GLU250      0.3649
     63  OE1       32.1480  119.3290   20.8990 O.co2 250  GLU250     -0.2457
     64  OE2       31.3760  118.7300   22.8830 O.co2 250  GLU250     -0.2457
     65  N         35.3150  112.2630   21.3750 N.3   282  TRP282     -0.1241
     66  CA        35.9980  113.0540   22.3700 C.3   282  TRP282      0.1605
     67  C         34.9980  113.8930   23.1480 C.2   282  TRP282      0.2264
     68  O         33.8340  114.0550   22.7360 O.2   282  TRP282     -0.2867
     69  CB        37.0920  113.9220   21.7250 C.3   282  TRP282      0.0550
     70  CG        36.5770  115.1130   20.9490 C.ar  282  TRP282      0.0003
     71  CD1       36.2410  116.3380   21.4550 C.ar  282  TRP282      0.0946
     72  CD2       36.3340  115.1800   19.5300 C.ar  282  TRP282      0.0152
     73  NE1       35.8160  117.1700   20.4320 N.ar  282  TRP282     -0.2442
     74  CE2       35.8540  116.4800   19.2470 C.ar  282  TRP282      0.0810
     75  CE3       36.4590  114.2570   18.4760 C.ar  282  TRP282      0.0012
     76  CZ2       35.5080  116.8910   17.9590 C.ar  282  TRP282      0.0191
     77  CZ3       36.1380  114.6710   17.1870 C.ar  282  TRP282      0.0001
     78  CH2       35.6610  115.9830   16.9410 C.ar  282  TRP282      0.0015
     79  N         34.3380  117.6430   24.7810 N.3   284  GLY284     -0.1210
     80  CA        34.7850  118.9950   24.4940 C.3   284  GLY284      0.1956
     81  C         35.1440  119.7590   25.7470 C.2   284  GLY284      0.2612
     82  O         34.8560  119.3300   26.8760 O.2   284  GLY284     -0.2717
     83  N         35.7700  120.9020   25.5300 N.am  285  GLU285     -0.1965
     84  CA        36.2150  121.7700   26.5920 C.3   285  GLU285      0.1733
     85  C         35.0520  122.2100   27.5020 C.2   285  GLU285      0.2616
     86  O         35.2320  122.3520   28.7100 O.2   285  GLU285     -0.2715
     87  CB        36.9820  122.9420   25.9650 C.3   285  GLU285      0.0429
     88  CG        37.3730  124.0650   26.8800 C.3   285  GLU285      0.1163
     89  CD        38.5620  123.7430   27.7730 C.2   285  GLU285      0.3649
     90  OE1       39.2310  122.7050   27.5570 O.co2 285  GLU285     -0.2457
     91  OE2       38.8090  124.5390   28.7080 O.co2 285  GLU285     -0.2457
     92  N         33.8530  122.3410   26.9380 N.am  286  ARG286     -0.1977
     93  CA        32.6930  122.8690   27.6750 C.3   286  ARG286      0.1597
     94  C         31.8500  121.8090   28.3960 C.2   286  ARG286      0.2287
     95  O         30.9070  122.1490   29.1180 O.2   286  ARG286     -0.2864
     96  CB        31.8150  123.7300   26.7520 C.3   286  ARG286      0.0334
     97  CG        32.4670  125.0580   26.3270 C.3   286  ARG286      0.0492
     98  CD        31.8620  125.5920   25.0280 C.3   286  ARG286      0.2205
     99  NE        32.6970  126.6160   24.4090 N.pl3 286  ARG286     -0.0865
    100  CZ        33.7010  126.3540   23.5740 C.cat 286  ARG286      0.5346
    101  NH1       33.9830  125.0920   23.2520 N.pl3 286  ARG286      0.1354
    102  NH2       34.4330  127.3500   23.0670 N.pl3 286  ARG286      0.1354
    103  N         39.3770  117.2630   25.3950 N.3   308  LYS308     -0.1245
    104  CA        40.0190  118.5070   24.9830 C.3   308  LYS308      0.1561
    105  C         40.5090  119.2290   26.2210 C.2   308  LYS308      0.2260
    106  O         39.7790  119.3360   27.1980 O.2   308  LYS308     -0.2867
    107  CB        39.0320  119.3960   24.2190 C.3   308  LYS308      0.0271
    108  CG        38.5020  118.7830   22.9420 C.3   308  LYS308      0.0035
    109  CD        39.5710  118.7150   21.8480 C.3   308  LYS308      0.0206
    110  CE        38.9510  118.9760   20.4750 C.3   308  LYS308      0.1093
    111  NZ        38.8420  120.4440   20.2350 N.3   308  LYS308     -0.1314
    112  N         44.7740  122.1870   23.4220 N.3   339  ARG339     -0.1245
    113  CA        44.4210  123.3600   22.6100 C.3   339  ARG339      0.1563
    114  C         44.5720  124.6040   23.4610 C.2   339  ARG339      0.2260
    115  O         43.6160  125.0690   24.1060 O.2   339  ARG339     -0.2867
    116  CB        43.0120  123.2700   21.9830 C.3   339  ARG339      0.0307
    117  CG        42.0280  122.3100   22.6480 C.3   339  ARG339      0.0489
    118  CD        41.3030  122.9280   23.8550 C.3   339  ARG339      0.2205
    119  NE        40.0880  123.6560   23.4780 N.pl3 339  ARG339     -0.0865
    120  CZ        39.9610  124.9850   23.5160 C.cat 339  ARG339      0.5346
    121  NH1       40.9720  125.7470   23.9160 N.pl3 339  ARG339      0.1354
    122  NH2       38.8200  125.5520   23.1580 N.pl3 339  ARG339      0.1354
    123  N         41.6230  125.4170   18.1360 N.3   371  HIS371     -0.1241
    124  CA        40.5520  125.9640   18.9570 C.3   371  HIS371      0.1621
    125  C         41.0090  127.0060   19.9660 C.2   371  HIS371      0.2264
    126  O         40.1900  127.7770   20.4570 O.2   371  HIS371     -0.2867
    127  CB        39.6850  124.8600   19.5670 C.3   371  HIS371      0.0745
    128  CG        38.8370  124.1580   18.5510 C.ar  371  HIS371      0.0817
    129  ND1       39.2150  122.9680   17.9620 N.ar  371  HIS371     -0.2268
    130  CD2       37.6660  124.5150   17.9630 C.ar  371  HIS371      0.1154
    131  CE1       38.2950  122.6120   17.0760 C.ar  371  HIS371      0.1986
    132  NE2       37.3390  123.5260   17.0650 N.ar  371  HIS371     -0.2212
    133  N         34.5800  135.0380   12.1710 N.3   382  LYS382     -0.1245
    134  CA        35.3510  134.1700   13.0630 C.3   382  LYS382      0.1561
    135  C         36.4680  133.5400   12.2360 C.2   382  LYS382      0.2260
    136  O         36.2040  132.8570   11.2460 O.2   382  LYS382     -0.2867
    137  CB        34.4390  133.1050   13.6790 C.3   382  LYS382      0.0271
    138  CG        35.1240  132.1570   14.6430 C.3   382  LYS382      0.0035
    139  CD        34.1790  131.6430   15.7440 C.3   382  LYS382      0.0206
    140  CE        33.3460  130.4530   15.2970 C.3   382  LYS382      0.1093
    141  NZ        32.4590  129.9180   16.3790 N.3   382  LYS382     -0.1314
    142  N         40.8990  121.1810   11.9500 N.3   413  GLU413     -0.1245
    143  CA        39.6460  121.3600   11.2250 C.3   413  GLU413      0.1567
    144  C         40.0140  121.7740    9.7980 C.2   413  GLU413      0.2260
    145  O         40.6670  122.8030    9.5770 O.2   413  GLU413     -0.2867
    146  CB        38.7230  122.3720   11.9490 C.3   413  GLU413      0.0388
    147  CG        38.3440  121.8840   13.3590 C.3   413  GLU413      0.1160
    148  CD        37.3280  122.7520   14.1120 C.2   413  GLU413      0.3649
    149  OE1       36.4430  122.1840   14.8060 O.co2 413  GLU413     -0.2457
    150  OE2       37.4120  123.9910   14.0640 O.co2 413  GLU413     -0.2457
    151  N         30.3910  126.7540   11.3840 N.3   442  CYS442     -0.1221
    152  CA        30.8950  127.0900   12.7150 C.3   442  CYS442      0.1808
    153  C         32.3320  127.6300   12.6650 C.2   442  CYS442      0.2601
    154  O         32.5370  128.7540   12.2310 O.2   442  CYS442     -0.2717
    155  CB        30.7590  125.9170   13.6930 C.3   442  CYS442      0.0970
    156  SG        30.9110  126.4160   15.4630 S.3   442  CYS442     -0.0800
    157  N         33.3220  126.8500   13.0880 N.am  443  ASP443     -0.1973
    158  CA        34.6960  127.3490   13.1000 C.3   443  ASP443      0.1709
    159  C         35.3210  127.4100   11.7030 C.2   443  ASP443      0.2293
    160  O         34.9850  126.5970   10.8340 O.2   443  ASP443     -0.2864
    161  CB        35.5750  126.5010   14.0250 C.3   443  ASP443      0.1436
    162  CG        35.1550  126.6020   15.4780 C.2   443  ASP443      0.3671
    163  OD1       35.4960  125.6790   16.2500 O.co2 443  ASP443     -0.2456
    164  OD2       34.4730  127.5930   15.8380 O.co2 443  ASP443     -0.2456
@<TRIPOS>BOND
     1   145   144    2
     2   144   143    1
     3    10     9    2
     4   160   159    2
     5     9     8    1
     6     1     2    1
     7   143   146    1
     8   143   142    1
     9   136   135    2
    10     7     8    1
    11   151   152    1
    12   159   158    1
    13     8    11    1
    14   146   147    1
    15   133   134    1
    16   154   153    2
    17   135   134    1
    18    11    12    1
    19     2     5    1
    20     2     3    1
    21     5     6    1
    22   153   152    1
    23   153   157   am
    24   152   155    1
    25     3     4    2
    26   134   137    1
    27   157   158    1
    28   158   161    1
    29   147   148    1
    30    12    13    1
    31    13    14    1
    32   137   138    1
    33   155   156    1
    34    14    15    2
    35   161   162    1
    36   150   148   ar
    37   148   149   ar
    38   138   139    1
    39    15    17    1
    40    15    16    1
    41   140   139    1
    42   140   141    1
    43   162   164   ar
    44   162   163   ar
    45    25    24    1
    46    25    26    1
    47    24    23    1
    48    23    22    1
    49    43    42    1
    50    78    77   ar
    51    78    76   ar
    52   132   131   ar
    53   132   130   ar
    54   131   129   ar
    55    77    75   ar
    56    44    42    1
    57    42    41    2
    58    22    19    1
    59    76    74   ar
    60   129   128   ar
    61   130   128   ar
    62   123   124    1
    63    18    19    1
    64    56    57    1
    65    75    72   ar
    66   128   127    1
    67    41    40    1
    68    19    20    1
    69   124   127    1
    70   124   125    1
    71    40    39    1
    72    74    72   ar
    73    74    73   ar
    74    72    70   ar
    75    59    58    2
    76    57    60    1
    77    57    58    1
    78   125   126    2
    79    60    61    1
    80    20    21    2
    81    20    27   am
    82   111   110    1
    83    39    38    1
    84    73    71   ar
    85   110   109    1
    86    30    29    2
    87    63    62   ar
    88    70    71   ar
    89    70    69    1
    90    33    27    1
    91    33    32    1
    92    27    28    1
    93    65    66    1
    94    61    62    1
    95    38    35    1
    96    69    66    1
    97    29    28    1
    98    29    34   am
    99    62    64   ar
   100   109   108    1
   101   116   113    1
   102   116   117    1
   103    35    34    1
   104    35    36    1
   105    28    31    1
   106    32    31    1
   107    66    67    1
   108   113   112    1
   109   113   114    1
   110    54    53    2
   111   117   118    1
   112    68    67    2
   113   108   107    1
   114   102   100    1
   115   122   120    1
   116    45    36   am
   117    45    46    1
   118   101   100    1
   119    36    37    2
   120    50    49    1
   121   114   115    2
   122   119   120    2
   123   119   118    1
   124    55    52    1
   125   120   121    1
   126   100    99    2
   127    53    52    1
   128    51    52    1
   129    51    47   am
   130    49    46    1
   131   107   104    1
   132    46    47    1
   133    99    98    1
   134    80    79    1
   135    80    81    1
   136    47    48    2
   137   104   103    1
   138   104   105    1
   139    98    97    1
   140    83    81   am
   141    83    84    1
   142    81    82    2
   143    87    84    1
   144    87    88    1
   145   105   106    2
   146    97    96    1
   147    84    85    1
   148    96    93    1
   149    88    89    1
   150    92    85   am
   151    92    93    1
   152    85    86    2
   153    90    89   ar
   154    93    94    1
   155    89    91   ar
   156    94    95    2
