@<TRIPOS>MOLECULE
tmp/3pftB00.pdb
 177 170 0 0 0
SMALL
GASTEIGER

@<TRIPOS>ATOM
      1  N         51.8960   34.2480   20.6280 N.3    18  VAL18      -0.1245
      2  CA        53.1010   33.6790   21.2170 C.3    18  VAL18       0.1561
      3  C         53.9280   33.0360   20.1230 C.2    18  VAL18       0.2260
      4  O         53.3820   32.3930   19.2290 O.2    18  VAL18      -0.2867
      5  CB        52.7390   32.6120   22.2510 C.3    18  VAL18       0.0252
      6  CG1       53.9990   32.0020   22.8550 C.3    18  VAL18       0.0019
      7  CG2       51.8640   33.2150   23.3790 C.3    18  VAL18       0.0019
      8  N         62.9540   28.6400   22.6710 N.3    32  LEU32      -0.1231
      9  CA        62.2160   29.2020   23.8090 C.3    32  LEU32       0.1693
     10  C         60.9090   29.7850   23.3090 C.2    32  LEU32       0.2592
     11  O         60.7450   29.9870   22.1140 O.2    32  LEU32      -0.2718
     12  CB        63.0210   30.2970   24.5080 C.3    32  LEU32       0.0284
     13  CG        63.4810   31.4900   23.6650 C.3    32  LEU32       0.0019
     14  CD1       62.5940   32.6920   23.9360 C.3    32  LEU32       0.0001
     15  CD2       64.9120   31.8520   23.9800 C.3    32  LEU32       0.0001
     16  N         59.9830   30.0490   24.2250 N.am   33  ALA33      -0.1966
     17  CA        58.7310   30.7350   23.8860 C.3    33  ALA33       0.1728
     18  C         58.8730   32.2180   24.1770 C.2    33  ALA33       0.2616
     19  O         59.5110   32.6040   25.1570 O.2    33  ALA33      -0.2715
     20  CB        57.5810   30.1650   24.7270 C.3    33  ALA33       0.0334
     21  N         58.2410   33.0560   23.3540 N.am   34  ALA34      -0.1963
     22  CA        58.2060   34.4940   23.6360 C.3    34  ALA34       0.1728
     23  C         56.8280   35.0500   23.3390 C.2    34  ALA34       0.2617
     24  O         56.2370   34.7720   22.2910 O.2    34  ALA34      -0.2715
     25  CB        59.2670   35.2460   22.8250 C.3    34  ALA34       0.0334
     26  N         56.3360   35.8860   24.2490 N.am   35  SER35      -0.1936
     27  CA        55.0700   36.5600   24.0260 C.3    35  SER35       0.2055
     28  C         55.2630   37.9810   23.5080 C.2    35  SER35       0.2643
     29  O         54.2750   38.6920   23.3130 O.2    35  SER35      -0.2714
     30  CB        54.2560   36.6040   25.3100 C.3    35  SER35       0.2130
     31  OG        55.0200   37.2300   26.3320 O.3    35  SER35      -0.2179
     32  N         56.5130   38.3750   23.2590 N.am   36  THR36      -0.1950
     33  CA        56.8600   39.7490   22.9290 C.3    36  THR36       0.1897
     34  C         57.1930   39.9910   21.4470 C.2    36  THR36       0.2313
     35  O         57.8690   40.9570   21.1080 O.2    36  THR36      -0.2863
     36  CB        58.0510   40.2330   23.7860 C.3    36  THR36       0.1794
     37  OG1       59.1530   39.3110   23.6490 O.3    36  THR36      -0.2208
     38  CG2       57.6250   40.3630   25.2480 C.3    36  THR36       0.0378
     39  N         61.5860   41.0010   19.1940 N.3    49  PHE49      -0.1227
     40  CA        61.0090   40.5130   20.4420 C.3    49  PHE49       0.1736
     41  C         61.9320   40.9500   21.5660 C.2    49  PHE49       0.2595
     42  O         62.9640   41.5620   21.3040 O.2    49  PHE49      -0.2718
     43  CB        60.7900   38.9910   20.4270 C.3    49  PHE49       0.0547
     44  CG        62.0210   38.2000   20.7290 C.ar   49  PHE49      -0.0202
     45  CD1       62.1610   37.5630   21.9510 C.ar   49  PHE49      -0.0042
     46  CD2       63.0460   38.0960   19.7960 C.ar   49  PHE49      -0.0042
     47  CE1       63.3150   36.8240   22.2450 C.ar   49  PHE49      -0.0003
     48  CE2       64.1930   37.3620   20.0780 C.ar   49  PHE49      -0.0003
     49  CZ        64.3310   36.7260   21.3010 C.ar   49  PHE49      -0.0000
     50  N         61.5300   40.6850   22.8030 N.am   50  ALA50      -0.1966
     51  CA        62.3180   41.0770   23.9800 C.3    50  ALA50       0.1728
     52  C         62.7590   39.8460   24.7390 C.2    50  ALA50       0.2616
     53  O         61.9260   39.0380   25.1330 O.2    50  ALA50      -0.2715
     54  CB        61.5060   41.9710   24.8990 C.3    50  ALA50       0.0334
     55  N         64.0640   39.7210   24.9660 N.am   51  VAL51      -0.1963
     56  CA        64.5930   38.5610   25.6670 C.3    51  VAL51       0.1727
     57  C         65.1070   38.9390   27.0630 C.2    51  VAL51       0.2616
     58  O         65.7470   39.9740   27.2500 O.2    51  VAL51      -0.2715
     59  CB        65.6830   37.8680   24.8260 C.3    51  VAL51       0.0290
     60  CG1       66.9020   38.7730   24.6430 C.3    51  VAL51       0.0023
     61  CG2       66.0680   36.5210   25.4310 C.3    51  VAL51       0.0023
     62  N         64.7990   38.0940   28.0420 N.am   52  GLN52      -0.1977
     63  CA        65.2790   38.3230   29.4060 C.3    52  GLN52       0.1601
     64  C         66.8090   38.3230   29.4250 C.2    52  GLN52       0.2287
     65  O         67.4440   37.4260   28.8910 O.2    52  GLN52      -0.2864
     66  CB        64.7350   37.2330   30.3250 C.3    52  GLN52       0.0394
     67  CG        65.0300   37.4390   31.7980 C.3    52  GLN52       0.0908
     68  CD        63.9290   38.1940   32.5210 C.2    52  GLN52       0.2608
     69  OE1       64.2030   39.0830   33.3270 O.2    52  GLN52      -0.2717
     70  NE2       62.6730   37.8380   32.2420 N.am   52  GLN52      -0.0878
     71  N         68.7010   37.6370   31.7480 N.3    54  SER54      -0.1202
     72  CA        69.1970   36.5140   32.5380 C.3    54  SER54       0.2020
     73  C         69.0610   35.1740   31.8250 C.2    54  SER54       0.2619
     74  O         69.4330   34.1370   32.3790 O.2    54  SER54      -0.2717
     75  CB        68.4960   36.4570   33.9000 C.3    54  SER54       0.2103
     76  OG        67.1030   36.2960   33.7570 O.3    54  SER54      -0.2182
     77  N         68.5370   35.1820   30.6010 N.am   55  SER55      -0.1937
     78  CA        68.2960   33.9300   29.8950 C.3    55  SER55       0.2055
     79  C         69.5830   33.1150   29.7340 C.2    55  SER55       0.2644
     80  O         70.6170   33.6530   29.3290 O.2    55  SER55      -0.2714
     81  CB        67.7090   34.2040   28.5110 C.3    55  SER55       0.2130
     82  OG        67.5890   32.9920   27.7790 O.3    55  SER55      -0.2179
     83  N         69.4930   31.8190   30.0220 N.am   56  THR56      -0.1936
     84  CA        70.6080   30.9160   29.7550 C.3    56  THR56       0.2028
     85  C         70.4920   30.2270   28.4060 C.2    56  THR56       0.2642
     86  O         71.4510   29.6210   27.9430 O.2    56  THR56      -0.2714
     87  CB        70.8010   29.8460   30.8560 C.3    56  THR56       0.1808
     88  OG1       69.6830   28.9440   30.8700 O.3    56  THR56      -0.2208
     89  CG2       70.9660   30.5180   32.2230 C.3    56  THR56       0.0379
     90  N         69.3310   30.3320   27.7640 N.am   57  THR57      -0.1950
     91  CA        69.1630   29.7930   26.4180 C.3    57  THR57       0.1897
     92  C         69.5800   30.7750   25.3260 C.2    57  THR57       0.2313
     93  O         70.1870   30.3900   24.3340 O.2    57  THR57      -0.2863
     94  CB        67.7000   29.3640   26.1610 C.3    57  THR57       0.1794
     95  OG1       67.3460   28.3340   27.0870 O.3    57  THR57      -0.2208
     96  CG2       67.5320   28.8120   24.7370 C.3    57  THR57       0.0378
     97  N         53.2970   25.9350   24.3220 N.3    80  ALA80      -0.1231
     98  CA        53.8490   27.2060   24.7880 C.3    80  ALA80       0.1694
     99  C         54.5010   27.0830   26.1530 C.2    80  ALA80       0.2591
    100  O         55.6210   27.5450   26.3590 O.2    80  ALA80      -0.2718
    101  CB        52.7660   28.2960   24.8130 C.3    80  ALA80       0.0304
    102  N         53.7930   26.4610   27.0900 N.am   81  ARG81      -0.1980
    103  CA        54.3540   26.2320   28.4120 C.3    81  ARG81       0.1597
    104  C         55.5610   25.3110   28.3020 C.2    81  ARG81       0.2287
    105  O         56.5530   25.5080   28.9890 O.2    81  ARG81      -0.2864
    106  CB        53.3000   25.6370   29.3680 C.3    81  ARG81       0.0334
    107  CG        52.2050   26.6190   29.8000 C.3    81  ARG81       0.0492
    108  CD        52.7120   27.6140   30.8450 C.3    81  ARG81       0.2205
    109  NE        51.7290   28.6440   31.1990 N.pl3  81  ARG81      -0.0865
    110  CZ        52.0260   29.7500   31.8790 C.cat  81  ARG81       0.5346
    111  NH1       53.2720   29.9560   32.2760 N.pl3  81  ARG81       0.1354
    112  NH2       51.0850   30.6560   32.1640 N.pl3  81  ARG81       0.1354
    113  N         57.7050   24.8960   25.8380 N.3    83  LEU83      -0.1231
    114  CA        58.8470   25.6340   25.2790 C.3    83  LEU83       0.1693
    115  C         59.4900   26.5810   26.2920 C.2    83  LEU83       0.2591
    116  O         60.5830   27.1210   26.0750 O.2    83  LEU83      -0.2718
    117  CB        58.3890   26.4410   24.0600 C.3    83  LEU83       0.0284
    118  CG        58.2380   25.6650   22.7550 C.3    83  LEU83       0.0019
    119  CD1       57.2410   26.3390   21.8110 C.3    83  LEU83       0.0001
    120  CD2       59.6020   25.5230   22.0990 C.3    83  LEU83       0.0001
    121  N         58.8090   26.8140   27.4040 N.am   84  ALA84      -0.1980
    122  CA        59.3420   27.6920   28.4250 C.3    84  ALA84       0.1597
    123  C         60.0250   26.9400   29.5630 C.2    84  ALA84       0.2287
    124  O         60.6240   27.5470   30.4310 O.2    84  ALA84      -0.2864
    125  CB        58.2250   28.5850   28.9920 C.3    84  ALA84       0.0319
    126  N         62.2360   25.3320   32.2500 N.3    86  LYS86      -0.1245
    127  CA        63.6340   25.4520   32.6590 C.3    86  LYS86       0.1561
    128  C         64.4270   24.1790   32.3590 C.2    86  LYS86       0.2260
    129  O         65.5110   24.2350   31.7670 O.2    86  LYS86      -0.2867
    130  CB        63.7360   25.8050   34.1450 C.3    86  LYS86       0.0271
    131  CG        62.9170   27.0190   34.5450 C.3    86  LYS86       0.0035
    132  CD        63.3890   28.2520   33.7950 C.3    86  LYS86       0.0206
    133  CE        62.7730   29.5190   34.3730 C.3    86  LYS86       0.1093
    134  NZ        63.4330   30.7270   33.7730 N.3    86  LYS86      -0.1314
    135  N         61.8620   20.7380   25.6390 N.3    90  ARG90      -0.1245
    136  CA        61.0190   21.8490   25.1950 C.3    90  ARG90       0.1563
    137  C         60.2200   21.5780   23.9320 C.2    90  ARG90       0.2260
    138  O         59.2940   22.3350   23.6000 O.2    90  ARG90      -0.2867
    139  CB        61.8670   23.1070   25.0090 C.3    90  ARG90       0.0307
    140  CG        62.2760   23.7090   26.3090 C.3    90  ARG90       0.0489
    141  CD        62.9770   25.0510   26.1170 C.3    90  ARG90       0.2205
    142  NE        63.4690   25.4770   27.4130 N.pl3  90  ARG90      -0.0865
    143  CZ        64.4470   26.3460   27.5880 C.cat  90  ARG90       0.5346
    144  NH1       65.0120   26.9180   26.5350 N.pl3  90  ARG90       0.1354
    145  NH2       64.8580   26.6330   28.8170 N.pl3  90  ARG90       0.1354
    146  N         65.6040   43.4380   30.0490 N.3   126  HIS126     -0.1241
    147  CA        65.5690   42.7030   28.7840 C.3   126  HIS126      0.1621
    148  C         66.4650   43.3390   27.7360 C.2   126  HIS126      0.2264
    149  O         67.0520   44.3930   27.9470 O.2   126  HIS126     -0.2867
    150  CB        64.1460   42.6350   28.2120 C.3   126  HIS126      0.0745
    151  CG        63.2690   41.6340   28.8870 C.ar  126  HIS126      0.0817
    152  ND1       62.9650   41.7000   30.2300 N.ar  126  HIS126     -0.2268
    153  CD2       62.5840   40.5700   28.3980 C.ar  126  HIS126      0.1154
    154  CE1       62.1540   40.7060   30.5440 C.ar  126  HIS126      0.1986
    155  NE2       61.9140   40.0030   29.4510 N.ar  126  HIS126     -0.2212
    156  N         47.9680   34.7490   24.3090 N.3   147  PHE147     -0.1241
    157  CA        48.3470   34.7740   25.7150 C.3   147  PHE147      0.1605
    158  C         47.7240   36.0070   26.3740 C.2   147  PHE147      0.2264
    159  O         47.9260   37.1340   25.9110 O.2   147  PHE147     -0.2867
    160  CB        49.8650   34.8490   25.8080 C.3   147  PHE147      0.0534
    161  CG        50.4320   34.6950   27.2050 C.ar  147  PHE147     -0.0203
    162  CD1       50.0790   33.6210   28.0260 C.ar  147  PHE147     -0.0042
    163  CD2       51.3850   35.5850   27.6540 C.ar  147  PHE147     -0.0042
    164  CE1       50.6480   33.4800   29.2870 C.ar  147  PHE147     -0.0003
    165  CE2       51.9650   35.4410   28.9170 C.ar  147  PHE147     -0.0003
    166  CZ        51.5840   34.3900   29.7290 C.ar  147  PHE147     -0.0000
    167  N         45.9520   30.8390   28.0640 N.3   152  PHE152     -0.1241
    168  CA        46.0190   30.7290   26.6220 C.3   152  PHE152      0.1605
    169  C         44.6110   30.6140   26.1000 C.2   152  PHE152      0.2264
    170  O         43.8520   29.7270   26.4960 O.2   152  PHE152     -0.2867
    171  CB        46.8940   29.5420   26.2210 C.3   152  PHE152      0.0534
    172  CG        48.3040   29.6680   26.7030 C.ar  152  PHE152     -0.0203
    173  CD1       49.2440   30.3780   25.9660 C.ar  152  PHE152     -0.0042
    174  CD2       48.6850   29.1190   27.9090 C.ar  152  PHE152     -0.0042
    175  CE1       50.5390   30.5180   26.4170 C.ar  152  PHE152     -0.0003
    176  CE2       49.9920   29.2500   28.3610 C.ar  152  PHE152     -0.0003
    177  CZ        50.9150   29.9500   27.6140 C.ar  152  PHE152     -0.0000
@<TRIPOS>BOND
     1    39    40    1
     2     4     3    2
     3    46    48   ar
     4    46    44   ar
     5    48    49   ar
     6     3     2    1
     7    43    40    1
     8    43    44    1
     9    40    41    1
    10     1     2    1
    11    44    45   ar
    12    35    34    2
    13     2     5    1
    14    49    47   ar
    15    42    41    2
    16    34    33    1
    17    41    50   am
    18   119   118    1
    19    45    47   ar
    20   120   118    1
    21    11    10    2
    22     5     6    1
    23     5     7    1
    24    24    23    2
    25     8     9    1
    26   118   117    1
    27    50    51    1
    28    25    22    1
    29    33    32    1
    30    33    36    1
    31    32    28   am
    32    10     9    1
    33    10    16   am
    34    29    28    2
    35    23    22    1
    36    23    26   am
    37    21    22    1
    38    21    18   am
    39    28    27    1
    40   138   137    2
    41    37    36    1
    42    13    14    1
    43    13    15    1
    44    13    12    1
    45    36    38    1
    46     9    12    1
    47    17    18    1
    48    17    16    1
    49    17    20    1
    50   137   136    1
    51    51    52    1
    52    51    54    1
    53    27    26    1
    54    27    30    1
    55   117   114    1
    56    18    19    2
    57   156   157    1
    58    97    98    1
    59    93    92    2
    60    60    59    1
    61    96    94    1
    62    52    55   am
    63    52    53    2
    64    98   101    1
    65    98    99    1
    66    59    61    1
    67    59    56    1
    68    55    56    1
    69   139   136    1
    70   139   140    1
    71   136   135    1
    72   114   113    1
    73   114   115    1
    74    30    31    1
    75    92    91    1
    76    56    57    1
    77   157   160    1
    78   157   158    1
    79   160   161    1
    80   159   158    2
    81   173   175   ar
    82   173   172   ar
    83   116   115    2
    84   169   170    2
    85   169   168    1
    86   141   140    1
    87   141   142    1
    88    99   100    2
    89    99   102   am
    90    94    91    1
    91    94    95    1
    92   171   168    1
    93   171   172    1
    94   115   121   am
    95   175   177   ar
    96    91    90    1
    97   144   143    1
    98   168   167    1
    99   172   174   ar
   100    57    58    2
   101    57    62   am
   102   102   103    1
   103   161   163   ar
   104   161   162   ar
   105   121   122    1
   106   142   143    2
   107   143   145    1
   108   177   176   ar
   109   163   165   ar
   110   148   149    2
   111   148   147    1
   112    90    85   am
   113    82    81    1
   114   174   176   ar
   115    86    85    2
   116   162   164   ar
   117    62    63    1
   118   150   147    1
   119   150   151    1
   120   104   103    1
   121   104   105    2
   122   153   151   ar
   123   153   155   ar
   124    85    84    1
   125   103   106    1
   126   122   125    1
   127   122   123    1
   128    81    78    1
   129   147   146    1
   130   151   152   ar
   131    65    64    2
   132   165   166   ar
   133   164   166   ar
   134    80    79    2
   135   106   107    1
   136    63    64    1
   137    63    66    1
   138   155   154   ar
   139   123   124    2
   140    79    78    1
   141    79    83   am
   142    84    83    1
   143    84    87    1
   144   107   108    1
   145    78    77    1
   146   152   154   ar
   147    66    67    1
   148    77    73   am
   149   108   109    1
   150    87    88    1
   151    87    89    1
   152   109   110    2
   153    71    72    1
   154   129   128    2
   155    67    68    1
   156    73    74    2
   157    73    72    1
   158   110   112    1
   159   110   111    1
   160    70    68   am
   161   126   127    1
   162   128   127    1
   163    68    69    2
   164    72    75    1
   165   127   130    1
   166    76    75    1
   167   134   133    1
   168   132   133    1
   169   132   131    1
   170   130   131    1
