@<TRIPOS>MOLECULE
tmp/3pfvA00.pdb
 188 182 0 0 0
SMALL
GASTEIGER

@<TRIPOS>ATOM
      1  N         19.0980   27.3830   29.3120 N.3    27  SER27      -0.1203
      2  CA        17.7760   27.0210   28.8760 C.3    27  SER27       0.2005
      3  C         17.8800   25.5830   28.3970 C.2    27  SER27       0.2460
      4  O         18.7730   25.2550   27.6330 O.2    27  SER27      -0.2732
      5  CB        17.3290   27.9430   27.7360 C.3    27  SER27       0.2103
      6  OG        16.0220   27.6230   27.2750 O.3    27  SER27      -0.2182
      7  N         16.9750   24.7120   28.8500 N.am   28  PRO28      -0.2728
      8  CA        17.0700   23.3510   28.3520 C.3    28  PRO28       0.1401
      9  C         16.9030   23.2760   26.8310 C.2    28  PRO28       0.2269
     10  O         15.9980   23.9030   26.2910 O.2    28  PRO28      -0.2865
     11  CB        15.9290   22.6390   29.0570 C.3    28  PRO28       0.0296
     12  CG        15.5530   23.5270   30.2240 C.3    28  PRO28       0.0237
     13  CD        15.8720   24.8970   29.8080 C.3    28  PRO28       0.0939
     14  N         13.0760   24.7940   22.5270 N.3   223  TYR223     -0.1227
     15  CA        12.2670   25.8910   22.9810 C.3   223  TYR223      0.1736
     16  C         12.7140   27.2110   22.4190 C.2   223  TYR223      0.2595
     17  O         11.9070   27.9410   21.8380 O.2   223  TYR223     -0.2718
     18  CB        12.3010   25.9850   24.5280 C.3   223  TYR223      0.0548
     19  CG        11.2890   26.9990   25.0720 C.ar  223  TYR223     -0.0200
     20  CD1       11.5570   28.3590   25.0600 C.ar  223  TYR223     -0.0009
     21  CD2       10.0490   26.5810   25.5630 C.ar  223  TYR223     -0.0009
     22  CE1       10.6010   29.3110   25.5550 C.ar  223  TYR223      0.0417
     23  CE2        9.1060   27.4840   26.0510 C.ar  223  TYR223      0.0417
     24  CZ         9.3900   28.8510   26.0460 C.ar  223  TYR223      0.1957
     25  OH         8.4730   29.7490   26.5290 O.3   223  TYR223     -0.2866
     26  N         14.0040   27.5150   22.5990 N.am  224  ASP224     -0.1974
     27  CA        14.5640   28.7790   22.0890 C.3   224  ASP224      0.1709
     28  C         14.5220   28.8510   20.5620 C.2   224  ASP224      0.2293
     29  O         14.2400   29.9140   20.0150 O.2   224  ASP224     -0.2864
     30  CB        15.9940   28.9820   22.5700 C.3   224  ASP224      0.1436
     31  CG        16.0910   29.1260   24.0910 C.2   224  ASP224      0.3671
     32  OD1       15.1600   29.6950   24.6980 O.co2 224  ASP224     -0.2456
     33  OD2       17.1060   28.6850   24.6540 O.co2 224  ASP224     -0.2456
     34  N          6.6760   20.2640   18.2070 N.3   243  ARG243     -0.1245
     35  CA         7.8080   19.3910   18.3750 C.3   243  ARG243      0.1563
     36  C          7.7450   18.6860   19.7550 C.2   243  ARG243      0.2260
     37  O          6.9340   18.9870   20.6290 O.2   243  ARG243     -0.2867
     38  CB         9.1070   20.1760   18.3220 C.3   243  ARG243      0.0307
     39  CG         8.9960   21.4220   19.1500 C.3   243  ARG243      0.0489
     40  CD        10.1290   21.7290   19.9840 C.3   243  ARG243      0.2205
     41  NE         9.5930   22.5800   21.0340 N.pl3 243  ARG243     -0.0865
     42  CZ        10.0640   22.6220   22.2560 C.cat 243  ARG243      0.5346
     43  NH1        9.6680   23.2900   23.1660 N.pl3 243  ARG243      0.1354
     44  NH2       11.0030   22.0180   22.6890 N.pl3 243  ARG243      0.1354
     45  N          8.6530   17.8880   23.3480 N.3   245  SER245     -0.1202
     46  CA         9.1240   18.5450   24.5610 C.3   245  SER245      0.2020
     47  C         10.4390   17.9070   24.9920 C.2   245  SER245      0.2619
     48  O         10.5200   16.6850   25.1380 O.2   245  SER245     -0.2717
     49  CB         8.1290   18.3340   25.7000 C.3   245  SER245      0.2103
     50  OG         8.5550   18.9440   26.8850 O.3   245  SER245     -0.2182
     51  N         11.4310   18.7280   25.2760 N.am  246  CYS246     -0.1955
     52  CA        12.7210   18.2600   25.7780 C.3   246  CYS246      0.1843
     53  C         12.6740   17.8860   27.2830 C.2   246  CYS246      0.2626
     54  O         13.2500   16.8790   27.7010 O.2   246  CYS246     -0.2714
     55  CB        13.7640   19.3480   25.5080 C.3   246  CYS246      0.0997
     56  SG        15.2830   19.1240   26.3190 S.3   246  CYS246     -0.0797
     57  N         11.9930   18.6800   28.1090 N.am  247  THR247     -0.1936
     58  CA        11.9740   18.4010   29.5460 C.3   247  THR247      0.2028
     59  C         10.7980   17.5040   29.9440 C.2   247  THR247      0.2642
     60  O         10.6180   17.1900   31.1250 O.2   247  THR247     -0.2714
     61  CB        11.9890   19.7200   30.4150 C.3   247  THR247      0.1808
     62  OG1       10.7290   20.3950   30.3590 O.3   247  THR247     -0.2208
     63  CG2       13.0460   20.6650   29.9300 C.3   247  THR247      0.0379
     64  N          9.9870   17.1010   28.9750 N.am  248  ARG248     -0.1977
     65  CA         8.7930   16.2750   29.2730 C.3   248  ARG248      0.1597
     66  C          8.5890   15.2790   28.1320 C.2   248  ARG248      0.2287
     67  O          7.6170   15.2920   27.3610 O.2   248  ARG248     -0.2864
     68  CB         7.5840   17.1470   29.5090 C.3   248  ARG248      0.0334
     69  CG         7.7820   18.2100   30.6370 C.3   248  ARG248      0.0492
     70  CD         6.6660   19.2150   30.5990 C.3   248  ARG248      0.2205
     71  NE         6.5220   20.0710   31.7750 N.pl3 248  ARG248     -0.0865
     72  CZ         7.2370   21.1810   32.0440 C.cat 248  ARG248      0.5346
     73  NH1        6.9660   21.8890   33.1370 N.pl3 248  ARG248      0.1354
     74  NH2        8.2510   21.5840   31.2720 N.pl3 248  ARG248      0.1354
     75  N          5.2270   19.8980   22.4630 N.3   253  ALA253     -0.1245
     76  CA         5.2020   21.3270   22.7960 C.3   253  ALA253      0.1562
     77  C          4.7460   22.1000   21.5590 C.2   253  ALA253      0.2260
     78  O          5.4140   22.0270   20.5190 O.2   253  ALA253     -0.2867
     79  CB         6.6180   21.8410   23.2200 C.3   253  ALA253      0.0290
     80  N          3.0560   28.9370   19.2390 N.3   256  TYR256     -0.1241
     81  CA         2.1700   29.7070   18.3770 C.3   256  TYR256      0.1605
     82  C          2.3480   31.2100   18.6190 C.2   256  TYR256      0.2264
     83  O          2.7200   31.6400   19.6920 O.2   256  TYR256     -0.2867
     84  CB         0.6750   29.2500   18.5010 C.3   256  TYR256      0.0534
     85  CG         0.0700   29.4790   19.8650 C.ar  256  TYR256     -0.0201
     86  CD1        0.4560   28.6980   20.9480 C.ar  256  TYR256     -0.0009
     87  CD2       -0.8790   30.4770   20.0930 C.ar  256  TYR256     -0.0009
     88  CE1       -0.0700   28.8960   22.2050 C.ar  256  TYR256      0.0417
     89  CE2       -1.3970   30.6910   21.3720 C.ar  256  TYR256      0.0417
     90  CZ        -0.9890   29.8940   22.4050 C.ar  256  TYR256      0.1957
     91  OH        -1.5140   30.0740   23.6580 O.3   256  TYR256     -0.2866
     92  N          3.9570   31.9240   22.4680 N.3   264  LEU264     -0.1231
     93  CA         3.7210   31.0390   23.5930 C.3   264  LEU264      0.1693
     94  C          3.9370   29.6000   23.1470 C.2   264  LEU264      0.2592
     95  O          3.7050   29.2530   21.9970 O.2   264  LEU264     -0.2718
     96  CB         2.2920   31.2010   24.1250 C.3   264  LEU264      0.0284
     97  CG         1.9340   32.6130   24.6130 C.3   264  LEU264      0.0019
     98  CD1        0.5650   32.6240   25.2370 C.3   264  LEU264      0.0001
     99  CD2        2.9580   33.1300   25.6160 C.3   264  LEU264      0.0001
    100  N          4.3480   28.7670   24.0910 N.am  265  GLN265     -0.1966
    101  CA         4.4640   27.3420   23.8750 C.3   265  GLN265      0.1733
    102  C          3.6750   26.5590   24.9390 C.2   265  GLN265      0.2617
    103  O          3.6860   26.8770   26.1260 O.2   265  GLN265     -0.2715
    104  CB         5.9380   26.9470   23.8500 C.3   265  GLN265      0.0408
    105  CG         6.7040   27.6840   22.7340 C.3   265  GLN265      0.0908
    106  CD         8.0970   27.2090   22.5660 C.2   265  GLN265      0.2608
    107  OE1        8.3120   26.0230   22.3600 O.2   265  GLN265     -0.2717
    108  NE2        9.0560   28.1280   22.5790 N.am  265  GLN265     -0.0878
    109  N          2.9830   25.5190   24.4900 N.am  266  THR266     -0.1937
    110  CA         2.0730   24.8050   25.3630 C.3   266  THR266      0.2028
    111  C          2.1670   23.3160   25.1270 C.2   266  THR266      0.2642
    112  O          2.4870   22.8390   24.0290 O.2   266  THR266     -0.2714
    113  CB         0.6250   25.2950   25.1300 C.3   266  THR266      0.1808
    114  OG1       -0.2000   24.8440   26.2030 O.3   266  THR266     -0.2208
    115  CG2        0.0990   24.7880   23.7910 C.3   266  THR266      0.0379
    116  N          1.8990   22.5750   26.1750 N.am  267  ILE267     -0.1963
    117  CA         2.0420   21.1290   26.1490 C.3   267  ILE267      0.1712
    118  C          0.7000   20.4800   26.3970 C.2   267  ILE267      0.2458
    119  O          0.1360   20.6170   27.4550 O.2   267  ILE267     -0.2730
    120  CB         3.0150   20.6280   27.2330 C.3   267  ILE267      0.0289
    121  CG1        4.4130   21.2390   26.9990 C.3   267  ILE267      0.0022
    122  CG2        3.0160   19.0750   27.2290 C.3   267  ILE267      0.0023
    123  CD1        5.4400   20.8720   28.0040 C.3   267  ILE267      0.0001
    124  N          0.1760   19.7830   25.4070 N.am  268  PRO268     -0.2727
    125  CA        -1.0190   18.9640   25.6090 C.3   268  PRO268      0.1402
    126  C         -0.7750   17.8570   26.6420 C.2   268  PRO268      0.2269
    127  O          0.3120   17.2700   26.6610 O.2   268  PRO268     -0.2865
    128  CB        -1.2330   18.3450   24.2290 C.3   268  PRO268      0.0296
    129  CG        -0.4980   19.2220   23.2900 C.3   268  PRO268      0.0237
    130  CD         0.6960   19.6720   24.0440 C.3   268  PRO268      0.0939
    131  N         -5.5410   15.4720   26.0860 N.3   271  LYS271     -0.1245
    132  CA        -5.7220   15.6210   24.6280 C.3   271  LYS271      0.1561
    133  C         -4.5390   15.1420   23.8390 C.2   271  LYS271      0.2260
    134  O         -3.4320   15.6090   24.0720 O.2   271  LYS271     -0.2867
    135  CB        -5.8850   17.0920   24.2490 C.3   271  LYS271      0.0271
    136  CG        -7.2190   17.6740   24.5870 C.3   271  LYS271      0.0035
    137  CD        -7.3450   19.0840   24.0500 C.3   271  LYS271      0.0206
    138  CE        -8.4160   19.8450   24.8110 C.3   271  LYS271      0.1093
    139  NZ        -8.6940   21.1990   24.2100 N.3   271  LYS271     -0.1314
    140  N         -5.7110   18.5810   19.7870 N.3   276  ALA276     -0.1245
    141  CA        -5.1860   19.8700   20.1480 C.3   276  ALA276      0.1562
    142  C         -5.0880   20.7340   18.8970 C.2   276  ALA276      0.2260
    143  O         -5.4870   21.8940   18.9270 O.2   276  ALA276     -0.2867
    144  CB        -3.8020   19.7260   20.8220 C.3   276  ALA276      0.0290
    145  N         -8.6530   21.5430   17.6820 N.3   279  ASP279     -0.1225
    146  CA        -9.2740   22.4880   18.6170 C.3   279  ASP279      0.1805
    147  C         -8.6720   23.8600   18.3680 C.2   279  ASP279      0.2598
    148  O         -9.3840   24.8090   18.0710 O.2   279  ASP279     -0.2718
    149  CB        -9.0750   22.0580   20.0820 C.3   279  ASP279      0.1424
    150  CG       -10.0060   20.9040   20.4970 C.2   279  ASP279      0.3668
    151  OD1      -10.8560   20.4400   19.6910 O.co2 279  ASP279     -0.2456
    152  OD2       -9.8750   20.4370   21.6440 O.co2 279  ASP279     -0.2456
    153  N         -7.3480   23.9420   18.4210 N.am  280  GLY280     -0.1957
    154  CA        -6.6820   25.1950   18.1300 C.3   280  GLY280      0.1869
    155  C         -7.0370   25.8200   16.7940 C.2   280  GLY280      0.2309
    156  O         -7.1430   27.0330   16.6710 O.2   280  GLY280     -0.2863
    157  N        -10.3180   27.6090   16.7490 N.3   283  GLU283     -0.1245
    158  CA       -10.4890   28.7930   17.5920 C.3   283  GLU283      0.1567
    159  C         -9.4860   29.8810   17.2420 C.2   283  GLU283      0.2260
    160  O         -9.3960   30.9200   17.9020 O.2   283  GLU283     -0.2867
    161  CB       -10.5050   28.4010   19.0690 C.3   283  GLU283      0.0388
    162  CG       -11.7800   27.6090   19.3990 C.3   283  GLU283      0.1160
    163  CD       -11.7350   26.9250   20.7520 C.2   283  GLU283      0.3649
    164  OE1      -11.7600   27.6320   21.7880 O.co2 283  GLU283     -0.2457
    165  OE2      -11.7030   25.6710   20.7710 O.co2 283  GLU283     -0.2457
    166  N         -6.1410   29.7930   16.9950 N.3   285  PHE285     -0.1227
    167  CA        -4.7520   29.8080   17.5190 C.3   285  PHE285      0.1736
    168  C         -3.7700   29.0960   16.6270 C.2   285  PHE285      0.2595
    169  O         -2.6180   29.5220   16.5360 O.2   285  PHE285     -0.2718
    170  CB        -4.6990   29.2090   18.9270 C.3   285  PHE285      0.0547
    171  CG        -5.5680   29.9120   19.8950 C.ar  285  PHE285     -0.0202
    172  CD1       -6.7090   29.3070   20.3940 C.ar  285  PHE285     -0.0042
    173  CD2       -5.2800   31.2110   20.2810 C.ar  285  PHE285     -0.0042
    174  CE1       -7.5450   29.9720   21.2850 C.ar  285  PHE285     -0.0003
    175  CE2       -6.1210   31.8970   21.1910 C.ar  285  PHE285     -0.0003
    176  CZ        -7.2530   31.2550   21.6990 C.ar  285  PHE285     -0.0000
    177  N         -4.1790   27.9940   15.9980 N.am  286  TYR286     -0.1976
    178  CA        -3.2600   27.1690   15.1800 C.3   286  TYR286      0.1639
    179  C         -3.7610   27.1370   13.7440 C.2   286  TYR286      0.2290
    180  O         -4.3930   26.1840   13.3240 O.2   286  TYR286     -0.2864
    181  CB        -3.1010   25.7230   15.7110 C.3   286  TYR286      0.0560
    182  CG        -2.8450   25.5920   17.1930 C.ar  286  TYR286     -0.0198
    183  CD1       -2.0420   26.5040   17.8690 C.ar  286  TYR286     -0.0009
    184  CD2       -3.3790   24.5440   17.9270 C.ar  286  TYR286     -0.0009
    185  CE1       -1.8260   26.3900   19.2380 C.ar  286  TYR286      0.0417
    186  CE2       -3.1420   24.4280   19.3240 C.ar  286  TYR286      0.0417
    187  CZ        -2.3790   25.3610   19.9460 C.ar  286  TYR286      0.1957
    188  OH        -2.1230   25.2940   21.2680 O.3   286  TYR286     -0.2866
@<TRIPOS>BOND
     1   180   179    2
     2   179   178    1
     3   178   181    1
     4   178   177    1
     5   181   182    1
     6   177   168   am
     7   169   168    2
     8   168   167    1
     9   156   155    2
    10   157   158    1
    11   155   154    1
    12   166   167    1
    13   182   183   ar
    14   182   184   ar
    15   159   158    1
    16   159   160    2
    17   167   170    1
    18   158   161    1
    19   145   146    1
    20   183   185   ar
    21   184   186   ar
    22   148   147    2
    23   154   153    1
    24    34    35    1
    25    38    35    1
    26    38    39    1
    27   147   153   am
    28   147   146    1
    29    35    36    1
    30    81    84    1
    31    81    82    1
    32    81    80    1
    33    84    85    1
    34   146   149    1
    35    82    83    2
    36   142   143    2
    37   142   141    1
    38   170   171    1
    39   161   162    1
    40    39    40    1
    41   185   187   ar
    42   186   187   ar
    43   162   163    1
    44   151   150   ar
    45    36    37    2
    46   140   141    1
    47    85    87   ar
    48    85    86   ar
    49   171   173   ar
    50   171   172   ar
    51   187   188    1
    52    40    41    1
    53    29    28    2
    54   149   150    1
    55    87    89   ar
    56   141   144    1
    57   173   175   ar
    58   172   174   ar
    59   150   152   ar
    60    78    77    2
    61    28    27    1
    62   163   165   ar
    63   163   164   ar
    64    86    88   ar
    65    41    42    2
    66   175   176   ar
    67   174   176   ar
    68    89    90   ar
    69    77    76    1
    70    17    16    2
    71    95    94    2
    72    27    30    1
    73    27    26    1
    74    88    90   ar
    75    42    44    1
    76    42    43    1
    77   107   106    2
    78    90    91    1
    79    16    26   am
    80    16    15    1
    81    75    76    1
    82    92    93    1
    83    14    15    1
    84   106   108   am
    85   106   105    1
    86    30    31    1
    87   105   104    1
    88    76    79    1
    89    15    18    1
    90    94    93    1
    91    94   100   am
    92   129   130    1
    93   129   128    1
    94    45    46    1
    95    93    96    1
    96   115   113    1
    97   133   134    2
    98   133   132    1
    99   104   101    1
   100   101   100    1
   101   101   102    1
   102   112   111    2
   103   130   124    1
   104   137   136    1
   105   137   138    1
   106    31    33   ar
   107    31    32   ar
   108    96    97    1
   109   139   138    1
   110   128   125    1
   111   135   136    1
   112   135   132    1
   113   109   102   am
   114   109   110    1
   115    18    19    1
   116    46    47    1
   117    46    49    1
   118    97    98    1
   119    97    99    1
   120   132   131    1
   121   102   103    2
   122    47    48    2
   123    47    51   am
   124    20    19   ar
   125    20    22   ar
   126    19    21   ar
   127   111   110    1
   128   111   116   am
   129   113   110    1
   130   113   114    1
   131    51    52    1
   132   124   125    1
   133   124   118   am
   134    55    52    1
   135    55    56    1
   136    22    24   ar
   137    21    23   ar
   138   125   126    1
   139    49    50    1
   140    52    53    1
   141    24    23   ar
   142    24    25    1
   143   117   116    1
   144   117   118    1
   145   117   120    1
   146    10     9    2
   147   118   119    2
   148   126   127    2
   149     9     8    1
   150   121   120    1
   151   121   123    1
   152   122   120    1
   153     6     5    1
   154    53    54    2
   155    53    57   am
   156    67    66    2
   157     4     3    2
   158     5     2    1
   159    57    58    1
   160    66    65    1
   161     8     7    1
   162     8    11    1
   163     3     7   am
   164     3     2    1
   165     7    13    1
   166     2     1    1
   167    64    65    1
   168    64    59   am
   169    11    12    1
   170    65    68    1
   171    68    69    1
   172    58    59    1
   173    58    61    1
   174    13    12    1
   175    63    61    1
   176    59    60    2
   177    62    61    1
   178    70    69    1
   179    70    71    1
   180    74    72    1
   181    71    72    2
   182    72    73    1
