@<TRIPOS>MOLECULE
tmp/3pfxA00.pdb
 91 90 0 0 0
SMALL
GASTEIGER

@<TRIPOS>ATOM
      1  N         -7.1510   14.9270    3.8260 N.3   265  GLY265     -0.1210
      2  CA        -5.9660   14.1690    4.1780 C.3   265  GLY265      0.1956
      3  C         -5.9710   12.7210    3.7560 C.2   265  GLY265      0.2612
      4  O         -5.1270   11.9650    4.2300 O.2   265  GLY265     -0.2717
      5  N         -6.8720   12.2980    2.8780 N.am  266  ASN266     -0.1960
      6  CA        -6.8670   10.9240    2.3610 C.3   266  ASN266      0.1819
      7  C         -6.8600   10.9790    0.8430 C.2   266  ASN266      0.2622
      8  O         -7.9100   11.1240    0.2040 O.2   266  ASN266     -0.2715
      9  CB        -8.0500   10.1270    2.9010 C.3   266  ASN266      0.1195
     10  CG        -7.9640    8.6590    2.5560 C.2   266  ASN266      0.2630
     11  OD1       -7.5310    8.2750    1.4580 O.2   266  ASN266     -0.2716
     12  ND2       -8.3650    7.8180    3.5090 N.am  266  ASN266     -0.0877
     13  N         -5.6720   10.9340    0.2640 N.am  267  THR267     -0.1937
     14  CA        -5.5300   11.0650   -1.1840 C.3   267  THR267      0.2028
     15  C         -5.7920    9.7480   -1.8930 C.2   267  THR267      0.2643
     16  O         -5.9380    9.7340   -3.1160 O.2   267  THR267     -0.2714
     17  CB        -4.1190   11.5550   -1.5600 C.3   267  THR267      0.1808
     18  OG1       -3.1530   10.5740   -1.1620 O.3   267  THR267     -0.2208
     19  CG2       -3.7830   12.8570   -0.8910 C.3   267  THR267      0.0379
     20  N         -5.8720    8.6400   -1.1820 N.am  268  SER268     -0.1935
     21  CA        -6.0650    7.3690   -1.8630 C.3   268  SER268      0.2055
     22  C         -7.5290    6.9700   -1.9740 C.2   268  SER268      0.2643
     23  O         -7.8400    5.9410   -2.5630 O.2   268  SER268     -0.2714
     24  CB        -5.3150    6.2560   -1.1500 C.3   268  SER268      0.2130
     25  OG        -5.8670    6.0400    0.1300 O.3   268  SER268     -0.2179
     26  N         -8.4340    7.7830   -1.4530 N.am  269  PHE269     -0.1973
     27  CA        -9.8280    7.4050   -1.4240 C.3   269  PHE269      0.1639
     28  C        -10.5380    7.5190   -2.7740 C.2   269  PHE269      0.2290
     29  O        -11.2410    6.5830   -3.1600 O.2   269  PHE269     -0.2864
     30  CB       -10.5990    8.1860   -0.3510 C.3   269  PHE269      0.0560
     31  CG       -12.0100    7.7400   -0.2390 C.ar  269  PHE269     -0.0200
     32  CD1      -12.3100    6.5220    0.3360 C.ar  269  PHE269     -0.0042
     33  CD2      -13.0490    8.4980   -0.7640 C.ar  269  PHE269     -0.0042
     34  CE1      -13.6190    6.0800    0.3870 C.ar  269  PHE269     -0.0003
     35  CE2      -14.3420    8.0540   -0.7030 C.ar  269  PHE269     -0.0003
     36  CZ       -14.6310    6.8570   -0.1410 C.ar  269  PHE269     -0.0000
     37  N        -10.0180    3.9130   -4.2200 N.3   275  ILE275     -0.1245
     38  CA       -11.0140    3.1110   -3.5160 C.3   275  ILE275      0.1561
     39  C        -12.3930    3.3040   -4.1430 C.2   275  ILE275      0.2260
     40  O        -13.1270    2.3370   -4.3500 O.2   275  ILE275     -0.2867
     41  CB       -10.9850    3.4270   -2.0080 C.3   275  ILE275      0.0252
     42  CG1       -9.6860    2.8750   -1.4030 C.3   275  ILE275      0.0019
     43  CG2      -12.2150    2.8790   -1.3180 C.3   275  ILE275      0.0019
     44  CD1       -9.4390    3.3020    0.0010 C.3   275  ILE275      0.0001
     45  N        -19.4860    1.9780    0.7830 N.3   313  ILE313     -0.1231
     46  CA       -18.2380    2.5120    1.3150 C.3   313  ILE313      0.1678
     47  C        -18.5150    3.8710    1.9520 C.2   313  ILE313      0.2434
     48  O        -18.8600    4.8230    1.2480 O.2   313  ILE313     -0.2733
     49  CB       -17.1980    2.6230    0.1970 C.3   313  ILE313      0.0265
     50  CG1      -16.9290    1.2380   -0.4140 C.3   313  ILE313      0.0019
     51  CG2      -15.9100    3.2600    0.7230 C.3   313  ILE313      0.0020
     52  CD1      -16.0620    1.2500   -1.6440 C.3   313  ILE313      0.0001
     53  N        -18.3960    3.9950    3.2790 N.am  314  PRO314     -0.2718
     54  CA       -18.5640    5.3120    3.9010 C.3   314  PRO314      0.1535
     55  C        -17.4640    6.2800    3.4890 C.2   314  PRO314      0.2598
     56  O        -16.3540    5.8960    3.1630 O.2   314  PRO314     -0.2715
     57  CB       -18.4570    5.0160    5.4000 C.3   314  PRO314      0.0310
     58  CG       -18.6930    3.5250    5.5360 C.3   314  PRO314      0.0237
     59  CD       -18.1470    2.9360    4.2750 C.3   314  PRO314      0.0939
     60  N        -17.7840    7.5640    3.5320 N.am  315  GLN315     -0.1964
     61  CA       -16.7780    8.6130    3.4360 C.3   315  GLN315      0.1718
     62  C        -15.6230    8.3050    4.3830 C.2   315  GLN315      0.2458
     63  O        -15.8620    7.8900    5.5110 O.2   315  GLN315     -0.2730
     64  CB       -17.4270    9.9310    3.8520 C.3   315  GLN315      0.0407
     65  CG       -16.5870   11.1930    3.6540 C.3   315  GLN315      0.0908
     66  CD       -16.6770   11.7250    2.2530 C.2   315  GLN315      0.2608
     67  OE1      -16.1320   11.1430    1.3270 O.2   315  GLN315     -0.2717
     68  NE2      -17.3660   12.8330    2.0880 N.am  315  GLN315     -0.0878
     69  N        -14.3750    8.5420    3.9540 N.am  316  PRO316     -0.2716
     70  CA       -13.2670    8.3480    4.8980 C.3   316  PRO316      0.1536
     71  C        -13.2890    9.3980    5.9900 C.2   316  PRO316      0.2598
     72  O        -13.7940   10.5080    5.8380 O.2   316  PRO316     -0.2715
     73  CB       -12.0320    8.5470    4.0240 C.3   316  PRO316      0.0310
     74  CG       -12.5080    9.4850    2.9280 C.3   316  PRO316      0.0237
     75  CD       -13.9210    9.0340    2.6500 C.3   316  PRO316      0.0939
     76  N        -12.6440    9.0670    7.1050 N.am  317  ASN317     -0.1973
     77  CA       -12.4110   10.0490    8.1510 C.3   317  ASN317      0.1688
     78  C        -11.4480   11.1360    7.7140 C.2   317  ASN317      0.2292
     79  O        -10.5020   10.9040    6.9620 O.2   317  ASN317     -0.2864
     80  CB       -11.8400    9.3910    9.4000 C.3   317  ASN317      0.1181
     81  CG       -12.8640    8.6160   10.1510 C.2   317  ASN317      0.2629
     82  OD1      -14.0680    8.8490   10.0400 O.2   317  ASN317     -0.2716
     83  ND2      -12.3960    7.6790   10.9780 N.am  317  ASN317     -0.0877
     84  N         -8.2170   13.0720    8.1580 N.3   319  ASP319     -0.1239
     85  CA        -6.8890   12.8240    8.6900 C.3   319  ASP319      0.1674
     86  C         -6.1420   14.1390    8.8700 C.2   319  ASP319      0.2266
     87  O         -4.9290   14.1940    8.7140 O.2   319  ASP319     -0.2867
     88  CB        -6.1240   11.8300    7.7980 C.3   319  ASP319      0.1410
     89  CG        -4.9470   11.1940    8.5070 C.2   319  ASP319      0.3668
     90  OD1       -4.9930   11.0720    9.7440 O.co2 319  ASP319     -0.2456
     91  OD2       -4.0080   10.7930    7.8060 O.co2 319  ASP319     -0.2456
@<TRIPOS>BOND
     1    40    39    2
     2    37    38    1
     3    39    38    1
     4    38    41    1
     5    29    28    2
     6    16    15    2
     7    28    27    1
     8    23    22    2
     9    41    42    1
    10    41    43    1
    11    22    21    1
    12    22    26   am
    13    15    14    1
    14    15    20   am
    15    21    20    1
    16    21    24    1
    17    52    50    1
    18    17    14    1
    19    17    18    1
    20    17    19    1
    21    26    27    1
    22    27    30    1
    23    42    44    1
    24    14    13    1
    25    24    25    1
    26    33    35   ar
    27    33    31   ar
    28    35    36   ar
    29    50    49    1
    30    30    31    1
    31    31    32   ar
    32    36    34   ar
    33    49    51    1
    34    49    46    1
    35     8     7    2
    36    13     7   am
    37    32    34   ar
    38    45    46    1
    39     7     6    1
    40    48    47    2
    41    46    47    1
    42    67    66    2
    43    11    10    2
    44    47    53   am
    45    68    66   am
    46    66    65    1
    47     6     5    1
    48     6     9    1
    49    10     9    1
    50    10    12   am
    51    75    74    1
    52    75    69    1
    53     5     3   am
    54    74    73    1
    55    56    55    2
    56    53    54    1
    57    53    59    1
    58    61    60    1
    59    61    64    1
    60    61    62    1
    61    55    60   am
    62    55    54    1
    63    65    64    1
    64     3     2    1
    65     3     4    2
    66     1     2    1
    67    54    57    1
    68    69    62   am
    69    69    70    1
    70    73    70    1
    71    59    58    1
    72    62    63    2
    73    70    71    1
    74    57    58    1
    75    72    71    2
    76    71    76   am
    77    79    78    2
    78    76    77    1
    79    78    77    1
    80    88    89    1
    81    88    85    1
    82    91    89   ar
    83    77    80    1
    84    84    85    1
    85    89    90   ar
    86    85    86    1
    87    87    86    2
    88    80    81    1
    89    82    81    2
    90    81    83   am
