@<TRIPOS>MOLECULE
tmp/3pfxA02.pdb
 209 199 0 0 0
SMALL
GASTEIGER

@<TRIPOS>ATOM
      1  N        -23.2490   32.2300   -4.2200 N.3   171  GLN171     -0.1245
      2  CA       -22.3640   33.2410   -4.7780 C.3   171  GLN171      0.1566
      3  C        -23.0820   34.5430   -5.0980 C.2   171  GLN171      0.2260
      4  O        -22.4380   35.4960   -5.5490 O.2   171  GLN171     -0.2867
      5  CB       -21.6540   32.7460   -6.0470 C.3   171  GLN171      0.0367
      6  CG       -20.8810   31.4730   -5.8490 C.3   171  GLN171      0.0905
      7  CD       -19.7920   31.5850   -4.8060 C.2   171  GLN171      0.2608
      8  OE1      -19.1130   32.6110   -4.7030 O.2   171  GLN171     -0.2717
      9  NE2      -19.6060   30.5320   -4.0510 N.am  171  GLN171     -0.0878
     10  N        -27.4810   27.1950   -0.6650 N.3   208  GLU208     -0.1245
     11  CA       -27.0250   26.2310   -1.6500 C.3   208  GLU208      0.1567
     12  C        -26.4640   25.0230   -0.9370 C.2   208  GLU208      0.2260
     13  O        -25.5530   25.1650   -0.1100 O.2   208  GLU208     -0.2867
     14  CB       -25.9280   26.8950   -2.5050 C.3   208  GLU208      0.0388
     15  CG       -25.2860   26.0170   -3.5250 C.3   208  GLU208      0.1160
     16  CD       -24.2750   26.7390   -4.3910 C.2   208  GLU208      0.3649
     17  OE1      -24.0260   27.9630   -4.2090 O.co2 208  GLU208     -0.2457
     18  OE2      -23.7840   26.0690   -5.3260 O.co2 208  GLU208     -0.2457
     19  N        -24.4150   22.0290   -1.8820 N.3   210  ASP210     -0.1239
     20  CA       -23.6140   21.4260   -2.9500 C.3   210  ASP210      0.1674
     21  C        -23.3700   19.9620   -2.6260 C.2   210  ASP210      0.2266
     22  O        -22.3560   19.5730   -2.0480 O.2   210  ASP210     -0.2867
     23  CB       -22.3160   22.1810   -3.1980 C.3   210  ASP210      0.1410
     24  CG       -22.5460   23.5500   -3.7560 C.2   210  ASP210      0.3668
     25  OD1      -23.3190   23.6400   -4.7700 O.co2 210  ASP210     -0.2456
     26  OD2      -22.0130   24.5350   -3.2430 O.co2 210  ASP210     -0.2456
     27  N        -19.8260   18.3330   -6.2160 N.3   213  GLU213     -0.1245
     28  CA       -18.9980   19.0990   -7.1500 C.3   213  GLU213      0.1567
     29  C        -17.7840   18.2300   -7.3940 C.2   213  GLU213      0.2260
     30  O        -17.0870   17.8680   -6.4460 O.2   213  GLU213     -0.2867
     31  CB       -18.6160   20.4350   -6.5610 C.3   213  GLU213      0.0388
     32  CG       -19.8200   21.3740   -6.4690 C.3   213  GLU213      0.1160
     33  CD       -19.4420   22.7200   -5.9710 C.2   213  GLU213      0.3649
     34  OE1      -19.3180   22.9050   -4.7420 O.co2 213  GLU213     -0.2457
     35  OE2      -19.2100   23.6110   -6.8200 O.co2 213  GLU213     -0.2457
     36  N        -20.6050   20.3190    0.1370 N.3   222  THR222     -0.1218
     37  CA       -20.4840   21.6290    0.7640 C.3   222  THR222      0.1862
     38  C        -21.8340   22.3390    0.9440 C.2   222  THR222      0.2287
     39  O        -22.3790   22.8550   -0.0300 O.2   222  THR222     -0.2866
     40  CB       -19.6060   22.5590   -0.0900 C.3   222  THR222      0.1770
     41  OG1      -18.4050   21.8880   -0.5080 O.3   222  THR222     -0.2211
     42  CG2      -19.2160   23.7750    0.6920 C.3   222  THR222      0.0375
     43  N        -23.7680   25.7530    1.9790 N.3   224  HIS224     -0.1241
     44  CA       -23.5170   27.1880    2.0260 C.3   224  HIS224      0.1621
     45  C        -24.7870   27.8960    2.5180 C.2   224  HIS224      0.2264
     46  O        -25.7550   28.0090    1.7630 O.2   224  HIS224     -0.2867
     47  CB       -23.2370   27.7930    0.6540 C.3   224  HIS224      0.0745
     48  CG       -22.0160   27.3050   -0.0730 C.ar  224  HIS224      0.0817
     49  ND1      -20.9460   28.1330   -0.3170 N.ar  224  HIS224     -0.2268
     50  CD2      -21.7410   26.1460   -0.7160 C.ar  224  HIS224      0.1154
     51  CE1      -20.0610   27.5130   -1.0840 C.ar  224  HIS224      0.1986
     52  NE2      -20.5140   26.2950   -1.3260 N.ar  224  HIS224     -0.2212
     53  N        -18.2080   35.3950   -5.4490 N.3   242  THR242     -0.1218
     54  CA       -16.9470   35.3230   -6.1630 C.3   242  THR242      0.1862
     55  C        -16.6720   36.5190   -7.0680 C.2   242  THR242      0.2287
     56  O        -15.5270   36.9960   -7.1090 O.2   242  THR242     -0.2866
     57  CB       -16.8370   34.0060   -6.9410 C.3   242  THR242      0.1770
     58  OG1      -16.6500   32.9390   -6.0090 O.3   242  THR242     -0.2211
     59  CG2      -15.6530   34.0280   -7.8870 C.3   242  THR242      0.0375
     60  N        -15.5700   38.8860   -1.7140 N.3   247  ARG247     -0.1231
     61  CA       -16.4870   37.7560   -1.6870 C.3   247  ARG247      0.1694
     62  C        -17.2360   37.6730   -0.3600 C.2   247  ARG247      0.2592
     63  O        -18.2740   37.0380   -0.3260 O.2   247  ARG247     -0.2718
     64  CB       -15.7440   36.4370   -1.9880 C.3   247  ARG247      0.0321
     65  CG       -14.7750   36.0210   -0.8990 C.3   247  ARG247      0.0489
     66  CD       -13.8410   34.8700   -1.2960 C.3   247  ARG247      0.2205
     67  NE       -14.4600   33.5500   -1.4380 N.pl3 247  ARG247     -0.0865
     68  CZ       -14.8110   32.9850   -2.5850 C.cat 247  ARG247      0.5346
     69  NH1      -14.6530   33.6070   -3.7440 N.pl3 247  ARG247      0.1354
     70  NH2      -15.3430   31.7810   -2.5810 N.pl3 247  ARG247      0.1354
     71  N        -16.6990   38.2900    0.6990 N.am  248  TYR248     -0.1976
     72  CA       -17.3080   38.2490    2.0380 C.3   248  TYR248      0.1639
     73  C        -18.1580   39.4800    2.3890 C.2   248  TYR248      0.2290
     74  O        -18.5490   39.6400    3.5270 O.2   248  TYR248     -0.2864
     75  CB       -16.2550   38.0160    3.1380 C.3   248  TYR248      0.0560
     76  CG       -15.4060   36.7960    2.8640 C.ar  248  TYR248     -0.0198
     77  CD1      -15.9390   35.5140    2.9120 C.ar  248  TYR248     -0.0009
     78  CD2      -14.0660   36.9410    2.5200 C.ar  248  TYR248     -0.0009
     79  CE1      -15.1650   34.4150    2.6370 C.ar  248  TYR248      0.0417
     80  CE2      -13.2800   35.8510    2.2380 C.ar  248  TYR248      0.0417
     81  CZ       -13.8290   34.5860    2.3040 C.ar  248  TYR248      0.1957
     82  OH       -13.0350   33.5110    2.0050 O.3   248  TYR248     -0.2866
     83  N        -19.7430   32.3020    0.7070 N.3   254  PRO254     -0.2102
     84  CA       -19.2940   31.8620   -0.6150 C.3   254  PRO254      0.1504
     85  C        -18.3800   30.6400   -0.5550 C.2   254  PRO254      0.2575
     86  O        -18.0700   30.0610   -1.5910 O.2   254  PRO254     -0.2718
     87  CB       -18.5030   33.0740   -1.1040 C.3   254  PRO254      0.0282
     88  CG       -17.8900   33.6170    0.1380 C.3   254  PRO254      0.0208
     89  CD       -18.9700   33.4590    1.2000 C.3   254  PRO254      0.0893
     90  N        -17.9030   30.2960    0.6320 N.am  255  ASP255     -0.1974
     91  CA       -16.9050   29.2220    0.7670 C.3   255  ASP255      0.1708
     92  C        -17.5540   27.9070    1.1950 C.2   255  ASP255      0.2293
     93  O        -17.2200   26.8290    0.6790 O.2   255  ASP255     -0.2864
     94  CB       -15.8050   29.5910    1.7660 C.3   255  ASP255      0.1436
     95  CG       -14.9570   30.7480    1.3320 C.2   255  ASP255      0.3671
     96  OD1      -15.0380   31.2210    0.1880 O.co2 255  ASP255     -0.2456
     97  OD2      -14.1750   31.2080    2.2020 O.co2 255  ASP255     -0.2456
     98  N        -16.9070   22.5620    3.5760 N.3   258  ASP258     -0.1239
     99  CA       -16.6530   21.5330    2.5830 C.3   258  ASP258      0.1674
    100  C        -15.9900   20.2920    3.1460 C.2   258  ASP258      0.2266
    101  O        -15.1290   20.3710    4.0410 O.2   258  ASP258     -0.2867
    102  CB       -15.7660   22.0800    1.4520 C.3   258  ASP258      0.1410
    103  CG       -14.4180   22.5620    1.9510 C.2   258  ASP258      0.3668
    104  OD1      -14.3850   23.4730    2.8060 O.co2 258  ASP258     -0.2456
    105  OD2      -13.3720   22.0450    1.4820 O.co2 258  ASP258     -0.2456
    106  N         -8.5920   16.8180    0.3060 N.3   263  ARG263     -0.1245
    107  CA        -8.2780   17.9830    1.1260 C.3   263  ARG263      0.1563
    108  C         -8.2740   17.6110    2.6100 C.2   263  ARG263      0.2260
    109  O         -7.5410   18.2180    3.4020 O.2   263  ARG263     -0.2867
    110  CB        -9.2810   19.1160    0.8700 C.3   263  ARG263      0.0307
    111  CG        -8.8230   20.4560    1.4210 C.3   263  ARG263      0.0489
    112  CD        -9.8860   21.5460    1.2150 C.3   263  ARG263      0.2205
    113  NE        -9.3310   22.8260    1.6170 N.pl3 263  ARG263     -0.0865
    114  CZ        -9.9630   23.7780    2.2710 C.cat 263  ARG263      0.5346
    115  NH1      -11.2570   23.6960    2.5240 N.pl3 263  ARG263      0.1354
    116  NH2       -9.2700   24.8410    2.6510 N.pl3 263  ARG263      0.1354
    117  N        -12.3210   24.9940    9.7060 N.3   337  LYS337     -0.1245
    118  CA       -11.9220   26.3570    9.3820 C.3   337  LYS337      0.1561
    119  C        -10.7030   26.7710   10.2260 C.2   337  LYS337      0.2260
    120  O         -9.7780   27.4210    9.7200 O.2   337  LYS337     -0.2867
    121  CB       -13.0760   27.3270    9.5810 C.3   337  LYS337      0.0271
    122  CG       -14.2730   27.0910    8.6710 C.3   337  LYS337      0.0035
    123  CD       -13.9580   27.3750    7.2150 C.3   337  LYS337      0.0206
    124  CE       -15.1020   27.0310    6.2950 C.3   337  LYS337      0.1093
    125  NZ       -14.7090   27.2170    4.8650 N.3   337  LYS337     -0.1314
    126  N         -8.9570   29.2420    7.4310 N.3   342  ASP342     -0.1239
    127  CA        -9.9300   29.8660    6.5460 C.3   342  ASP342      0.1674
    128  C        -10.9640   30.6090    7.3790 C.2   342  ASP342      0.2266
    129  O        -11.3540   30.1450    8.4420 O.2   342  ASP342     -0.2867
    130  CB       -10.6510   28.7930    5.7080 C.3   342  ASP342      0.1410
    131  CG        -9.7600   28.1120    4.6890 C.2   342  ASP342      0.3668
    132  OD1       -8.5900   28.5010    4.4690 O.co2 342  ASP342     -0.2456
    133  OD2      -10.2590   27.1550    4.0530 O.co2 342  ASP342     -0.2456
    134  N        -19.5370   22.7340  -15.8410 N.3   370  TRP370     -0.1241
    135  CA       -18.9200   24.0400  -16.0400 C.3   370  TRP370      0.1605
    136  C        -17.4100   23.9970  -15.8920 C.2   370  TRP370      0.2264
    137  O        -16.8500   23.0770  -15.2810 O.2   370  TRP370     -0.2867
    138  CB       -19.5260   25.0840  -15.0930 C.3   370  TRP370      0.0550
    139  CG       -19.4300   24.8310  -13.5990 C.ar  370  TRP370      0.0003
    140  CD1      -20.1510   23.9370  -12.8630 C.ar  370  TRP370      0.0946
    141  CD2      -18.6390   25.5680  -12.6690 C.ar  370  TRP370      0.0152
    142  NE1      -19.8170   24.0470  -11.5250 N.ar  370  TRP370     -0.2442
    143  CE2      -18.9020   25.0570  -11.3890 C.ar  370  TRP370      0.0810
    144  CE3      -17.7400   26.6290  -12.7920 C.ar  370  TRP370      0.0012
    145  CZ2      -18.2860   25.5720  -10.2390 C.ar  370  TRP370      0.0191
    146  CZ3      -17.1490   27.1430  -11.6490 C.ar  370  TRP370      0.0001
    147  CH2      -17.4100   26.6060  -10.4010 C.ar  370  TRP370      0.0015
    148  N        -14.2090   27.0810  -14.9780 N.3   372  ASP372     -0.1239
    149  CA       -14.1560   28.1250  -13.9570 C.3   372  ASP372      0.1674
    150  C        -13.3000   29.2930  -14.4280 C.2   372  ASP372      0.2266
    151  O        -12.0700   29.2460  -14.4370 O.2   372  ASP372     -0.2867
    152  CB       -13.5850   27.4890  -12.6840 C.3   372  ASP372      0.1410
    153  CG       -13.4450   28.4500  -11.5140 C.2   372  ASP372      0.3668
    154  OD1      -12.9510   27.9770  -10.4640 O.co2 372  ASP372     -0.2456
    155  OD2      -13.7910   29.6500  -11.6300 O.co2 372  ASP372     -0.2456
    156  N        -12.9930   32.1100  -12.9690 N.3   374  ALA374     -0.1231
    157  CA       -12.3970   32.8390  -11.8480 C.3   374  ALA374      0.1694
    158  C        -11.1430   32.1830  -11.2890 C.2   374  ALA374      0.2591
    159  O        -10.1390   32.8450  -11.0260 O.2   374  ALA374     -0.2718
    160  CB       -13.4290   32.9950  -10.7390 C.3   374  ALA374      0.0304
    161  N        -11.2000   30.8710  -11.0790 N.am  375  ALA375     -0.1980
    162  CA       -10.1540   30.1720  -10.3240 C.3   375  ALA375      0.1597
    163  C         -9.7740   28.7970  -10.9090 C.2   375  ALA375      0.2287
    164  O         -9.0970   28.0360  -10.2400 O.2   375  ALA375     -0.2864
    165  CB       -10.5480   30.0420   -8.8350 C.3   375  ALA375      0.0319
    166  N         -9.4830   25.1950   -6.6420 N.3   379  TRP379     -0.1241
    167  CA       -10.0280   24.9980   -5.3110 C.3   379  TRP379      0.1605
    168  C        -10.5750   23.5970   -5.1110 C.2   379  TRP379      0.2264
    169  O        -10.6650   23.1210   -3.9940 O.2   379  TRP379     -0.2867
    170  CB       -11.1070   26.0660   -5.0460 C.3   379  TRP379      0.0550
    171  CG       -12.2120   26.0220   -6.0640 C.ar  379  TRP379      0.0003
    172  CD1      -12.2870   26.7230   -7.2340 C.ar  379  TRP379      0.0946
    173  CD2      -13.3730   25.1880   -6.0140 C.ar  379  TRP379      0.0152
    174  NE1      -13.4340   26.3730   -7.9180 N.ar  379  TRP379     -0.2442
    175  CE2      -14.1220   25.4420   -7.1860 C.ar  379  TRP379      0.0810
    176  CE3      -13.8630   24.2730   -5.0750 C.ar  379  TRP379      0.0012
    177  CZ2      -15.3270   24.7960   -7.4450 C.ar  379  TRP379      0.0191
    178  CZ3      -15.0760   23.6500   -5.3270 C.ar  379  TRP379      0.0001
    179  CH2      -15.7800   23.9060   -6.5110 C.ar  379  TRP379      0.0015
    180  N         -4.3060   25.2480   -3.7200 N.3   384  TYR384     -0.1228
    181  CA        -4.9650   26.5360   -3.7810 C.3   384  TYR384      0.1721
    182  C         -4.9590   27.1920   -2.4160 C.2   384  TYR384      0.2437
    183  O         -5.3070   26.5350   -1.4250 O.2   384  TYR384     -0.2733
    184  CB        -6.3980   26.3330   -4.2480 C.3   384  TYR384      0.0547
    185  CG        -7.1090   27.6170   -4.5790 C.ar  384  TYR384     -0.0200
    186  CD1       -6.8260   28.3090   -5.7450 C.ar  384  TYR384     -0.0009
    187  CD2       -8.0760   28.1210   -3.7410 C.ar  384  TYR384     -0.0009
    188  CE1       -7.4880   29.4930   -6.0560 C.ar  384  TYR384      0.0417
    189  CE2       -8.7450   29.2920   -4.0490 C.ar  384  TYR384      0.0417
    190  CZ        -8.4430   29.9510   -5.2110 C.ar  384  TYR384      0.1957
    191  OH        -9.1090   31.1210   -5.5280 O.3   384  TYR384     -0.2866
    192  N         -4.5900   28.4790   -2.3490 N.am  385  PRO385     -0.2729
    193  CA        -4.0650   29.3070   -3.4170 C.3   385  PRO385      0.1401
    194  C         -2.7550   28.7710   -3.9440 C.2   385  PRO385      0.2269
    195  O         -2.0690   27.9930   -3.2850 O.2   385  PRO385     -0.2865
    196  CB        -3.8500   30.6710   -2.7290 C.3   385  PRO385      0.0296
    197  CG        -4.6770   30.6050   -1.4760 C.3   385  PRO385      0.0237
    198  CD        -4.6320   29.2000   -1.0650 C.3   385  PRO385      0.0939
    199  N         -5.9250   19.9530   -2.7310 N.3   397  ARG397     -0.1245
    200  CA        -7.2980   19.4630   -2.9290 C.3   397  ARG397      0.1563
    201  C         -7.4050   18.3600   -3.9700 C.2   397  ARG397      0.2260
    202  O         -8.4190   17.6720   -4.0200 O.2   397  ARG397     -0.2867
    203  CB        -8.2540   20.6060   -3.2550 C.3   397  ARG397      0.0307
    204  CG        -8.2620   21.7000   -2.1830 C.3   397  ARG397      0.0489
    205  CD        -7.6650   22.9930   -2.7150 C.3   397  ARG397      0.2205
    206  NE        -7.5130   24.0230   -1.6850 N.pl3 397  ARG397     -0.0865
    207  CZ        -8.4770   24.8160   -1.2440 C.cat 397  ARG397      0.5346
    208  NH1       -9.6900   24.7450   -1.7320 N.pl3 397  ARG397      0.1354
    209  NH2       -8.2120   25.7200   -0.3090 N.pl3 397  ARG397      0.1354
@<TRIPOS>BOND
     1   135   136    1
     2   135   134    1
     3   135   138    1
     4   136   137    2
     5   138   139    1
     6   148   149    1
     7   151   150    2
     8   150   149    1
     9   149   152    1
    10   139   140   ar
    11   139   141   ar
    12   156   157    1
    13   140   142   ar
    14   144   141   ar
    15   144   146   ar
    16   152   153    1
    17   141   143   ar
    18   157   158    1
    19   157   160    1
    20   146   147   ar
    21   155   153   ar
    22   142   143   ar
    23   153   154   ar
    24   143   145   ar
    25   158   161   am
    26   158   159    2
    27   161   162    1
    28   163   162    1
    29   163   164    2
    30   147   145   ar
    31   162   165    1
    32   174   172   ar
    33   174   175   ar
    34    59    57    1
    35   177   175   ar
    36   177   179   ar
    37    29    28    1
    38    29    30    2
    39   172   171   ar
    40   175   173   ar
    41    28    31    1
    42    28    27    1
    43    56    55    2
    44    55    54    1
    45    57    54    1
    46    57    58    1
    47    35    33   ar
    48   166   167    1
    49    31    32    1
    50   179   178   ar
    51    32    33    1
    52    54    53    1
    53   171   173   ar
    54   171   170    1
    55   188   186   ar
    56   188   190   ar
    57     5     6    1
    58     5     2    1
    59   173   176   ar
    60    33    34   ar
    61     6     7    1
    62   186   185   ar
    63     4     3    2
    64   191   190    1
    65   178   176   ar
    66    18    16   ar
    67   167   168    1
    68   167   170    1
    69   190   189   ar
    70   168   169    2
    71     3     2    1
    72     7     8    2
    73     7     9   am
    74     2     1    1
    75    25    24   ar
    76   185   184    1
    77   185   187   ar
    78    16    17   ar
    79    16    15    1
    80   184   181    1
    81   189   187   ar
    82   202   201    2
    83   201   200    1
    84   194   193    1
    85   194   195    2
    86   181   180    1
    87   181   182    1
    88    24    26   ar
    89    24    23    1
    90    69    68    1
    91    15    14    1
    92   193   196    1
    93   193   192    1
    94   203   200    1
    95   203   204    1
    96    23    20    1
    97    20    21    1
    98    20    19    1
    99   200   199    1
   100   196   197    1
   101   205   204    1
   102   205   206    1
   103    21    22    2
   104    68    70    1
   105    68    67    2
   106    14    11    1
   107   182   192   am
   108   182   183    2
   109   192   198    1
   110    64    61    1
   111    64    65    1
   112   208   207    1
   113    60    61    1
   114    61    62    1
   115   206   207    2
   116    11    12    1
   117    11    10    1
   118    86    85    2
   119   197   198    1
   120    67    66    1
   121    52    51   ar
   122    52    50   ar
   123    66    65    1
   124   207   209    1
   125    87    84    1
   126    87    88    1
   127    51    49   ar
   128    12    13    2
   129    50    48   ar
   130    84    85    1
   131    84    83    1
   132    85    90   am
   133    41    40    1
   134    62    63    2
   135    62    71   am
   136    49    48   ar
   137    40    42    1
   138    40    37    1
   139    48    47    1
   140    39    38    2
   141    36    37    1
   142    88    89    1
   143    96    95   ar
   144   106   107    1
   145    90    91    1
   146    47    44    1
   147    93    92    2
   148    71    72    1
   149    83    89    1
   150    37    38    1
   151    91    92    1
   152    91    94    1
   153   110   107    1
   154   110   111    1
   155   107   108    1
   156   112   111    1
   157   112   113    1
   158    95    94    1
   159    95    97   ar
   160   102   103    1
   161   102    99    1
   162   105   103   ar
   163   113   114    2
   164    46    45    2
   165   103   104   ar
   166    43    44    1
   167    82    81    1
   168    44    45    1
   169    72    73    1
   170    72    75    1
   171    80    81   ar
   172    80    78   ar
   173   114   115    1
   174   114   116    1
   175    81    79   ar
   176    73    74    2
   177    78    76   ar
   178    99   100    1
   179    99    98    1
   180   108   109    2
   181    79    77   ar
   182    76    77   ar
   183    76    75    1
   184   100   101    2
   185   133   131   ar
   186   132   131   ar
   187   131   130    1
   188   125   124    1
   189   130   127    1
   190   124   123    1
   191   127   128    1
   192   127   126    1
   193   123   122    1
   194   128   129    2
   195   122   121    1
   196   118   121    1
   197   118   117    1
   198   118   119    1
   199   120   119    2
