@<TRIPOS>MOLECULE
tmp/3pg0A00.pdb
 77 71 0 0 0
SMALL
GASTEIGER

@<TRIPOS>ATOM
      1  N          5.0960   -9.4420    2.4520 N.3   110  ASP110     -0.1239
      2  CA         4.1520   -8.3170    2.4460 C.3   110  ASP110      0.1674
      3  C          4.5320   -7.2910    3.5170 C.2   110  ASP110      0.2266
      4  O          4.8030   -7.6580    4.6580 O.2   110  ASP110     -0.2867
      5  CB         2.7550   -8.9240    2.6930 C.3   110  ASP110      0.1410
      6  CG         1.6310   -7.9090    2.7310 C.2   110  ASP110      0.3668
      7  OD1        1.6840   -6.9440    3.5180 O.co2 110  ASP110     -0.2456
      8  OD2        0.6510   -8.1390    1.9960 O.co2 110  ASP110     -0.2456
      9  N          3.2000   -4.8040    5.9880 N.3   112  GLU112     -0.1231
     10  CA         1.8840   -4.6510    6.6140 C.3   112  GLU112      0.1699
     11  C          1.1690   -3.3340    6.3080 C.2   112  GLU112      0.2592
     12  O          1.7010   -2.2440    6.5430 O.2   112  GLU112     -0.2718
     13  CB         1.9930   -4.8400    8.1230 C.3   112  GLU112      0.0402
     14  CG         0.6540   -4.6770    8.8180 C.3   112  GLU112      0.1161
     15  CD         0.7110   -4.9220   10.3210 C.2   112  GLU112      0.3649
     16  OE1        1.8070   -4.8590   10.9240 O.co2 112  GLU112     -0.2457
     17  OE2       -0.3590   -5.1820   10.9020 O.co2 112  GLU112     -0.2457
     18  N         -0.0570   -3.4610    5.8100 N.am  113  ASN113     -0.1960
     19  CA        -0.9290   -2.3230    5.5050 C.3   113  ASN113      0.1819
     20  C         -0.3540   -1.3210    4.4980 C.2   113  ASN113      0.2621
     21  O         -0.8380   -0.1930    4.3940 O.2   113  ASN113     -0.2715
     22  CB        -1.3790   -1.6150    6.8040 C.3   113  ASN113      0.1195
     23  CG        -2.2260   -2.5200    7.7010 C.2   113  ASN113      0.2630
     24  OD1       -2.7980   -3.5130    7.2360 O.2   113  ASN113     -0.2716
     25  ND2       -2.3250   -2.1700    8.9810 N.am  113  ASN113     -0.0877
     26  N          0.6650   -1.7430    3.7470 N.am  114  ALA114     -0.1977
     27  CA         1.3510   -0.8640    2.8000 C.3   114  ALA114      0.1597
     28  C          1.8750    0.4020    3.4680 C.2   114  ALA114      0.2287
     29  O          1.9200    1.4690    2.8520 O.2   114  ALA114     -0.2864
     30  CB         0.4370   -0.5140    1.6060 C.3   114  ALA114      0.0319
     31  N          5.3160   -9.3330    6.9200 N.3   123  ILE123     -0.1245
     32  CA         4.4740  -10.4830    7.2360 C.3   123  ILE123      0.1561
     33  C          4.2830  -11.2990    5.9570 C.2   123  ILE123      0.2260
     34  O          4.8780  -10.9780    4.9220 O.2   123  ILE123     -0.2867
     35  CB         3.0940   -9.9970    7.7330 C.3   123  ILE123      0.0252
     36  CG1        2.4520   -9.0580    6.6920 C.3   123  ILE123      0.0019
     37  CG2        3.2480   -9.2740    9.0670 C.3   123  ILE123      0.0019
     38  CD1        1.0380   -8.5910    7.0320 C.3   123  ILE123      0.0001
     39  N          1.0530  -12.6600    3.3650 N.3   125  TYR125     -0.1241
     40  CA        -0.3640  -12.4410    3.0680 C.3   125  TYR125      0.1605
     41  C         -0.6120  -12.8950    1.6410 C.2   125  TYR125      0.2264
     42  O          0.2710  -12.7660    0.7960 O.2   125  TYR125     -0.2867
     43  CB        -0.7030  -10.9430    3.2310 C.3   125  TYR125      0.0534
     44  CG        -2.1540  -10.6820    3.5620 C.ar  125  TYR125     -0.0201
     45  CD1       -3.1440  -10.8190    2.5900 C.ar  125  TYR125     -0.0009
     46  CD2       -2.5310  -10.3130    4.8390 C.ar  125  TYR125     -0.0009
     47  CE1       -4.4700  -10.5990    2.8930 C.ar  125  TYR125      0.0417
     48  CE2       -3.8690  -10.0850    5.1540 C.ar  125  TYR125      0.0417
     49  CZ        -4.8250  -10.2360    4.1770 C.ar  125  TYR125      0.1957
     50  OH        -6.1540  -10.0210    4.4780 O.3   125  TYR125     -0.2866
     51  N         -2.2210  -10.2320   -3.8170 N.3   128  SER128     -0.1217
     52  CA        -3.2940   -9.5940   -4.5770 C.3   128  SER128      0.1889
     53  C         -2.7940   -8.3740   -5.3490 C.2   128  SER128      0.2288
     54  O         -3.5840   -7.5070   -5.7310 O.2   128  SER128     -0.2866
     55  CB        -4.4760   -9.2280   -3.6790 C.3   128  SER128      0.2089
     56  OG        -4.0760   -8.3710   -2.6170 O.3   128  SER128     -0.2183
     57  N         -0.6770   -5.8950   -4.6270 N.3   130  GLY130     -0.1225
     58  CA        -0.3260   -4.6490   -3.9690 C.3   130  GLY130      0.1811
     59  C          1.1420   -4.3370   -4.1820 C.2   130  GLY130      0.2280
     60  O          1.9650   -5.2520   -4.2270 O.2   130  GLY130     -0.2866
     61  N          2.9790   -3.2050   -2.0700 N.3   132  ASN132     -0.1225
     62  CA         3.6110   -3.6010   -0.8090 C.3   132  ASN132      0.1785
     63  C          3.8810   -5.1070   -0.7450 C.2   132  ASN132      0.2597
     64  O          4.3630   -5.6170    0.2640 O.2   132  ASN132     -0.2718
     65  CB         2.7490   -3.1680    0.3830 C.3   132  ASN132      0.1169
     66  CG         1.3530   -3.7680    0.3380 C.2   132  ASN132      0.2627
     67  OD1        0.6390   -3.6370   -0.6680 O.2   132  ASN132     -0.2716
     68  ND2        0.9580   -4.4410    1.4200 N.am  132  ASN132     -0.0877
     69  N          3.5690   -5.7910   -1.8430 N.am  133  GLN133     -0.1979
     70  CA         3.7820   -7.2370   -1.9810 C.3   133  GLN133      0.1601
     71  C          4.7170   -7.5350   -3.1530 C.2   133  GLN133      0.2287
     72  O          4.8310   -8.6840   -3.6030 O.2   133  GLN133     -0.2864
     73  CB         2.4550   -7.9330   -2.2490 C.3   133  GLN133      0.0394
     74  CG         1.3640   -7.5950   -1.2640 C.3   133  GLN133      0.0908
     75  CD         0.1560   -8.4530   -1.5070 C.2   133  GLN133      0.2608
     76  OE1       -0.4480   -8.3810   -2.5840 O.2   133  GLN133     -0.2717
     77  NE2       -0.1880   -9.2990   -0.5300 N.am  133  GLN133     -0.0878
@<TRIPOS>BOND
     1    54    53    2
     2    53    52    1
     3    57    58    1
     4    52    51    1
     5    52    55    1
     6    60    59    2
     7    59    58    1
     8    55    56    1
     9    72    71    2
    10    71    70    1
    11    76    75    2
    12    73    70    1
    13    73    74    1
    14    61    62    1
    15    70    69    1
    16    69    63   am
    17    75    74    1
    18    75    77   am
    19    62    63    1
    20    62    65    1
    21    63    64    2
    22    67    66    2
    23    66    65    1
    24    66    68   am
    25    42    41    2
    26    30    27    1
    27    41    40    1
    28     8     6   ar
    29     2     1    1
    30     2     5    1
    31     2     3    1
    32    45    47   ar
    33    45    44   ar
    34     5     6    1
    35     6     7   ar
    36    27    28    1
    37    27    26    1
    38    29    28    2
    39    47    49   ar
    40    40    43    1
    41    40    39    1
    42    43    44    1
    43     3     4    2
    44    44    46   ar
    45    26    20   am
    46    49    50    1
    47    49    48   ar
    48    21    20    2
    49    20    19    1
    50    46    48   ar
    51    34    33    2
    52    19    18    1
    53    19    22    1
    54    18    11   am
    55    33    32    1
    56     9    10    1
    57    11    12    2
    58    11    10    1
    59    10    13    1
    60    36    38    1
    61    36    35    1
    62    22    23    1
    63    31    32    1
    64    24    23    2
    65    32    35    1
    66    23    25   am
    67    35    37    1
    68    13    14    1
    69    14    15    1
    70    15    17   ar
    71    15    16   ar
