@<TRIPOS>MOLECULE
tmp/3pg0A01.pdb
 83 77 0 0 0
SMALL
GASTEIGER

@<TRIPOS>ATOM
      1  N         12.0120  -16.4680    7.5500 N.3    63  ASP63      -0.1239
      2  CA        11.2590  -17.5570    8.1740 C.3    63  ASP63       0.1674
      3  C          9.8620  -17.0500    8.5240 C.2    63  ASP63       0.2266
      4  O          9.7190  -15.9610    9.0660 O.2    63  ASP63      -0.2867
      5  CB        12.0570  -17.9960    9.4190 C.3    63  ASP63       0.1410
      6  CG        11.3790  -19.0650   10.2550 C.2    63  ASP63       0.3668
      7  OD1       10.2260  -18.8670   10.7020 O.co2  63  ASP63      -0.2456
      8  OD2       12.0440  -20.0990   10.5150 O.co2  63  ASP63      -0.2456
      9  N          7.1110  -17.2380   10.9960 N.3    65  GLU65      -0.1231
     10  CA         7.1100  -17.6200   12.4030 C.3    65  GLU65       0.1699
     11  C          6.2030  -18.8070   12.7220 C.2    65  GLU65       0.2592
     12  O          4.9910  -18.7610   12.4800 O.2    65  GLU65      -0.2718
     13  CB         6.7410  -16.4040   13.2660 C.3    65  GLU65       0.0402
     14  CG         6.8540  -16.6810   14.7530 C.3    65  GLU65       0.1161
     15  CD         6.5410  -15.4700   15.6160 C.2    65  GLU65       0.3649
     16  OE1        6.5440  -14.3300   15.1020 O.co2  65  GLU65      -0.2457
     17  OE2        6.2830  -15.6670   16.8240 O.co2  65  GLU65      -0.2457
     18  N          6.8000  -19.8630   13.2710 N.am   66  ASN66      -0.1960
     19  CA         6.0660  -21.0570   13.6980 C.3    66  ASN66       0.1819
     20  C          5.2910  -21.7480   12.5800 C.2    66  ASN66       0.2621
     21  O          4.3230  -22.4670   12.8380 O.2    66  ASN66      -0.2715
     22  CB         5.1320  -20.7340   14.8710 C.3    66  ASN66       0.1195
     23  CG         5.5750  -21.3870   16.1670 C.2    66  ASN66       0.2630
     24  OD1        5.7670  -22.6010   16.2300 O.2    66  ASN66      -0.2716
     25  ND2        5.7490  -20.5790   17.2070 N.am   66  ASN66      -0.0877
     26  N          5.7280  -21.5350   11.3420 N.am   67  ALA67      -0.1977
     27  CA         5.0870  -22.1480   10.1810 C.3    67  ALA67       0.1597
     28  C          3.5860  -21.8820   10.1320 C.2    67  ALA67       0.2287
     29  O          2.8220  -22.6860    9.6050 O.2    67  ALA67      -0.2864
     30  CB         5.3760  -23.6530   10.1310 C.3    67  ALA67       0.0319
     31  N         10.1700  -13.5150   10.3010 N.3    76  ILE76      -0.1245
     32  CA        11.2780  -13.3210   11.2340 C.3    76  ILE76       0.1561
     33  C         12.5420  -13.9100   10.6120 C.2    76  ILE76       0.2260
     34  O         12.5210  -14.3560    9.4700 O.2    76  ILE76      -0.2867
     35  CB        11.0100  -14.0550   12.5640 C.3    76  ILE76       0.0252
     36  CG1       10.7770  -15.5440   12.2990 C.3    76  ILE76       0.0019
     37  CG2        9.7850  -13.4720   13.2540 C.3    76  ILE76       0.0019
     38  CD1       10.5990  -16.3840   13.5730 C.3    76  ILE76       0.0001
     39  N         15.4400  -16.9630   11.4590 N.3    78  TYR78      -0.1227
     40  CA        15.6580  -18.1010   12.3450 C.3    78  TYR78       0.1736
     41  C         16.6960  -18.9940   11.7100 C.2    78  TYR78       0.2596
     42  O         16.7930  -19.0560   10.4810 O.2    78  TYR78      -0.2718
     43  CB        14.3510  -18.8920   12.5580 C.3    78  TYR78       0.0548
     44  CG        14.2440  -19.5110   13.9420 C.ar   78  TYR78      -0.0200
     45  CD1       13.5630  -18.8480   14.9590 C.ar   78  TYR78      -0.0009
     46  CD2       14.8430  -20.7380   14.2420 C.ar   78  TYR78      -0.0009
     47  CE1       13.4700  -19.3800   16.2290 C.ar   78  TYR78       0.0417
     48  CE2       14.7480  -21.2820   15.5260 C.ar   78  TYR78       0.0417
     49  CZ        14.0540  -20.5910   16.5080 C.ar   78  TYR78       0.1957
     50  OH        13.9400  -21.0890   17.7950 O.3    78  TYR78      -0.2866
     51  N         17.4780  -19.6840   12.5360 N.am   79  SER79      -0.1952
     52  CA        18.4230  -20.6550   12.0100 C.3    79  SER79       0.1924
     53  C         17.7150  -21.5770   11.0270 C.2    79  SER79       0.2314
     54  O         16.5910  -22.0250   11.2820 O.2    79  SER79      -0.2863
     55  CB        19.0340  -21.4670   13.1490 C.3    79  SER79       0.2116
     56  OG        19.7810  -20.6230   14.0020 O.3    79  SER79      -0.2180
     57  N         16.6210  -24.7870    9.1380 N.3    81  SER81      -0.1217
     58  CA        16.5080  -26.2210    9.3870 C.3    81  SER81       0.1889
     59  C         15.8330  -26.9490    8.2290 C.2    81  SER81       0.2288
     60  O         15.5050  -28.1290    8.3440 O.2    81  SER81      -0.2866
     61  CB        15.7700  -26.4970   10.6970 C.3    81  SER81       0.2089
     62  OG        14.4580  -25.9630   10.6700 O.3    81  SER81      -0.2183
     63  N         12.8980  -26.1710    6.8770 N.3    83  GLY83      -0.1225
     64  CA        11.4440  -26.1480    6.9560 C.3    83  GLY83       0.1811
     65  C         10.8220  -25.4840    5.7350 C.2    83  GLY83       0.2280
     66  O         11.4150  -24.5780    5.1410 O.2    83  GLY83      -0.2866
     67  N          8.4870  -23.5010    5.7660 N.3    85  ASN85      -0.1225
     68  CA         8.2480  -22.1090    6.1670 C.3    85  ASN85       0.1785
     69  C          9.5140  -21.2620    6.0740 C.2    85  ASN85       0.2597
     70  O          9.5010  -20.0720    6.4290 O.2    85  ASN85      -0.2718
     71  CB         7.6850  -22.0310    7.5960 C.3    85  ASN85       0.1169
     72  CG         8.6280  -22.6150    8.6250 C.2    85  ASN85       0.2627
     73  OD1        9.1390  -23.7220    8.4530 O.2    85  ASN85      -0.2716
     74  ND2        8.8950  -21.8610    9.6870 N.am   85  ASN85      -0.0877
     75  N         10.6020  -21.8850    5.6110 N.am   86  GLN86      -0.1979
     76  CA        11.8740  -21.1910    5.4130 C.3    86  GLN86       0.1601
     77  C         12.3030  -21.2420    3.9480 C.2    86  GLN86       0.2287
     78  O         13.4570  -20.9490    3.6170 O.2    86  GLN86      -0.2864
     79  CB        12.9720  -21.8230    6.2730 C.3    86  GLN86       0.0394
     80  CG        12.6140  -21.9790    7.7470 C.3    86  GLN86       0.0908
     81  CD        13.7920  -22.4980    8.5490 C.2    86  GLN86       0.2608
     82  OE1       14.2750  -23.6030    8.3030 O.2    86  GLN86      -0.2717
     83  NE2       14.2720  -21.6990    9.5080 N.am   86  GLN86      -0.0878
@<TRIPOS>BOND
     1    78    77    2
     2    77    76    1
     3    66    65    2
     4    76    75    1
     5    76    79    1
     6    75    69   am
     7    65    64    1
     8    67    68    1
     9    69    68    1
    10    69    70    2
    11    68    71    1
    12    79    80    1
    13    63    64    1
    14     1     2    1
    15    71    72    1
    16    80    81    1
    17     2     3    1
    18     2     5    1
    19    59    60    2
    20    59    58    1
    21    82    81    2
    22    73    72    2
    23     3     4    2
    24    81    83   am
    25    72    74   am
    26    57    58    1
    27    58    61    1
    28     5     6    1
    29    34    33    2
    30    29    28    2
    31    30    27    1
    32    28    27    1
    33    27    26    1
    34     6     8   ar
    35     6     7   ar
    36    31    32    1
    37    42    41    2
    38    33    32    1
    39    62    61    1
    40     9    10    1
    41    53    54    2
    42    53    52    1
    43    32    35    1
    44    26    20   am
    45    39    40    1
    46    41    40    1
    47    41    51   am
    48    52    51    1
    49    52    55    1
    50    36    35    1
    51    36    38    1
    52    40    43    1
    53    10    11    1
    54    10    13    1
    55    12    11    2
    56    43    44    1
    57    35    37    1
    58    20    21    2
    59    20    19    1
    60    11    18   am
    61    55    56    1
    62    13    14    1
    63    18    19    1
    64    19    22    1
    65    44    46   ar
    66    44    45   ar
    67    46    48   ar
    68    14    15    1
    69    22    23    1
    70    45    47   ar
    71    16    15   ar
    72    48    49   ar
    73    15    17   ar
    74    23    24    2
    75    23    25   am
    76    47    49   ar
    77    49    50    1
