@<TRIPOS>MOLECULE
tmp/3pg3A01.pdb
 224 213 0 0 0
SMALL
GASTEIGER

@<TRIPOS>ATOM
      1  N        -27.9370    8.0220   22.0340 N.3    27  VAL27      -0.1245
      2  CA       -26.5740    8.3630   22.4450 C.3    27  VAL27       0.1561
      3  C        -25.6130    8.3920   21.2640 C.2    27  VAL27       0.2260
      4  O        -25.8810    7.7950   20.2140 O.2    27  VAL27      -0.2867
      5  CB       -25.9980    7.4010   23.5350 C.3    27  VAL27       0.0252
      6  CG1      -26.7950    7.4950   24.8350 C.3    27  VAL27       0.0019
      7  CG2      -25.9310    5.9620   23.0300 C.3    27  VAL27       0.0019
      8  N        -22.5160    5.6170   16.5030 N.3    32  TYR32      -0.1241
      9  CA       -22.4990    4.1820   16.7810 C.3    32  TYR32       0.1605
     10  C        -23.6580    3.5050   16.0590 C.2    32  TYR32       0.2264
     11  O        -23.9140    2.3160   16.2390 O.2    32  TYR32      -0.2867
     12  CB       -22.5400    3.9270   18.2970 C.3    32  TYR32       0.0534
     13  CG       -21.3970    4.5970   19.0400 C.ar   32  TYR32      -0.0201
     14  CD1      -20.0770    4.1790   18.8430 C.ar   32  TYR32      -0.0009
     15  CD2      -21.6280    5.6590   19.9170 C.ar   32  TYR32      -0.0009
     16  CE1      -19.0190    4.7950   19.5040 C.ar   32  TYR32       0.0417
     17  CE2      -20.5700    6.2840   20.5900 C.ar   32  TYR32       0.0417
     18  CZ       -19.2700    5.8430   20.3750 C.ar   32  TYR32       0.1957
     19  OH       -18.2090    6.4380   21.0200 O.3    32  TYR32      -0.2866
     20  N        -28.6120    3.9880   18.2440 N.3    35  VAL35      -0.1245
     21  CA       -28.4320    3.4330   19.5890 C.3    35  VAL35       0.1561
     22  C        -29.1140    4.3220   20.6290 C.2    35  VAL35       0.2260
     23  O        -29.0180    5.5460   20.5680 O.2    35  VAL35      -0.2867
     24  CB       -26.9260    3.3000   19.9350 C.3    35  VAL35       0.0252
     25  CG1      -26.7180    2.7880   21.3630 C.3    35  VAL35       0.0019
     26  CG2      -26.2340    2.3910   18.9440 C.3    35  VAL35       0.0019
     27  N        -27.1700   -0.3800   26.4760 N.3    48  ALA48      -0.1245
     28  CA       -27.3340    0.2640   25.1840 C.3    48  ALA48       0.1562
     29  C        -28.0950   -0.6850   24.2850 C.2    48  ALA48       0.2260
     30  O        -27.7760   -1.8790   24.2100 O.2    48  ALA48      -0.2867
     31  CB       -25.9980    0.6030   24.5770 C.3    48  ALA48       0.0290
     32  N        -29.1640   -1.2230   20.3890 N.3    50  LYS50      -0.1245
     33  CA       -28.9110   -0.8210   19.0010 C.3    50  LYS50       0.1561
     34  C        -29.9300   -1.4200   18.0410 C.2    50  LYS50       0.2260
     35  O        -30.0840   -2.6410   17.9730 O.2    50  LYS50      -0.2867
     36  CB       -27.4960   -1.1920   18.5560 C.3    50  LYS50       0.0271
     37  CG       -27.2110   -0.7720   17.1150 C.3    50  LYS50       0.0035
     38  CD       -25.8010   -1.0760   16.6840 C.3    50  LYS50       0.0206
     39  CE       -25.5960   -0.6270   15.2510 C.3    50  LYS50       0.1093
     40  NZ       -24.2120   -0.9090   14.7760 N.3    50  LYS50      -0.1314
     41  N        -23.8430   -9.4310    6.8330 N.3    64  ARG64      -0.1245
     42  CA       -23.2350   -8.6740    7.9310 C.3    64  ARG64       0.1563
     43  C        -23.9830   -8.8220    9.2490 C.2    64  ARG64       0.2260
     44  O        -23.3680   -8.9430   10.3150 O.2    64  ARG64      -0.2867
     45  CB       -23.1770   -7.1910    7.5840 C.3    64  ARG64       0.0307
     46  CG       -22.0390   -6.8210    6.6490 C.3    64  ARG64       0.0489
     47  CD       -22.1100   -5.3480    6.3610 C.3    64  ARG64       0.2205
     48  NE       -21.1200   -4.9460    5.3730 N.pl3  64  ARG64      -0.0865
     49  CZ       -21.1560   -3.7920    4.7180 C.cat  64  ARG64       0.5346
     50  NH1      -22.1440   -2.9260    4.9450 N.pl3  64  ARG64       0.1354
     51  NH2      -20.2080   -3.5080    3.8360 N.pl3  64  ARG64       0.1354
     52  N        -23.2820  -12.3690   10.5110 N.3    67  ARG67      -0.1231
     53  CA       -21.8870  -12.4610   10.9520 C.3    67  ARG67       0.1694
     54  C        -21.6940  -11.7870   12.3220 C.2    67  ARG67       0.2591
     55  O        -21.0900  -12.3790   13.2170 O.2    67  ARG67      -0.2718
     56  CB       -20.9330  -11.8790    9.8890 C.3    67  ARG67       0.0321
     57  CG       -19.4520  -11.6590   10.3380 C.3    67  ARG67       0.0489
     58  CD       -18.5650  -11.1540    9.1860 C.3    67  ARG67       0.2205
     59  NE       -17.8020   -9.9540    9.5540 N.pl3  67  ARG67      -0.0865
     60  CZ       -16.6220   -9.9440   10.1790 C.cat  67  ARG67       0.5346
     61  NH1      -16.0230  -11.0750   10.5390 N.pl3  67  ARG67       0.1354
     62  NH2      -16.0400   -8.7850   10.4660 N.pl3  67  ARG67       0.1354
     63  N        -22.2360  -10.5820   12.4990 N.am   68  GLU68      -0.1979
     64  CA       -22.0520   -9.8680   13.7660 C.3    68  GLU68       0.1602
     65  C        -22.7990  -10.5290   14.9160 C.2    68  GLU68       0.2287
     66  O        -22.2200  -10.7500   15.9770 O.2    68  GLU68      -0.2864
     67  CB       -22.4180   -8.3790   13.6700 C.3    68  GLU68       0.0415
     68  CG       -21.9550   -7.5790   14.9020 C.3    68  GLU68       0.1163
     69  CD       -22.0770   -6.0660   14.7450 C.2    68  GLU68       0.3649
     70  OE1      -21.3460   -5.3370   15.4550 O.co2  68  GLU68      -0.2457
     71  OE2      -22.8870   -5.6050   13.9160 O.co2  68  GLU68      -0.2457
     72  N        -21.0410  -13.9230   15.8030 N.3    71  LEU71      -0.1231
     73  CA       -19.7820  -13.6150   16.4490 C.3    71  LEU71       0.1693
     74  C        -19.9840  -13.0970   17.8880 C.2    71  LEU71       0.2591
     75  O        -19.3780  -13.6240   18.8250 O.2    71  LEU71      -0.2718
     76  CB       -19.0090  -12.6030   15.5860 C.3    71  LEU71       0.0284
     77  CG       -17.5680  -12.2430   15.9060 C.3    71  LEU71       0.0019
     78  CD1      -17.5380  -11.2960   17.0920 C.3    71  LEU71       0.0001
     79  CD2      -16.7490  -13.4910   16.1680 C.3    71  LEU71       0.0001
     80  N        -20.8300  -12.0790   18.0640 N.am   72  LEU72      -0.1980
     81  CA       -21.1000  -11.5440   19.4080 C.3    72  LEU72       0.1596
     82  C        -21.6910  -12.5830   20.3510 C.2    72  LEU72       0.2287
     83  O        -21.3810  -12.5860   21.5360 O.2    72  LEU72      -0.2864
     84  CB       -21.9980  -10.3060   19.3740 C.3    72  LEU72       0.0297
     85  CG       -21.3400   -9.0390   18.8160 C.3    72  LEU72       0.0022
     86  CD1      -22.3400   -7.9010   18.7940 C.3    72  LEU72       0.0001
     87  CD2      -20.0770   -8.6560   19.6000 C.3    72  LEU72       0.0001
     88  N        -18.7040  -14.6840   21.6800 N.3    75  MET75      -0.1245
     89  CA       -17.7400  -14.0130   22.5750 C.3    75  MET75       0.1570
     90  C        -18.1560  -13.9800   24.0520 C.2    75  MET75       0.2261
     91  O        -19.0970  -13.2740   24.4270 O.2    75  MET75      -0.2867
     92  CB       -17.4460  -12.5870   22.0970 C.3    75  MET75       0.0387
     93  CG       -16.8520  -12.4880   20.7030 C.3    75  MET75       0.0595
     94  SD       -15.1810  -13.1290   20.5520 S.3    75  MET75      -0.1393
     95  CE       -15.4680  -14.7100   19.7620 C.3    75  MET75       0.0692
     96  N        -13.6230   -8.8280   26.3100 N.3    80  VAL80      -0.1231
     97  CA       -14.2040   -8.7600   24.9700 C.3    80  VAL80       0.1692
     98  C        -15.6690   -8.4000   25.1280 C.2    80  VAL80       0.2591
     99  O        -16.3190   -8.8560   26.0670 O.2    80  VAL80      -0.2718
    100  CB       -14.0650  -10.1240   24.2090 C.3    80  VAL80       0.0266
    101  CG1      -14.6950  -10.0590   22.7910 C.3    80  VAL80       0.0020
    102  CG2      -12.6000  -10.5210   24.1160 C.3    80  VAL80       0.0020
    103  N        -16.1810   -7.5710   24.2170 N.am   81  ILE81      -0.1980
    104  CA       -17.6010   -7.2450   24.1890 C.3    81  ILE81       0.1595
    105  C        -18.4490   -8.5200   24.2160 C.2    81  ILE81       0.2287
    106  O        -18.1310   -9.5090   23.5410 O.2    81  ILE81      -0.2864
    107  CB       -17.9710   -6.3580   22.9480 C.3    81  ILE81       0.0276
    108  CG1      -19.4530   -5.9700   22.9610 C.3    81  ILE81       0.0022
    109  CG2      -17.5700   -7.0200   21.6290 C.3    81  ILE81       0.0022
    110  CD1      -19.7930   -4.8940   23.9790 C.3    81  ILE81       0.0001
    111  N        -29.8270   -5.2630   19.2320 N.3   101  LEU101     -0.1245
    112  CA       -28.7430   -5.8070   20.0430 C.3   101  LEU101      0.1561
    113  C        -28.6640   -5.0320   21.3480 C.2   101  LEU101      0.2260
    114  O        -28.7870   -3.8060   21.3400 O.2   101  LEU101     -0.2867
    115  CB       -27.4070   -5.6900   19.3010 C.3   101  LEU101      0.0270
    116  CG       -27.2770   -6.3360   17.9130 C.3   101  LEU101      0.0019
    117  CD1      -25.8620   -6.1380   17.3630 C.3   101  LEU101      0.0001
    118  CD2      -27.6390   -7.8210   17.9450 C.3   101  LEU101      0.0001
    119  N        -26.2180   -4.3930   24.7710 N.3   103  THR103     -0.1203
    120  CA       -24.9580   -4.5370   25.5030 C.3   103  THR103      0.1994
    121  C        -24.9880   -3.6520   26.7490 C.2   103  THR103      0.2618
    122  O        -25.9230   -2.8760   26.9440 O.2   103  THR103     -0.2717
    123  CB       -23.7330   -4.0730   24.6650 C.3   103  THR103      0.1784
    124  OG1      -23.8510   -2.6720   24.3930 O.3   103  THR103     -0.2211
    125  CG2      -23.6100   -4.8370   23.3500 C.3   103  THR103      0.0376
    126  N        -23.9550   -3.7620   27.5760 N.am  104  HIS104     -0.1961
    127  CA       -23.6800   -2.7700   28.6090 C.3   104  HIS104      0.1787
    128  C        -23.5720   -1.3720   27.9930 C.2   104  HIS104      0.2620
    129  O        -23.0750   -1.2180   26.8690 O.2   104  HIS104     -0.2715
    130  CB       -22.3590   -3.0990   29.3210 C.3   104  HIS104      0.0785
    131  CG       -22.4340   -4.2850   30.2300 C.ar  104  HIS104      0.0821
    132  ND1      -23.1650   -4.2800   31.3980 N.ar  104  HIS104     -0.2267
    133  CD2      -21.8530   -5.5050   30.1550 C.ar  104  HIS104      0.1154
    134  CE1      -23.0460   -5.4520   31.9960 C.ar  104  HIS104      0.1986
    135  NE2      -22.2540   -6.2140   31.2620 N.ar  104  HIS104     -0.2212
    136  N        -24.0590   -0.3610   28.7140 N.am  105  LEU105     -0.1963
    137  CA       -23.8490    1.0280   28.3200 C.3   105  LEU105      0.1728
    138  C        -22.4160    1.3640   28.6980 C.2   105  LEU105      0.2616
    139  O        -22.0030    1.1400   29.8340 O.2   105  LEU105     -0.2715
    140  CB       -24.8020    1.9670   29.0680 C.3   105  LEU105      0.0311
    141  CG       -25.3800    3.2330   28.4100 C.3   105  LEU105      0.0022
    142  CD1      -25.6880    4.2850   29.4760 C.3   105  LEU105      0.0001
    143  CD2      -24.4980    3.8390   27.3250 C.3   105  LEU105      0.0001
    144  N        -21.6500    1.8770   27.7460 N.am  106  MET106     -0.1977
    145  CA       -20.2520    2.1980   28.0100 C.3   106  MET106      0.1605
    146  C        -20.0400    3.7110   28.0720 C.2   106  MET106      0.2287
    147  O        -20.4530    4.4450   27.1810 O.2   106  MET106     -0.2864
    148  CB       -19.3500    1.5040   26.9870 C.3   106  MET106      0.0413
    149  CG       -19.3440   -0.0130   27.1980 C.3   106  MET106      0.0598
    150  SD       -18.8620   -0.9830   25.7690 S.3   106  MET106     -0.1393
    151  CE       -20.1670   -0.6610   24.5810 C.3   106  MET106      0.0692
    152  N         -9.5190  -13.9800   21.5890 N.3   138  ILE138     -0.1245
    153  CA        -9.9680  -13.7370   20.2060 C.3   138  ILE138      0.1561
    154  C         -9.1110  -14.5440   19.2100 C.2   138  ILE138      0.2260
    155  O         -9.6480  -15.2360   18.3270 O.2   138  ILE138     -0.2867
    156  CB        -9.9390  -12.1900   19.8770 C.3   138  ILE138      0.0252
    157  CG1      -11.0500  -11.4550   20.6570 C.3   138  ILE138      0.0019
    158  CG2      -10.1180  -11.9350   18.3830 C.3   138  ILE138      0.0019
    159  CD1      -10.8530   -9.9160   20.7780 C.3   138  ILE138      0.0001
    160  N         -9.6320  -15.6790   15.0760 N.3   143  ILE143     -0.1231
    161  CA       -10.1810  -14.3990   14.6450 C.3   143  ILE143      0.1692
    162  C         -9.0740  -13.3510   14.7340 C.2   143  ILE143      0.2592
    163  O         -8.3110  -13.3160   15.7090 O.2   143  ILE143     -0.2718
    164  CB       -11.4060  -13.9790   15.5280 C.3   143  ILE143      0.0266
    165  CG1      -12.5730  -14.9460   15.3210 C.3   143  ILE143      0.0019
    166  CG2      -11.8490  -12.5250   15.2470 C.3   143  ILE143      0.0020
    167  CD1      -13.5650  -14.9580   16.4590 C.3   143  ILE143      0.0001
    168  N         -8.9710  -12.5190   13.7070 N.am  144  ILE144     -0.1966
    169  CA        -8.0450  -11.3910   13.7300 C.3   144  ILE144      0.1727
    170  C         -8.8880  -10.1260   13.8240 C.2   144  ILE144      0.2616
    171  O         -9.8310   -9.9630   13.0410 O.2   144  ILE144     -0.2715
    172  CB        -7.1510  -11.3800   12.4690 C.3   144  ILE144      0.0290
    173  CG1       -6.3020  -12.6640   12.4190 C.3   144  ILE144      0.0022
    174  CG2       -6.2510  -10.1210   12.4500 C.3   144  ILE144      0.0023
    175  CD1       -5.6450  -12.9510   11.0770 C.3   144  ILE144      0.0001
    176  N         -8.5660   -9.2380   14.7680 N.am  145  HIS145     -0.1973
    177  CA        -9.3370   -8.0010   14.9010 C.3   145  HIS145      0.1656
    178  C         -9.1740   -7.1020   13.6660 C.2   145  HIS145      0.2291
    179  O        -10.1700   -6.7320   13.0200 O.2   145  HIS145     -0.2864
    180  CB        -8.9660   -7.2300   16.1760 C.3   145  HIS145      0.0771
    181  CG        -9.9080   -6.1090   16.4910 C.ar  145  HIS145      0.0820
    182  ND1      -10.0110   -4.9810   15.7070 N.ar  145  HIS145     -0.2267
    183  CD2      -10.8160   -5.9610   17.4850 C.ar  145  HIS145      0.1154
    184  CE1      -10.9300   -4.1760   16.2140 C.ar  145  HIS145      0.1986
    185  NE2      -11.4260   -4.7430   17.2990 N.ar  145  HIS145     -0.2212
    186  N        -12.5300   -5.2110   24.5100 N.3   163  ILE163     -0.1231
    187  CA       -12.2550   -5.0500   23.0980 C.3   163  ILE163      0.1692
    188  C        -13.5740   -5.1990   22.3240 C.2   163  ILE163      0.2592
    189  O        -14.3330   -6.1380   22.5410 O.2   163  ILE163     -0.2718
    190  CB       -11.2520   -6.1110   22.5700 C.3   163  ILE163      0.0266
    191  CG1       -9.9160   -6.0450   23.3260 C.3   163  ILE163      0.0019
    192  CG2      -11.0180   -5.9340   21.0640 C.3   163  ILE163      0.0020
    193  CD1       -8.9550   -7.1790   22.9690 C.3   163  ILE163      0.0001
    194  N        -13.8410   -4.2500   21.4370 N.am  164  LEU164     -0.1966
    195  CA       -14.9880   -4.3440   20.5540 C.3   164  LEU164      0.1728
    196  C        -14.5960   -3.9000   19.1520 C.2   164  LEU164      0.2616
    197  O        -13.4250   -3.6200   18.9040 O.2   164  LEU164     -0.2715
    198  CB       -16.1470   -3.5180   21.0960 C.3   164  LEU164      0.0311
    199  CG       -15.8180   -2.0960   21.5520 C.3   164  LEU164      0.0022
    200  CD1      -15.9110   -1.1540   20.3720 C.3   164  LEU164      0.0001
    201  CD2      -16.7940   -1.6960   22.6270 C.3   164  LEU164      0.0001
    202  N        -15.5720   -3.8620   18.2410 N.am  165  ASP165     -0.1957
    203  CA       -15.3470   -3.3240   16.9020 C.3   165  ASP165      0.1840
    204  C        -16.5930   -2.5710   16.4180 C.2   165  ASP165      0.2622
    205  O        -17.6060   -3.1860   16.0770 O.2   165  ASP165     -0.2715
    206  CB       -14.9330   -4.4300   15.9070 C.3   165  ASP165      0.1450
    207  CG       -14.5340   -3.8760   14.5380 C.2   165  ASP165      0.3671
    208  OD1      -14.0730   -4.6620   13.6870 O.co2 165  ASP165     -0.2456
    209  OD2      -14.6720   -2.6590   14.3000 O.co2 165  ASP165     -0.2456
    210  N        -16.5110   -1.2380   16.4220 N.am  166  PHE166     -0.1960
    211  CA       -17.6310   -0.3890   15.9730 C.3   166  PHE166      0.1771
    212  C        -17.7400   -0.2990   14.4490 C.2   166  PHE166      0.2620
    213  O        -18.7440    0.1840   13.9310 O.2   166  PHE166     -0.2715
    214  CB       -17.5580    1.0200   16.5740 C.3   166  PHE166      0.0574
    215  CG       -17.9610    1.0960   18.0210 C.ar  166  PHE166     -0.0200
    216  CD1      -17.1480    1.7420   18.9420 C.ar  166  PHE166     -0.0042
    217  CD2      -19.1620    0.5440   18.4640 C.ar  166  PHE166     -0.0042
    218  CE1      -17.5150    1.8330   20.2940 C.ar  166  PHE166     -0.0003
    219  CE2      -19.5340    0.6210   19.8120 C.ar  166  PHE166     -0.0003
    220  CZ       -18.7090    1.2670   20.7260 C.ar  166  PHE166     -0.0000
    221  N        -16.7090   -0.7600   13.7450 N.am  167  GLY167     -0.1954
    222  CA       -16.6930   -0.7770   12.2810 C.3   167  GLY167      0.1869
    223  C        -16.7750    0.5970   11.6370 C.2   167  GLY167      0.2309
    224  O        -17.4400    0.7680   10.6060 O.2   167  GLY167     -0.2863
@<TRIPOS>BOND
     1    51    49    1
     2    49    50    1
     3    49    48    2
     4    48    47    1
     5    47    46    1
     6    46    45    1
     7    41    42    1
     8    45    42    1
     9    42    43    1
    10    58    59    1
    11    58    57    1
    12    43    44    2
    13    59    60    2
    14    56    57    1
    15    56    53    1
    16    60    62    1
    17    60    61    1
    18    52    53    1
    19   224   223    2
    20    53    54    1
    21   175   173    1
    22   223   222    1
    23   222   221    1
    24    54    63   am
    25    54    55    2
    26   173   172    1
    27   174   172    1
    28   172   169    1
    29    63    64    1
    30   179   178    2
    31   171   170    2
    32   178   177    1
    33    67    64    1
    34    67    68    1
    35   208   207   ar
    36   168   169    1
    37   168   162   am
    38   169   170    1
    39   221   212   am
    40    64    65    1
    41   170   176   am
    42    71    69   ar
    43   213   212    2
    44   209   207   ar
    45   212   211    1
    46   207   206    1
    47   161   162    1
    48   161   160    1
    49   161   164    1
    50   162   163    2
    51    69    68    1
    52    69    70   ar
    53   176   177    1
    54    40    39    1
    55   177   180    1
    56    65    66    2
    57   166   164    1
    58    39    38    1
    59   165   164    1
    60   165   167    1
    61    76    77    1
    62    76    73    1
    63   182   184   ar
    64   182   181   ar
    65    72    73    1
    66    77    79    1
    67    77    78    1
    68   206   203    1
    69   211   210    1
    70   211   214    1
    71    10    11    2
    72    10     9    1
    73   205   204    2
    74   180   181    1
    75   184   185   ar
    76   204   210   am
    77   204   203    1
    78    73    74    1
    79   181   183   ar
    80     8     9    1
    81   214   215    1
    82    38    37    1
    83     9    12    1
    84   203   202    1
    85    37    36    1
    86   185   183   ar
    87   117   116    1
    88    74    80   am
    89    74    75    2
    90   116   118    1
    91   116   115    1
    92    35    34    2
    93   215   217   ar
    94   215   216   ar
    95    34    33    1
    96    80    81    1
    97   202   196   am
    98    20    21    1
    99    12    13    1
   100   155   154    2
   101   158   156    1
   102   217   219   ar
   103    36    33    1
   104    86    85    1
   105    85    84    1
   106    85    87    1
   107    14    13   ar
   108    14    16   ar
   109   197   196    2
   110   216   218   ar
   111    26    24    1
   112    33    32    1
   113    13    15   ar
   114   196   195    1
   115   154   153    1
   116   111   112    1
   117   115   112    1
   118    84    81    1
   119    81    82    1
   120    16    18   ar
   121    21    24    1
   122    21    22    1
   123    95    94    1
   124   219   220   ar
   125   156   153    1
   126   156   157    1
   127    15    17   ar
   128    24    25    1
   129   112   113    1
   130   153   152    1
   131     4     3    2
   132   218   220   ar
   133    82    83    2
   134   200   199    1
   135    18    17   ar
   136    18    19    1
   137    94    93    1
   138   195   198    1
   139   195   194    1
   140    23    22    2
   141   157   159    1
   142    93    92    1
   143   192   190    1
   144   198   199    1
   145     3     2    1
   146   114   113    2
   147   194   188   am
   148   199   201    1
   149   109   107    1
   150    88    89    1
   151     1     2    1
   152    92    89    1
   153   188   189    2
   154   188   187    1
   155     2     5    1
   156   190   187    1
   157   190   191    1
   158    89    90    1
   159   101   100    1
   160   107   108    1
   161   107   104    1
   162   108   110    1
   163   193   191    1
   164     7     5    1
   165   187   186    1
   166   125   123    1
   167     5     6    1
   168   106   105    2
   169    90    91    2
   170   102   100    1
   171   104   105    1
   172   104   103    1
   173   100    97    1
   174    30    29    2
   175   103    98   am
   176    29    28    1
   177   124   123    1
   178    31    28    1
   179   151   150    1
   180   123   120    1
   181   119   120    1
   182    97    98    1
   183    97    96    1
   184    98    99    2
   185    28    27    1
   186   120   121    1
   187   150   149    1
   188   121   122    2
   189   121   126   am
   190   129   128    2
   191   148   149    1
   192   148   145    1
   193   147   146    2
   194   143   141    1
   195   126   127    1
   196   144   145    1
   197   144   138   am
   198   128   127    1
   199   128   136   am
   200   145   146    1
   201   137   138    1
   202   137   136    1
   203   137   140    1
   204   141   140    1
   205   141   142    1
   206   127   130    1
   207   138   139    2
   208   130   131    1
   209   133   131   ar
   210   133   135   ar
   211   131   132   ar
   212   135   134   ar
   213   132   134   ar
