@<TRIPOS>MOLECULE
tmp/3pg6C00.pdb
 87 85 0 0 0
SMALL
GASTEIGER

@<TRIPOS>ATOM
      1  N         21.0090   60.0290    4.2730 N.3    53  ILE53      -0.1245
      2  CA        21.1150   59.2460    3.0270 C.3    53  ILE53       0.1561
      3  C         19.8520   59.4820    2.2050 C.2    53  ILE53       0.2260
      4  O         18.8240   59.9520    2.7200 O.2    53  ILE53      -0.2867
      5  CB        21.3180   57.7110    3.2350 C.3    53  ILE53       0.0252
      6  CG1       20.0270   56.9930    3.6690 C.3    53  ILE53       0.0019
      7  CG2       22.5050   57.3940    4.1610 C.3    53  ILE53       0.0019
      8  CD1       20.2000   55.4840    3.9080 C.3    53  ILE53       0.0001
      9  N         17.6470   57.3820   -0.8650 N.3    55  ARG55      -0.1245
     10  CA        17.5560   56.1110   -1.5830 C.3    55  ARG55       0.1563
     11  C         16.2390   56.1510   -2.3380 C.2    55  ARG55       0.2260
     12  O         15.2420   56.6800   -1.8710 O.2    55  ARG55      -0.2867
     13  CB        17.5010   54.9090   -0.6200 C.3    55  ARG55       0.0307
     14  CG        18.8270   54.6390    0.1400 C.3    55  ARG55       0.0489
     15  CD        19.8260   54.1990   -0.8970 C.3    55  ARG55       0.2205
     16  NE        21.1510   53.8490   -0.3760 N.pl3  55  ARG55      -0.0865
     17  CZ        22.2110   54.6480   -0.3820 C.cat  55  ARG55       0.5346
     18  NH1       22.1260   55.9200   -0.7640 N.pl3  55  ARG55       0.1354
     19  NH2       23.3710   54.1710    0.0720 N.pl3  55  ARG55       0.1354
     20  N         27.2510   48.5070    8.2820 N.3    87  SER87      -0.1202
     21  CA        26.9290   48.1340    6.9250 C.3    87  SER87       0.2020
     22  C         27.8600   47.0200    6.4600 C.2    87  SER87       0.2619
     23  O         29.0810   47.2030    6.4380 O.2    87  SER87      -0.2717
     24  CB        27.0890   49.3440    5.9840 C.3    87  SER87       0.2103
     25  OG        26.9940   48.9260    4.6340 O.3    87  SER87      -0.2182
     26  N         27.2780   45.8750    6.1300 N.am   88  ARG88      -0.1965
     27  CA        28.0410   44.7100    5.6520 C.3    88  ARG88       0.1729
     28  C         28.6460   45.0330    4.2710 C.2    88  ARG88       0.2616
     29  O         29.8240   44.7480    4.0210 O.2    88  ARG88      -0.2715
     30  CB        27.1410   43.4640    5.5790 C.3    88  ARG88       0.0348
     31  CG        27.9440   42.1890    5.2980 C.3    88  ARG88       0.0492
     32  CD        27.1120   40.9970    4.9350 C.3    88  ARG88       0.2205
     33  NE        26.2150   41.2440    3.8190 N.pl3  88  ARG88      -0.0865
     34  CZ        24.9120   41.4720    3.9450 C.cat  88  ARG88       0.5346
     35  NH1       24.2920   41.4080    5.1270 N.pl3  88  ARG88       0.1354
     36  NH2       24.1800   41.8650    2.8970 N.pl3  88  ARG88       0.1354
     37  N         27.8490   45.6680    3.4040 N.am   89  VAL89      -0.1963
     38  CA        28.2980   46.0570    2.0530 C.3    89  VAL89       0.1727
     39  C         29.4530   47.0760    2.0930 C.2    89  VAL89       0.2616
     40  O         30.4750   46.9080    1.4070 O.2    89  VAL89      -0.2715
     41  CB        27.1200   46.6010    1.1760 C.3    89  VAL89       0.0290
     42  CG1       27.6060   46.9860   -0.2470 C.3    89  VAL89       0.0023
     43  CG2       25.9880   45.5860    1.0790 C.3    89  VAL89       0.0023
     44  N         29.3000   48.1350    2.8820 N.am   90  LEU90      -0.1977
     45  CA        30.3310   49.1800    2.9460 C.3    90  LEU90       0.1596
     46  C         31.4990   48.8100    3.8800 C.2    90  LEU90       0.2287
     47  O         32.5920   49.3850    3.7780 O.2    90  LEU90      -0.2864
     48  CB        29.7060   50.5460    3.3110 C.3    90  LEU90       0.0297
     49  CG        28.8420   51.2070    2.2370 C.3    90  LEU90       0.0022
     50  CD1       28.2080   52.4460    2.8230 C.3    90  LEU90       0.0001
     51  CD2       29.6460   51.5900    1.0220 C.3    90  LEU90       0.0001
     52  N         26.5600   54.4960   10.0920 N.3    95  VAL95      -0.1231
     53  CA        25.8360   54.9920    8.9230 C.3    95  VAL95       0.1692
     54  C         24.3950   54.5070    8.8950 C.2    95  VAL95       0.2592
     55  O         24.0360   53.5320    9.5410 O.2    95  VAL95      -0.2718
     56  CB        26.5240   54.5430    7.5880 C.3    95  VAL95       0.0266
     57  CG1       27.8900   55.2080    7.4870 C.3    95  VAL95       0.0020
     58  CG2       26.6190   53.0130    7.4910 C.3    95  VAL95       0.0020
     59  N         23.5480   55.1850    8.1370 N.am   96  ILE96      -0.1966
     60  CA        22.1790   54.7100    7.9390 C.3    96  ILE96       0.1727
     61  C         22.1900   53.5440    6.9670 C.2    96  ILE96       0.2617
     62  O         22.8140   53.6250    5.9100 O.2    96  ILE96      -0.2715
     63  CB        21.2750   55.8250    7.4140 C.3    96  ILE96       0.0290
     64  CG1       21.3390   57.0290    8.3630 C.3    96  ILE96       0.0022
     65  CG2       19.8170   55.2630    7.2720 C.3    96  ILE96       0.0023
     66  CD1       20.5580   58.2670    7.8040 C.3    96  ILE96       0.0001
     67  N         21.5680   52.4370    7.3670 N.am   97  THR97      -0.1937
     68  CA        21.5280   51.2320    6.5200 C.3    97  THR97       0.2028
     69  C         20.1050   50.7450    6.3430 C.2    97  THR97       0.2642
     70  O         19.2350   51.1040    7.1010 O.2    97  THR97      -0.2714
     71  CB        22.4120   50.0840    7.1300 C.3    97  THR97       0.1808
     72  OG1       21.8110   49.5830    8.3320 O.3    97  THR97      -0.2208
     73  CG2       23.8460   50.5880    7.4520 C.3    97  THR97       0.0379
     74  N         19.8770   49.8730    5.3690 N.am   98  TRP98      -0.1973
     75  CA        18.6300   49.1340    5.3530 C.3    98  TRP98       0.1640
     76  C         18.5380   48.1790    6.5600 C.2    98  TRP98       0.2290
     77  O         19.5110   47.9250    7.2750 O.2    98  TRP98      -0.2864
     78  CB        18.5730   48.3150    4.0700 C.3    98  TRP98       0.0576
     79  CG        18.5860   49.1150    2.7770 C.ar   98  TRP98       0.0006
     80  CD1       19.6360   49.2240    1.9150 C.ar   98  TRP98       0.0946
     81  CD2       17.5190   49.9100    2.2190 C.ar   98  TRP98       0.0152
     82  NE1       19.2860   49.9950    0.8310 N.ar   98  TRP98      -0.2442
     83  CE2       17.9970   50.4460    0.9980 C.ar   98  TRP98       0.0810
     84  CE3       16.2090   50.2350    2.6390 C.ar   98  TRP98       0.0012
     85  CZ2       17.2050   51.2710    0.1740 C.ar   98  TRP98       0.0191
     86  CZ3       15.4170   51.0390    1.8320 C.ar   98  TRP98       0.0001
     87  CH2       15.9140   51.5520    0.5950 C.ar   98  TRP98       0.0015
@<TRIPOS>BOND
     1    11    12    2
     2    11    10    1
     3    10     9    1
     4    10    13    1
     5    15    16    1
     6    15    14    1
     7    18    17    1
     8    13    14    1
     9    17    16    2
    10    17    19    1
    11    42    41    1
    12    85    87   ar
    13    85    83   ar
    14    87    86   ar
    15    82    83   ar
    16    82    80   ar
    17    83    81   ar
    18    51    49    1
    19    43    41    1
    20    41    38    1
    21    40    39    2
    22    86    84   ar
    23    80    79   ar
    24    38    39    1
    25    38    37    1
    26    39    44   am
    27     3     4    2
    28     3     2    1
    29    81    84   ar
    30    81    79   ar
    31    49    50    1
    32    49    48    1
    33    79    78    1
    34    44    45    1
    35    36    34    1
    36    45    48    1
    37    45    46    1
    38     2     5    1
    39     2     1    1
    40     5     6    1
    41     5     7    1
    42    37    28   am
    43     6     8    1
    44    47    46    2
    45    33    34    2
    46    33    32    1
    47    34    35    1
    48    29    28    2
    49    78    75    1
    50    28    27    1
    51    25    24    1
    52    32    31    1
    53    31    30    1
    54    75    74    1
    55    75    76    1
    56    74    69   am
    57    30    27    1
    58    27    26    1
    59    62    61    2
    60    24    21    1
    61    26    22   am
    62    69    68    1
    63    69    70    2
    64    23    22    2
    65    22    21    1
    66    68    71    1
    67    68    67    1
    68    76    77    2
    69    21    20    1
    70    61    67   am
    71    61    60    1
    72    71    73    1
    73    71    72    1
    74    65    63    1
    75    63    60    1
    76    63    64    1
    77    57    56    1
    78    58    56    1
    79    56    53    1
    80    66    64    1
    81    60    59    1
    82    59    54   am
    83    54    53    1
    84    54    55    2
    85    53    52    1
