@<TRIPOS>MOLECULE
tmp/3pgbA00.pdb
 90 88 0 0 0
SMALL
GASTEIGER

@<TRIPOS>ATOM
      1  N        -49.0900  -31.6440  -41.7290 N.3    42  ASN42      -0.1240
      2  CA       -48.7780  -30.8820  -42.9330 C.3    42  ASN42       0.1653
      3  C        -48.2890  -29.4730  -42.5910 C.2    42  ASN42       0.2266
      4  O        -48.8900  -28.4750  -42.9870 O.2    42  ASN42      -0.2867
      5  CB       -50.0130  -30.8530  -43.8460 C.3    42  ASN42       0.1155
      6  CG       -49.7630  -30.1510  -45.1640 C.2    42  ASN42       0.2627
      7  OD1      -48.6880  -30.2480  -45.7510 O.2    42  ASN42      -0.2716
      8  ND2      -50.7760  -29.4280  -45.6320 N.am   42  ASN42      -0.0877
      9  N        -45.5620  -26.2370  -42.3000 N.3    44  THR44      -0.1218
     10  CA       -44.5260  -25.4980  -43.0190 C.3    44  THR44       0.1862
     11  C        -43.7090  -24.6680  -42.0190 C.2    44  THR44       0.2287
     12  O        -44.2590  -24.1540  -41.0440 O.2    44  THR44      -0.2866
     13  CB       -45.1460  -24.5430  -44.0580 C.3    44  THR44       0.1770
     14  OG1      -45.8630  -25.2980  -45.0380 O.3    44  THR44      -0.2211
     15  CG2      -44.0740  -23.7020  -44.7510 C.3    44  THR44       0.0375
     16  N        -51.0930  -18.6730  -45.6490 N.3    52  TRP52      -0.1227
     17  CA       -52.0070  -19.7660  -46.0090 C.3    52  TRP52       0.1737
     18  C        -51.4100  -21.1510  -45.7650 C.2    52  TRP52       0.2595
     19  O        -51.7310  -22.1140  -46.4650 O.2    52  TRP52      -0.2718
     20  CB       -52.4610  -19.6060  -47.4670 C.3    52  TRP52       0.0564
     21  CG       -53.4320  -18.4690  -47.6520 C.ar   52  TRP52       0.0003
     22  CD1      -53.1300  -17.1500  -47.8170 C.ar   52  TRP52       0.0946
     23  CD2      -54.8610  -18.5600  -47.6800 C.ar   52  TRP52       0.0152
     24  NE1      -54.2830  -16.4130  -47.9490 N.ar   52  TRP52      -0.2442
     25  CE2      -55.3590  -17.2560  -47.8690 C.ar   52  TRP52       0.0810
     26  CE3      -55.7670  -19.6200  -47.5670 C.ar   52  TRP52       0.0012
     27  CZ2      -56.7240  -16.9810  -47.9440 C.ar   52  TRP52       0.0191
     28  CZ3      -57.1260  -19.3460  -47.6420 C.ar   52  TRP52       0.0001
     29  CH2      -57.5900  -18.0390  -47.8310 C.ar   52  TRP52       0.0015
     30  N        -50.5580  -21.2400  -44.7490 N.am   53  ASP53      -0.1960
     31  CA       -49.8460  -22.4660  -44.4190 C.3    53  ASP53       0.1840
     32  C        -50.2360  -22.9170  -43.0170 C.2    53  ASP53       0.2622
     33  O        -51.0240  -22.2560  -42.3410 O.2    53  ASP53      -0.2715
     34  CB       -48.3380  -22.2180  -44.5010 C.3    53  ASP53       0.1450
     35  CG       -47.8770  -21.8410  -45.9090 C.2    53  ASP53       0.3671
     36  OD1      -48.0720  -22.6450  -46.8400 O.co2  53  ASP53      -0.2456
     37  OD2      -47.3100  -20.7420  -46.0930 O.co2  53  ASP53      -0.2456
     38  N        -49.7020  -24.0550  -42.5890 N.am   54  ASN54      -0.1972
     39  CA       -49.8520  -24.5120  -41.2080 C.3    54  ASN54       0.1688
     40  C        -48.5060  -24.3950  -40.4990 C.2    54  ASN54       0.2292
     41  O        -47.5130  -24.9890  -40.9350 O.2    54  ASN54      -0.2864
     42  CB       -50.3370  -25.9590  -41.1600 C.3    54  ASN54       0.1181
     43  CG       -51.6410  -26.1650  -41.9030 C.2    54  ASN54       0.2629
     44  OD1      -52.5300  -25.3140  -41.8750 O.2    54  ASN54      -0.2716
     45  ND2      -51.7620  -27.3030  -42.5710 N.am   54  ASN54      -0.0877
     46  N        -54.0750  -23.0370  -43.6150 N.3    89  ALA89      -0.1231
     47  CA       -54.3230  -23.6600  -44.9170 C.3    89  ALA89       0.1694
     48  C        -55.8050  -23.9960  -45.0340 C.2    89  ALA89       0.2593
     49  O        -56.1810  -25.1620  -45.1450 O.2    89  ALA89      -0.2718
     50  CB       -53.4800  -24.9160  -45.0630 C.3    89  ALA89       0.0304
     51  N        -56.6430  -22.9650  -45.0070 N.am   90  THR90      -0.1939
     52  CA       -58.0870  -23.1360  -44.8590 C.3    90  THR90       0.2028
     53  C        -58.7790  -21.7660  -44.8350 C.2    90  THR90       0.2642
     54  O        -58.1760  -20.7690  -44.4450 O.2    90  THR90      -0.2714
     55  CB       -58.4120  -23.9100  -43.5500 C.3    90  THR90       0.1808
     56  OG1      -59.8180  -23.8680  -43.2770 O.3    90  THR90      -0.2208
     57  CG2      -57.6440  -23.3170  -42.3650 C.3    90  THR90       0.0379
     58  N        -60.0410  -21.7160  -45.2570 N.am   91  THR91      -0.1950
     59  CA       -60.8330  -20.4950  -45.1410 C.3    91  THR91       0.1897
     60  C        -61.4890  -20.3760  -43.7590 C.2    91  THR91       0.2313
     61  O        -62.0960  -19.3580  -43.4530 O.2    91  THR91      -0.2863
     62  CB       -61.9000  -20.3920  -46.2540 C.3    91  THR91       0.1794
     63  OG1      -62.7540  -21.5450  -46.2310 O.3    91  THR91      -0.2208
     64  CG2      -61.2280  -20.2680  -47.6270 C.3    91  THR91       0.0378
     65  N        -61.8830  -14.4610  -45.5100 N.3   216  ARG216     -0.1231
     66  CA       -60.5190  -14.2260  -45.9930 C.3   216  ARG216      0.1694
     67  C        -60.4580  -13.7580  -47.4520 C.2   216  ARG216      0.2592
     68  O        -59.3880  -13.7920  -48.0660 O.2   216  ARG216     -0.2718
     69  CB       -59.6890  -15.5030  -45.8620 C.3   216  ARG216      0.0321
     70  CG       -59.7350  -16.1690  -44.4990 C.3   216  ARG216      0.0489
     71  CD       -58.6840  -17.2610  -44.4070 C.3   216  ARG216      0.2205
     72  NE       -57.3330  -16.7090  -44.4740 N.pl3 216  ARG216     -0.0865
     73  CZ       -56.2090  -17.4200  -44.4130 C.cat 216  ARG216      0.5346
     74  NH1      -56.2370  -18.7390  -44.2790 N.pl3 216  ARG216      0.1354
     75  NH2      -55.0410  -16.7980  -44.4830 N.pl3 216  ARG216      0.1354
     76  N        -61.5960  -13.3320  -48.0020 N.am  217  ASP217     -0.1960
     77  CA       -61.6630  -12.7730  -49.3570 C.3   217  ASP217      0.1825
     78  C        -61.8390  -11.2610  -49.2390 C.2   217  ASP217      0.2464
     79  O        -62.9020  -10.8000  -48.8200 O.2   217  ASP217     -0.2730
     80  CB       -62.8340  -13.3890  -50.1320 C.3   217  ASP217      0.1450
     81  CG       -62.8060  -13.0550  -51.6270 C.2   217  ASP217      0.3671
     82  OD1      -63.7210  -13.5040  -52.3490 O.co2 217  ASP217     -0.2456
     83  OD2      -61.8790  -12.3510  -52.0870 O.co2 217  ASP217     -0.2456
     84  N        -60.7990  -10.4790  -49.5880 N.am  218  PRO218     -0.2727
     85  CA       -60.9120   -9.0170  -49.4420 C.3   218  PRO218      0.1402
     86  C        -61.9450   -8.3410  -50.3530 C.2   218  PRO218      0.2269
     87  O        -62.3210   -7.2010  -50.0910 O.2   218  PRO218     -0.2865
     88  CB       -59.4970   -8.5050  -49.7750 C.3   218  PRO218      0.0296
     89  CG       -58.6070   -9.6940  -49.6930 C.3   218  PRO218      0.0237
     90  CD       -59.4520  -10.8800  -50.0370 C.3   218  PRO218      0.0939
@<TRIPOS>BOND
     1    82    81   ar
     2    83    81   ar
     3    81    80    1
     4    86    87    2
     5    86    85    1
     6    80    77    1
     7    90    89    1
     8    90    84    1
     9    88    89    1
    10    88    85    1
    11    84    85    1
    12    84    78   am
    13    77    78    1
    14    77    76    1
    15    78    79    2
    16    68    67    2
    17    76    67   am
    18    24    25   ar
    19    24    22   ar
    20    27    25   ar
    21    27    29   ar
    22    25    23   ar
    23    29    28   ar
    24    22    21   ar
    25    23    21   ar
    26    23    26   ar
    27    21    20    1
    28    28    26   ar
    29    64    62    1
    30    20    17    1
    31    67    66    1
    32    36    35   ar
    33    19    18    2
    34    62    63    1
    35    62    59    1
    36    37    35   ar
    37    17    18    1
    38    17    16    1
    39    66    69    1
    40    66    65    1
    41    35    34    1
    42    69    70    1
    43    18    30   am
    44     7     6    2
    45     8     6   am
    46    58    59    1
    47    58    53   am
    48     6     5    1
    49    49    48    2
    50    59    60    1
    51    50    47    1
    52    14    13    1
    53    48    51   am
    54    48    47    1
    55    51    52    1
    56    47    46    1
    57    52    53    1
    58    52    55    1
    59    53    54    2
    60    15    13    1
    61    30    31    1
    62    34    31    1
    63    70    71    1
    64    75    73    1
    65    72    73    2
    66    72    71    1
    67    31    32    1
    68    73    74    1
    69    13    10    1
    70     5     2    1
    71    60    61    2
    72    55    56    1
    73    55    57    1
    74    10     9    1
    75    10    11    1
    76    32    38   am
    77    32    33    2
    78     4     3    2
    79     2     3    1
    80     2     1    1
    81    38    39    1
    82    45    43   am
    83    11    12    2
    84    43    44    2
    85    43    42    1
    86    39    42    1
    87    39    40    1
    88    41    40    2
