@<TRIPOS>MOLECULE
tmp/3pgiA00.pdb
 152 140 0 0 0
SMALL
GASTEIGER

@<TRIPOS>ATOM
      1  N          1.4250   -6.3520   11.3530 N.3    33  ASP33      -0.1239
      2  CA         1.5450   -5.3790   10.2790 C.3    33  ASP33       0.1674
      3  C          2.8650   -4.6460   10.4300 C.2    33  ASP33       0.2266
      4  O          2.9780   -3.7810   11.3010 O.2    33  ASP33      -0.2867
      5  CB         0.3420   -4.4430   10.3440 C.3    33  ASP33       0.1410
      6  CG         0.2040   -3.4300    9.2390 C.2    33  ASP33       0.3668
      7  OD1        1.1480   -3.2830    8.4300 O.co2  33  ASP33      -0.2456
      8  OD2       -0.8500   -2.7560    9.1900 O.co2  33  ASP33      -0.2456
      9  N          5.3740   -1.9430    9.9390 N.3    35  ASP35      -0.1239
     10  CA         5.0650   -0.5510    9.6410 C.3    35  ASP35       0.1674
     11  C          6.3030    0.3130    9.6800 C.2    35  ASP35       0.2266
     12  O          6.8030    0.6490   10.7590 O.2    35  ASP35      -0.2867
     13  CB         4.0120   -0.0790   10.6570 C.3    35  ASP35       0.1410
     14  CG         3.5730    1.3610   10.4940 C.2    35  ASP35       0.3668
     15  OD1        3.8830    1.9600    9.4370 O.co2  35  ASP35      -0.2456
     16  OD2        2.9180    1.8940   11.4350 O.co2  35  ASP35      -0.2456
     17  N          6.3620    3.2500    9.1180 N.3    37  GLY37      -0.1225
     18  CA         5.7940    4.5220    9.4950 C.3    37  GLY37       0.1811
     19  C          5.6520    4.7490   10.9850 C.2    37  GLY37       0.2280
     20  O          5.2600    5.8320   11.4400 O.2    37  GLY37      -0.2866
     21  N         -2.3350    6.9670   15.4800 N.3    79  TYR79      -0.1227
     22  CA        -1.7800    7.0110   14.1250 C.3    79  TYR79       0.1736
     23  C         -2.3800    8.1510   13.3240 C.2    79  TYR79       0.2596
     24  O         -3.3800    8.7350   13.7400 O.2    79  TYR79      -0.2718
     25  CB        -1.9990    5.6610   13.4370 C.3    79  TYR79       0.0548
     26  CG        -1.2920    4.5310   14.1720 C.ar   79  TYR79      -0.0200
     27  CD1       -1.9570    3.7430   15.0910 C.ar   79  TYR79      -0.0009
     28  CD2        0.0590    4.2630   13.9370 C.ar   79  TYR79      -0.0009
     29  CE1       -1.2990    2.7160   15.7570 C.ar   79  TYR79       0.0417
     30  CE2        0.7290    3.2450   14.5890 C.ar   79  TYR79       0.0417
     31  CZ         0.0350    2.4800   15.5030 C.ar   79  TYR79       0.1957
     32  OH         0.6540    1.4550   16.1680 O.3    79  TYR79      -0.2866
     33  N         -1.7470    8.4430   12.1930 N.am   80  GLY80      -0.1942
     34  CA        -2.1670    9.5050   11.2990 C.3    80  GLY80       0.2014
     35  C         -3.5790    9.3280   10.7830 C.2    80  GLY80       0.2638
     36  O         -4.2170   10.2950   10.3630 O.2    80  GLY80      -0.2714
     37  N         -4.1030    8.1030   10.8080 N.am   81  ASP81      -0.1971
     38  CA        -5.4590    7.8490   10.3260 C.3    81  ASP81       0.1709
     39  C         -6.5140    7.9380   11.4210 C.2    81  ASP81       0.2293
     40  O         -7.6680    7.5710   11.2050 O.2    81  ASP81      -0.2864
     41  CB        -5.5310    6.4700    9.6570 C.3    81  ASP81       0.1436
     42  CG        -5.1450    5.3360   10.5800 C.2    81  ASP81       0.3671
     43  OD1       -5.0950    5.5660   11.8090 O.co2  81  ASP81      -0.2456
     44  OD2       -4.8970    4.2220   10.0700 O.co2  81  ASP81      -0.2456
     45  N         -6.6050    6.1480   14.1060 N.3    83  SER83      -0.1217
     46  CA        -6.7020    4.9330   14.9200 C.3    83  SER83       0.1889
     47  C         -5.7380    5.0570   16.1000 C.2    83  SER83       0.2288
     48  O         -4.8920    5.9550   16.0820 O.2    83  SER83      -0.2866
     49  CB        -6.4060    3.6640   14.1230 C.3    83  SER83       0.2089
     50  OG        -5.1440    3.7090   13.4860 O.3    83  SER83      -0.2183
     51  N        -11.2360    0.4920   14.6250 N.3   115  SER115     -0.1202
     52  CA       -10.7470    0.0180   13.3300 C.3   115  SER115      0.2020
     53  C         -9.8390   -1.1890   13.4830 C.2   115  SER115      0.2618
     54  O         -9.7680   -2.0320   12.5810 O.2   115  SER115     -0.2717
     55  CB       -10.0360    1.1590   12.5960 C.3   115  SER115      0.2103
     56  OG        -8.8660    1.5470   13.3010 O.3   115  SER115     -0.2182
     57  N         -9.1460   -1.2940   14.6210 N.am  116  PHE116     -0.1975
     58  CA        -8.3060   -2.4630   14.8940 C.3   116  PHE116      0.1639
     59  C         -9.1700   -3.6560   15.2780 C.2   116  PHE116      0.2290
     60  O         -8.9930   -4.7790   14.8080 O.2   116  PHE116     -0.2864
     61  CB        -7.2680   -2.1450   15.9690 C.3   116  PHE116      0.0560
     62  CG        -6.1390   -1.2220   15.5150 C.ar  116  PHE116     -0.0200
     63  CD1       -5.2110   -1.6320   14.5730 C.ar  116  PHE116     -0.0042
     64  CD2       -6.0080    0.0590   16.0360 C.ar  116  PHE116     -0.0042
     65  CE1       -4.1880   -0.7970   14.1650 C.ar  116  PHE116     -0.0003
     66  CE2       -4.9920    0.8990   15.6360 C.ar  116  PHE116     -0.0003
     67  CZ        -4.0690    0.4740   14.6960 C.ar  116  PHE116     -0.0000
     68  N         -5.3780   -8.5970   11.6810 N.3   122  ILE122     -0.1245
     69  CA        -4.1400   -7.9710   12.1770 C.3   122  ILE122      0.1561
     70  C         -4.0870   -8.0870   13.6910 C.2   122  ILE122      0.2260
     71  O         -4.9650   -7.6100   14.4110 O.2   122  ILE122     -0.2867
     72  CB        -4.0210   -6.5180   11.6740 C.3   122  ILE122      0.0252
     73  CG1       -3.7880   -6.4540   10.1610 C.3   122  ILE122      0.0019
     74  CG2       -2.9560   -5.7480   12.4210 C.3   122  ILE122      0.0019
     75  CD1       -4.0270   -5.0940    9.5450 C.3   122  ILE122      0.0001
     76  N          1.0470   -4.4330   15.5110 N.3   125  LEU125     -0.1245
     77  CA         2.0010   -3.8190   14.5920 C.3   125  LEU125      0.1561
     78  C          3.4360   -4.0510   15.0790 C.2   125  LEU125      0.2260
     79  O          3.6820   -4.1650   16.2830 O.2   125  LEU125     -0.2867
     80  CB         1.8000   -2.3060   14.4270 C.3   125  LEU125      0.0270
     81  CG         0.8180   -1.8440   13.3540 C.3   125  LEU125      0.0019
     82  CD1       -0.5800   -2.3680   13.6770 C.3   125  LEU125      0.0001
     83  CD2        0.7840   -0.3310   13.2100 C.3   125  LEU125      0.0001
     84  N         11.1000    9.4170   10.5730 N.3   194  PHE194     -0.1241
     85  CA        10.6090    8.6010    9.4710 C.3   194  PHE194      0.1605
     86  C         11.6880    8.2450    8.4520 C.2   194  PHE194      0.2264
     87  O         12.7790    8.8090    8.4620 O.2   194  PHE194     -0.2867
     88  CB         9.4750    9.3360    8.7470 C.3   194  PHE194      0.0534
     89  CG         8.2510    9.6370    9.5910 C.ar  194  PHE194     -0.0203
     90  CD1        7.8650   10.9530    9.7930 C.ar  194  PHE194     -0.0042
     91  CD2        7.5050    8.6360   10.1760 C.ar  194  PHE194     -0.0042
     92  CE1        6.7560   11.2490   10.5600 C.ar  194  PHE194     -0.0003
     93  CE2        6.3940    8.9170   10.9490 C.ar  194  PHE194     -0.0003
     94  CZ         6.0240   10.2350   11.1510 C.ar  194  PHE194     -0.0000
     95  N          7.6180   10.1140    2.8160 N.3   217  ILE217     -0.1245
     96  CA         8.1370    8.9940    3.5850 C.3   217  ILE217      0.1561
     97  C          7.8010    7.6470    2.9570 C.2   217  ILE217      0.2260
     98  O          6.7370    7.4390    2.3660 O.2   217  ILE217     -0.2867
     99  CB         7.5520    9.0310    4.9980 C.3   217  ILE217      0.0252
    100  CG1        6.0510    8.7490    5.0260 C.3   217  ILE217      0.0019
    101  CG2        7.8860   10.3570    5.6670 C.3   217  ILE217      0.0019
    102  CD1        5.5020    8.7120    6.4420 C.3   217  ILE217      0.0001
    103  N          6.4480    4.3410    3.6210 N.3   219  ASP219     -0.1239
    104  CA         5.6010    3.8560    4.7040 C.3   219  ASP219      0.1674
    105  C          4.8780    2.5680    4.3300 C.2   219  ASP219      0.2266
    106  O          3.8620    2.5340    3.6230 O.2   219  ASP219     -0.2867
    107  CB         4.6500    4.9800    5.1360 C.3   219  ASP219      0.1410
    108  CG         3.8580    4.5970    6.3680 C.2   219  ASP219      0.3668
    109  OD1        2.9640    5.3900    6.7170 O.co2 219  ASP219     -0.2456
    110  OD2        4.1360    3.5130    6.9360 O.co2 219  ASP219     -0.2456
    111  N          3.2080    0.8180    6.2550 N.3   221  GLY221     -0.1210
    112  CA         1.9980    0.6940    7.0430 C.3   221  GLY221      0.1956
    113  C          0.8400    1.5320    6.5350 C.2   221  GLY221      0.2613
    114  O         -0.2550    1.5250    7.0980 O.2   221  GLY221     -0.2717
    115  N          1.0600    2.2720    5.4620 N.am  222  THR222     -0.1938
    116  CA         0.0290    3.0520    4.7860 C.3   222  THR222      0.2028
    117  C         -0.2850    2.3930    3.4470 C.2   222  THR222      0.2642
    118  O          0.5960    2.0690    2.6450 O.2   222  THR222     -0.2714
    119  CB         0.4650    4.5150    4.5840 C.3   222  THR222      0.1808
    120  OG1        0.4580    5.2200    5.8320 O.3   222  THR222     -0.2208
    121  CG2       -0.5270    5.2710    3.7070 C.3   222  THR222      0.0379
    122  N         -1.5560    2.1750    3.1630 N.am  223  THR223     -0.1950
    123  CA        -1.9400    1.4420    1.9650 C.3   223  THR223      0.1897
    124  C         -1.7560    2.1820    0.6560 C.2   223  THR223      0.2313
    125  O         -1.3180    1.6030   -0.3310 O.2   223  THR223     -0.2863
    126  CB        -3.4420    1.0880    2.0770 C.3   223  THR223      0.1794
    127  OG1       -3.6940    0.6370    3.4070 O.3   223  THR223     -0.2208
    128  CG2       -3.7700   -0.0390    1.1240 C.3   223  THR223      0.0378
    129  N         -2.5740   16.2390    5.2400 N.3   300  ILE300     -0.1245
    130  CA        -1.8400   15.2320    5.9980 C.3   300  ILE300      0.1561
    131  C         -0.6180   15.8500    6.6580 C.2   300  ILE300      0.2260
    132  O         -0.2000   15.5540    7.7740 O.2   300  ILE300     -0.2867
    133  CB        -1.3260   14.0650    5.1280 C.3   300  ILE300      0.0252
    134  CG1       -2.4270   13.1340    4.6330 C.3   300  ILE300      0.0019
    135  CG2       -0.2460   13.2900    5.8770 C.3   300  ILE300      0.0019
    136  CD1       -1.9110   12.0960    3.6570 C.3   300  ILE300      0.0001
    137  N          2.2580   15.6940    5.1470 N.3   302  ILE302     -0.1245
    138  CA         3.4270   15.0370    4.5610 C.3   302  ILE302      0.1561
    139  C          3.0120   14.1300    3.4130 C.2   302  ILE302      0.2260
    140  O          1.8670   13.6740    3.3790 O.2   302  ILE302     -0.2867
    141  CB         4.1920   14.2210    5.6260 C.3   302  ILE302      0.0252
    142  CG1        5.6050   13.8210    5.2200 C.3   302  ILE302      0.0019
    143  CG2        3.3730   13.0050    6.0440 C.3   302  ILE302      0.0019
    144  CD1        6.4530   14.9230    4.6180 C.3   302  ILE302      0.0001
    145  N          3.1510   10.5930    1.4270 N.3   304  ILE304     -0.1245
    146  CA         3.3670    9.2110    1.8470 C.3   304  ILE304      0.1561
    147  C          3.4430    8.2510    0.6600 C.2   304  ILE304      0.2260
    148  O          2.4680    8.0880   -0.0730 O.2   304  ILE304     -0.2867
    149  CB         2.2750    8.7280    2.8110 C.3   304  ILE304      0.0252
    150  CG1        2.0730    9.6530    4.0050 C.3   304  ILE304      0.0019
    151  CG2        2.5670    7.3100    3.2740 C.3   304  ILE304      0.0019
    152  CD1        0.9830    9.1920    4.9490 C.3   304  ILE304      0.0001
@<TRIPOS>BOND
     1   125   124    2
     2   148   147    2
     3   124   123    1
     4   147   146    1
     5   128   126    1
     6   145   146    1
     7   146   149    1
     8   123   126    1
     9   123   122    1
    10   126   127    1
    11    98    97    2
    12   118   117    2
    13   149   151    1
    14   149   150    1
    15    95    96    1
    16    97    96    1
    17   122   117   am
    18   140   139    2
    19   139   138    1
    20   117   116    1
    21    96    99    1
    22   103   104    1
    23   106   105    2
    24   136   134    1
    25   121   119    1
    26   150   152    1
    27   105   104    1
    28   138   137    1
    29   138   141    1
    30   119   116    1
    31   119   120    1
    32   144   142    1
    33   134   133    1
    34   104   107    1
    35   116   115    1
    36    99   100    1
    37    99   101    1
    38   100   102    1
    39   133   135    1
    40   133   130    1
    41   107   108    1
    42   142   141    1
    43   129   130    1
    44   115   113   am
    45   141   143    1
    46   130   131    1
    47   111   112    1
    48   108   109   ar
    49   108   110   ar
    50   113   112    1
    51   113   114    2
    52   131   132    2
    53     7     6   ar
    54    86    87    2
    55    86    85    1
    56    88    85    1
    57    88    89    1
    58    17    18    1
    59     8     6   ar
    60     6     5    1
    61    15    14   ar
    62    85    84    1
    63    18    19    1
    64    75    73    1
    65    89    90   ar
    66    89    91   ar
    67    10    11    1
    68    10     9    1
    69    10    13    1
    70    41    38    1
    71    41    42    1
    72    11    12    2
    73    90    92   ar
    74    44    42   ar
    75    73    72    1
    76    91    93   ar
    77     2     5    1
    78     2     3    1
    79     2     1    1
    80    38    37    1
    81    38    39    1
    82    36    35    2
    83     3     4    2
    84    14    13    1
    85    14    16   ar
    86    92    94   ar
    87    42    43   ar
    88    35    37   am
    89    35    34    1
    90    93    94   ar
    91    19    20    2
    92    40    39    2
    93    34    33    1
    94    72    69    1
    95    72    74    1
    96    68    69    1
    97    69    70    1
    98    33    23   am
    99    54    53    2
   100    55    56    1
   101    55    52    1
   102    83    81    1
   103    23    24    2
   104    23    22    1
   105    52    53    1
   106    52    51    1
   107    81    82    1
   108    81    80    1
   109    25    22    1
   110    25    26    1
   111    53    57   am
   112    50    49    1
   113    70    71    2
   114    28    26   ar
   115    28    30   ar
   116    45    46    1
   117    49    46    1
   118    22    21    1
   119    65    63   ar
   120    65    67   ar
   121    26    27   ar
   122    80    77    1
   123    63    62   ar
   124    30    31   ar
   125    77    78    1
   126    77    76    1
   127    57    58    1
   128    67    66   ar
   129    60    59    2
   130    58    59    1
   131    58    61    1
   132    46    47    1
   133    78    79    2
   134    27    29   ar
   135    31    29   ar
   136    31    32    1
   137    62    61    1
   138    62    64   ar
   139    66    64   ar
   140    48    47    2
