@<TRIPOS>MOLECULE
tmp/3pgjA00.pdb
 111 103 0 0 0
SMALL
GASTEIGER

@<TRIPOS>ATOM
      1  N          4.8110   -7.9650   39.4060 N.3     6  VAL6       -0.1245
      2  CA         6.0760   -7.7670   38.7190 C.3     6  VAL6        0.1561
      3  C          7.0870   -8.6140   39.4740 C.2     6  VAL6        0.2260
      4  O          7.1200   -8.5920   40.7090 O.2     6  VAL6       -0.2867
      5  CB         6.5840   -6.3220   38.7530 C.3     6  VAL6        0.0252
      6  CG1        6.8440   -5.8670   40.1950 C.3     6  VAL6        0.0019
      7  CG2        7.8580   -6.2140   37.9350 C.3     6  VAL6        0.0019
      8  N         10.3940   -1.4900   42.7540 N.3    14  SER14      -0.1202
      9  CA         9.8890   -1.3360   41.4180 C.3    14  SER14       0.2020
     10  C          8.8420   -0.2580   41.5240 C.2    14  SER14       0.2619
     11  O          8.2490   -0.0860   42.5830 O.2    14  SER14      -0.2717
     12  CB         9.2230   -2.6280   40.9540 C.3    14  SER14       0.2103
     13  OG         8.6310   -2.4660   39.6840 O.3    14  SER14      -0.2182
     14  N          8.6290    0.4800   40.4430 N.am   15  LYS15      -0.1965
     15  CA         7.6230    1.5360   40.4220 C.3    15  LYS15       0.1728
     16  C          6.3600    0.9920   39.7700 C.2    15  LYS15       0.2616
     17  O          5.3240    1.6430   39.7800 O.2    15  LYS15      -0.2715
     18  CB         8.1480    2.7750   39.6920 C.3    15  LYS15       0.0311
     19  CG         9.3150    3.4730   40.4140 C.3    15  LYS15       0.0038
     20  CD         9.8900    4.6390   39.5960 C.3    15  LYS15       0.0206
     21  CE        10.9260    5.4610   40.3810 C.3    15  LYS15       0.1093
     22  NZ        12.0680    4.6630   40.8730 N.3    15  LYS15      -0.1314
     23  N          6.4390   -0.2190   39.2250 N.am   16  SER16      -0.1950
     24  CA         5.2860   -0.8350   38.5710 C.3    16  SER16       0.1924
     25  C          4.0400   -0.9540   39.4420 C.2    16  SER16       0.2314
     26  O          2.9360   -0.7640   38.9440 O.2    16  SER16      -0.2863
     27  CB         5.6550   -2.1770   37.9500 C.3    16  SER16       0.2116
     28  OG         6.5820   -1.9800   36.9010 O.3    16  SER16      -0.2180
     29  N          4.5920   -8.7710   34.9630 N.3    59  ASN59      -0.1225
     30  CA         5.7480   -8.2080   34.3020 C.3    59  ASN59       0.1785
     31  C          6.9560   -8.9160   34.8470 C.2    59  ASN59       0.2597
     32  O          6.9340   -9.4390   35.9650 O.2    59  ASN59      -0.2718
     33  CB         5.8760   -6.7090   34.5570 C.3    59  ASN59       0.1169
     34  CG         4.9140   -5.8980   33.7460 C.2    59  ASN59       0.2627
     35  OD1        4.4030   -4.8840   34.2070 O.2    59  ASN59      -0.2716
     36  ND2        4.6480   -6.3490   32.5240 N.am   59  ASN59      -0.0877
     37  N          8.0160   -8.9250   34.0560 N.am   60  VAL60      -0.1966
     38  CA         9.2430   -9.5710   34.4490 C.3    60  VAL60       0.1727
     39  C         10.3550   -8.5880   34.1780 C.2    60  VAL60       0.2617
     40  O         10.4340   -8.0230   33.0900 O.2    60  VAL60      -0.2715
     41  CB         9.4750  -10.8530   33.6340 C.3    60  VAL60       0.0290
     42  CG1       10.7190  -11.5660   34.1200 C.3    60  VAL60       0.0023
     43  CG2        8.2820  -11.7770   33.7520 C.3    60  VAL60       0.0023
     44  N         11.2080   -8.3710   35.1730 N.am   61  THR61      -0.1937
     45  CA        12.3170   -7.4510   35.0260 C.3    61  THR61       0.2028
     46  C         13.5460   -8.2620   34.7130 C.2    61  THR61       0.2642
     47  O         13.5090   -9.4910   34.7970 O.2    61  THR61      -0.2714
     48  CB        12.5890   -6.6990   36.3250 C.3    61  THR61       0.1808
     49  OG1       12.9410   -7.6430   37.3430 O.3    61  THR61      -0.2208
     50  CG2       11.3670   -5.8980   36.7590 C.3    61  THR61       0.0379
     51  N         14.6310   -7.5780   34.3470 N.am   62  VAL62      -0.1977
     52  CA        15.8770   -8.2530   34.0470 C.3    62  VAL62       0.1596
     53  C         16.4270   -8.7620   35.3790 C.2    62  VAL62       0.2287
     54  O         16.1970   -8.1470   36.4110 O.2    62  VAL62      -0.2864
     55  CB        16.9190   -7.3110   33.3910 C.3    62  VAL62       0.0276
     56  CG1       16.4170   -6.8100   32.0390 C.3    62  VAL62       0.0022
     57  CG2       17.2550   -6.1440   34.3200 C.3    62  VAL62       0.0022
     58  N         13.9200  -12.0450   31.9070 N.3    65  LYS65      -0.1245
     59  CA        13.1540  -11.9810   30.6670 C.3    65  LYS65       0.1561
     60  C         13.3630  -13.1850   29.7540 C.2    65  LYS65       0.2260
     61  O         12.4120  -13.6530   29.1320 O.2    65  LYS65      -0.2867
     62  CB        13.4070  -10.6640   29.9220 C.3    65  LYS65       0.0271
     63  CG        12.9770   -9.4410   30.7270 C.3    65  LYS65       0.0035
     64  CD        13.1620   -8.1350   29.9770 C.3    65  LYS65       0.0206
     65  CE        12.7030   -6.9560   30.8350 C.3    65  LYS65       0.1093
     66  NZ        12.8720   -5.6310   30.1490 N.3    65  LYS65      -0.1314
     67  N          8.7550   -9.5010   28.8040 N.3    86  ASN86      -0.1240
     68  CA         8.6020   -8.6920   30.0130 C.3    86  ASN86       0.1653
     69  C          7.1450   -8.7460   30.4750 C.2    86  ASN86       0.2266
     70  O          6.8010   -8.1790   31.5110 O.2    86  ASN86      -0.2867
     71  CB         8.9580   -7.2210   29.8040 C.3    86  ASN86       0.1155
     72  CG         7.9200   -6.4720   28.9920 C.2    86  ASN86       0.2627
     73  OD1        7.1270   -7.0690   28.2580 O.2    86  ASN86      -0.2716
     74  ND2        7.9170   -5.1460   29.1210 N.am   86  ASN86      -0.0877
     75  N          8.5070   -3.4690   26.0670 N.3   102  ASP102     -0.1239
     76  CA         9.5630   -2.4520   26.1770 C.3   102  ASP102      0.1674
     77  C          9.7120   -1.5840   24.9180 C.2   102  ASP102      0.2266
     78  O          9.7160   -0.3550   24.9900 O.2   102  ASP102     -0.2867
     79  CB        10.9070   -3.1100   26.5260 C.3   102  ASP102      0.1410
     80  CG        10.9650   -3.6210   27.9660 C.2   102  ASP102      0.3668
     81  OD1       11.6240   -4.6570   28.2190 O.co2 102  ASP102     -0.2456
     82  OD2       10.3410   -2.9970   28.8560 O.co2 102  ASP102     -0.2456
     83  N         16.9630    6.9890   33.7420 N.3   215  TYR215     -0.1241
     84  CA        16.2660    8.1790   34.2260 C.3   215  TYR215      0.1605
     85  C         16.6610    8.5370   35.6550 C.2   215  TYR215      0.2264
     86  O         17.1830    7.7090   36.3920 O.2   215  TYR215     -0.2867
     87  CB        14.7490    7.9740   34.1530 C.3   215  TYR215      0.0534
     88  CG        14.2610    6.7490   34.9010 C.ar  215  TYR215     -0.0201
     89  CD1       14.0090    5.5610   34.2300 C.ar  215  TYR215     -0.0009
     90  CD2       14.0780    6.7720   36.2830 C.ar  215  TYR215     -0.0009
     91  CE1       13.5720    4.4340   34.9040 C.ar  215  TYR215      0.0417
     92  CE2       13.6460    5.6460   36.9670 C.ar  215  TYR215      0.0417
     93  CZ        13.3940    4.4820   36.2670 C.ar  215  TYR215      0.1957
     94  OH        12.9600    3.3590   36.9280 O.3   215  TYR215     -0.2866
     95  N          9.3320    3.5150   30.6830 N.3   241  LEU241     -0.1245
     96  CA         8.8760    2.7090   31.8050 C.3   241  LEU241      0.1561
     97  C          7.3450    2.7380   31.9110 C.2   241  LEU241      0.2260
     98  O          6.7000    1.7060   31.9940 O.2   241  LEU241     -0.2867
     99  CB         9.4840    3.2550   33.1020 C.3   241  LEU241      0.0270
    100  CG         9.0860    2.5620   34.4020 C.3   241  LEU241      0.0019
    101  CD1        9.4790    1.0850   34.3930 C.3   241  LEU241      0.0001
    102  CD2        9.7320    3.2820   35.5630 C.3   241  LEU241      0.0001
    103  N          5.7420    1.1360   28.5680 N.3   244  GLN244     -0.1245
    104  CA         5.7320   -0.3390   28.4970 C.3   244  GLN244      0.1566
    105  C          4.6770   -0.8590   29.4690 C.2   244  GLN244      0.2260
    106  O          4.0400   -1.8920   29.2250 O.2   244  GLN244     -0.2867
    107  CB         7.1200   -0.9450   28.7770 C.3   244  GLN244      0.0367
    108  CG         7.6870   -0.8050   30.2100 C.3   244  GLN244      0.0905
    109  CD         7.0180   -1.7220   31.2230 C.2   244  GLN244      0.2608
    110  OE1        6.5540   -2.8060   30.8800 O.2   244  GLN244     -0.2717
    111  NE2        7.0090   -1.3100   32.4860 N.am  244  GLN244     -0.0878
@<TRIPOS>BOND
     1    77    78    2
     2    77    76    1
     3    75    76    1
     4    76    79    1
     5    79    80    1
     6    80    81   ar
     7    80    82   ar
     8    73    72    2
     9   104   103    1
    10   104   107    1
    11   104   105    1
    12   107   108    1
    13    67    68    1
    14    72    74   am
    15    72    71    1
    16    61    60    2
    17   106   105    2
    18    60    59    1
    19    71    68    1
    20    62    59    1
    21    62    63    1
    22    64    63    1
    23    64    65    1
    24    68    69    1
    25    66    65    1
    26   108   109    1
    27    69    70    2
    28    59    58    1
    29    95    96    1
    30   110   109    2
    31   109   111   am
    32    96    97    1
    33    96    99    1
    34    97    98    2
    35    56    55    1
    36    36    34   am
    37    40    39    2
    38    99   100    1
    39    55    52    1
    40    55    57    1
    41    41    43    1
    42    41    42    1
    43    41    38    1
    44    83    84    1
    45    34    35    2
    46    34    33    1
    47    52    51    1
    48    52    53    1
    49    37    38    1
    50    37    31   am
    51    87    84    1
    52    87    88    1
    53    39    38    1
    54    39    44   am
    55    84    85    1
    56    89    88   ar
    57    89    91   ar
    58    30    33    1
    59    30    31    1
    60    30    29    1
    61    51    46   am
    62   101   100    1
    63   100   102    1
    64    46    47    2
    65    46    45    1
    66    31    32    2
    67    88    90   ar
    68    91    93   ar
    69    45    44    1
    70    45    48    1
    71    53    54    2
    72    85    86    2
    73    93    94    1
    74    93    92   ar
    75    90    92   ar
    76    48    50    1
    77    48    49    1
    78    28    27    1
    79     7     5    1
    80    27    24    1
    81    24    23    1
    82    24    25    1
    83     2     5    1
    84     2     1    1
    85     2     3    1
    86     5     6    1
    87    26    25    2
    88    23    16   am
    89     3     4    2
    90    20    21    1
    91    20    19    1
    92    13    12    1
    93    18    19    1
    94    18    15    1
    95    16    17    2
    96    16    15    1
    97    21    22    1
    98    15    14    1
    99    14    10   am
   100    12     9    1
   101     9    10    1
   102     9     8    1
   103    10    11    2
