@<TRIPOS>MOLECULE
tmp/3pgkA00.pdb
 171 166 0 0 0
SMALL
GASTEIGER

@<TRIPOS>ATOM
      1  N         34.2780  -16.6320   19.2240 N.3   209  LEU209     -0.1231
      2  CA        33.0990  -15.7320   19.4030 C.3   209  LEU209      0.1693
      3  C         33.2220  -14.9140   20.7260 C.2   209  LEU209      0.2593
      4  O         33.2370  -15.4800   21.8290 O.2   209  LEU209     -0.2718
      5  CB        31.8000  -16.5230   19.3870 C.3   209  LEU209      0.0284
      6  CG        30.9130  -16.1260   18.2030 C.3   209  LEU209      0.0019
      7  CD1       29.6610  -16.9950   18.0740 C.3   209  LEU209      0.0001
      8  CD2       30.4090  -14.6840   18.2910 C.3   209  LEU209      0.0001
      9  N         33.3070  -13.5840   20.6280 N.am  210  GLY210     -0.1942
     10  CA        33.4410  -12.6900   21.8290 C.3   210  GLY210      0.2014
     11  C         32.0700  -12.1610   22.3620 C.2   210  GLY210      0.2639
     12  O         31.0210  -12.3540   21.7290 O.2   210  GLY210     -0.2714
     13  N         32.1610  -11.5030   23.5420 N.am  211  GLY211     -0.1939
     14  CA        31.0160  -10.8600   24.2820 C.3   211  GLY211      0.2014
     15  C         29.9070  -11.8630   24.5690 C.2   211  GLY211      0.2639
     16  O         29.8660  -12.9550   23.9820 O.2   211  GLY211     -0.2714
     17  N         29.0460  -11.4590   25.4700 N.am  212  ALA212     -0.1963
     18  CA        27.8980  -12.2660   25.8660 C.3   212  ALA212      0.1728
     19  C         26.7780  -12.0600   24.8580 C.2   212  ALA212      0.2612
     20  O         26.9500  -12.3070   23.6540 O.2   212  ALA212     -0.2715
     21  CB        27.4140  -11.8410   27.2530 C.3   212  ALA212      0.0334
     22  N         25.6900  -11.6200   25.4280 N.am  213  LYS213     -0.2032
     23  CA        24.4660  -11.2730   24.7180 C.3   213  LYS213      0.1248
     24  C         24.3120  -12.0700   23.4260 C.3   213  LYS213      0.1610
     25  O         25.2390  -12.1430   22.6050 O.3   213  LYS213     -0.3529
     26  CB        24.4830   -9.7780   24.4030 C.3   213  LYS213      0.0243
     27  CG        23.7380   -9.4150   23.1230 C.3   213  LYS213      0.0034
     28  CD        24.0050   -7.9780   22.6750 C.3   213  LYS213      0.0206
     29  CE        23.8140   -7.7760   21.1710 C.3   213  LYS213      0.1093
     30  NZ        25.0840   -7.6330   20.4450 N.3   213  LYS213     -0.1314
     31  N         20.8740  -13.1680   20.6280 N.3   215  ALA215     -0.2175
     32  CA        19.8720  -12.6050   19.6980 C.3   215  ALA215      0.0888
     33  C         19.9960  -13.5930   18.6380 C.3   215  ALA215      0.1244
     34  O         21.0690  -14.1800   18.4350 O.3   215  ALA215     -0.1175
     35  CB        20.2720  -11.1840   19.2940 C.3   215  ALA215      0.0203
     36  N         20.8630  -14.1740   18.9420 N.4   217  LYS217     -0.1240
     37  CA        22.0120  -14.0110   19.8100 C.3   217  LYS217      0.1673
     38  C         22.2190  -15.3990   20.2390 C.2   217  LYS217      0.2269
     39  O         23.3420  -15.9200   20.1870 O.2   217  LYS217     -0.2867
     40  CB        21.6630  -13.0860   20.9850 C.3   217  LYS217      0.0998
     41  CG        22.4510  -13.4070   22.2570 C.3   217  LYS217      0.0505
     42  CD        23.8930  -12.9020   22.2090 C.3   217  LYS217      0.1382
     43  CE        24.7830  -13.7240   21.2740 C.3   217  LYS217      0.1388
     44  NZ        26.1050  -13.1190   21.0600 N.3   217  LYS217     -0.1287
     45  N         22.5570  -17.3440   16.9990 N.3   220  LEU220     -0.1245
     46  CA        23.9240  -17.5290   16.6090 C.3   220  LEU220      0.1561
     47  C         24.4270  -18.8190   17.1760 C.2   220  LEU220      0.2260
     48  O         25.0710  -19.6150   16.4770 O.2   220  LEU220     -0.2867
     49  CB        24.8640  -16.4850   17.1810 C.3   220  LEU220      0.0270
     50  CG        26.2830  -17.0520   17.3140 C.3   220  LEU220      0.0019
     51  CD1       27.1590  -16.7630   16.0930 C.3   220  LEU220      0.0001
     52  CD2       27.0470  -16.4870   18.5130 C.3   220  LEU220      0.0001
     53  N         32.4520  -15.9610   25.4770 N.3   235  GLY235     -0.1225
     54  CA        32.5050  -15.4090   26.8410 C.3   235  GLY235      0.1811
     55  C         31.1030  -14.9400   27.2750 C.2   235  GLY235      0.2280
     56  O         30.5560  -13.9710   26.7270 O.2   235  GLY235     -0.2866
     57  N         28.4440  -14.8830   31.0750 N.3   237  MET237     -0.1245
     58  CA        28.3750  -14.7820   32.5550 C.3   237  MET237      0.1571
     59  C         27.8010  -16.0740   33.2240 C.2   237  MET237      0.2261
     60  O         28.3910  -16.6220   34.1660 O.2   237  MET237     -0.2867
     61  CB        27.4720  -13.6140   32.9580 C.3   237  MET237      0.0401
     62  CG        27.8200  -12.3130   32.2330 C.3   237  MET237      0.0771
     63  SD        29.0210  -11.3300   33.1050 S.3   237  MET237     -0.0597
     64  CE        29.9770  -12.3640   34.1940 C.3   237  MET237      0.0882
     65  N         28.0280    0.3890   33.2010 N.3   289  PHE289     -0.1241
     66  CA        28.2340   -0.4250   31.9590 C.3   289  PHE289      0.1605
     67  C         29.1320    0.3420   30.9930 C.2   289  PHE289      0.2264
     68  O         29.9030   -0.2560   30.2280 O.2   289  PHE289     -0.2867
     69  CB        26.8980   -0.7160   31.2340 C.3   289  PHE289      0.0534
     70  CG        27.0570   -1.1370   29.7450 C.ar  289  PHE289     -0.0203
     71  CD1       26.2430   -0.5590   28.7520 C.ar  289  PHE289     -0.0042
     72  CD2       28.0070   -2.1010   29.3650 C.ar  289  PHE289     -0.0042
     73  CE1       26.3790   -0.9400   27.4060 C.ar  289  PHE289     -0.0003
     74  CE2       28.1410   -2.4800   28.0170 C.ar  289  PHE289     -0.0003
     75  CZ        27.3270   -1.8990   27.0390 C.ar  289  PHE289     -0.0000
     76  N         25.0030   -9.4240   35.7940 N.3   308  TRP308     -0.1299
     77  CA        25.3590  -10.0410   34.5240 C.3   308  TRP308      0.1270
     78  C         26.8760  -10.2890   34.5980 C.3   308  TRP308      0.1761
     79  O         27.3730  -11.3410   34.1680 O.3   308  TRP308     -0.3091
     80  CB        24.9890   -9.0640   33.4100 C.3   308  TRP308      0.0496
     81  CG        24.0940   -9.6440   32.3150 C.ar  308  TRP308     -0.0001
     82  CD1       23.0910  -10.5320   32.4410 C.ar  308  TRP308      0.0946
     83  CD2       24.2040   -9.2990   30.9550 C.ar  308  TRP308      0.0152
     84  NE1       22.5620  -10.7520   31.1230 N.ar  308  TRP308     -0.2442
     85  CE2       23.2350  -10.0170   30.2680 C.ar  308  TRP308      0.0810
     86  CE3       25.0520   -8.4390   30.2560 C.ar  308  TRP308      0.0012
     87  CZ2       23.0660   -9.9240   28.8800 C.ar  308  TRP308      0.0191
     88  CZ3       24.8740   -8.3510   28.8620 C.ar  308  TRP308      0.0001
     89  CH2       23.9270   -9.0590   28.2070 C.ar  308  TRP308      0.0015
     90  N         32.2290   -7.1760   31.7810 N.3   311  LEU311     -0.1245
     91  CA        32.1910   -6.3790   30.5200 C.3   311  LEU311      0.1561
     92  C         33.2020   -6.8530   29.4590 C.2   311  LEU311      0.2260
     93  O         32.9660   -7.8380   28.7450 O.2   311  LEU311     -0.2867
     94  CB        32.5270   -4.9150   30.8200 C.3   311  LEU311      0.0270
     95  CG        31.4970   -3.9320   30.2580 C.3   311  LEU311      0.0019
     96  CD1       31.6580   -3.6910   28.7560 C.3   311  LEU311      0.0001
     97  CD2       30.0540   -4.4020   30.4510 C.3   311  LEU311      0.0001
     98  N         36.8290   -8.0950   27.7100 N.3   313  ASN313     -0.1240
     99  CA        37.8580   -9.1370   27.7470 C.3   313  ASN313      0.1653
    100  C         39.1510   -8.4840   28.2800 C.2   313  ASN313      0.2266
    101  O         39.7010   -7.5590   27.6640 O.2   313  ASN313     -0.2867
    102  CB        38.0310   -9.6640   26.3140 C.3   313  ASN313      0.1155
    103  CG        38.8560  -10.9500   26.2310 C.2   313  ASN313      0.2627
    104  OD1       38.3860  -12.0100   26.6400 O.2   313  ASN313     -0.2716
    105  ND2       40.0730  -10.9210   25.7200 N.am  313  ASN313     -0.0877
    106  N         32.6900  -13.4670   15.0230 N.3   334  ASN334     -0.1225
    107  CA        31.4330  -12.7170   14.7870 C.3   334  ASN334      0.1785
    108  C         31.4900  -11.2840   15.3840 C.2   334  ASN334      0.2598
    109  O         32.0240  -10.3530   14.7610 O.2   334  ASN334     -0.2718
    110  CB        30.2640  -13.4680   15.4300 C.3   334  ASN334      0.1169
    111  CG        29.0300  -12.5940   15.6590 C.2   334  ASN334      0.2627
    112  OD1       28.4830  -12.5790   16.7600 O.2   334  ASN334     -0.2716
    113  ND2       28.5510  -11.8560   14.6740 N.am  334  ASN334     -0.0877
    114  N         30.9330  -11.1680   16.5880 N.am  335  GLY335     -0.1943
    115  CA        30.8020   -9.8840   17.3150 C.3   335  GLY335      0.2002
    116  C         32.0730   -9.5080   18.0940 C.2   335  GLY335      0.2518
    117  O         33.0510  -10.2690   18.1250 O.2   335  GLY335     -0.2726
    118  N         32.0720   -8.3220   18.7380 N.am  336  PRO336     -0.2490
    119  CA        33.2240   -7.8320   19.5020 C.3   336  PRO336      0.1607
    120  C         33.5980   -8.7800   20.6250 C.2   336  PRO336      0.2485
    121  O         32.7090   -9.5540   21.1010 O.2   336  PRO336     -0.2727
    122  CB        32.7610   -6.4900   20.0270 C.3   336  PRO336      0.0569
    123  CG        31.3380   -6.2550   19.5370 C.2   336  PRO336     -0.0077
    124  CD        30.9090   -7.4290   18.7170 C.2   336  PRO336      0.0634
    125  N         34.8750   -8.7840   21.0990 N.am  337  PRO337     -0.2491
    126  CA        35.2620   -9.6650   22.1730 C.3   337  PRO337      0.1619
    127  C         34.3640   -9.3280   23.2810 C.2   337  PRO337      0.2606
    128  O         34.1730  -10.1820   24.2010 O.2   337  PRO337     -0.2715
    129  CB        36.7130   -9.3210   22.4260 C.3   337  PRO337      0.0570
    130  CG        37.1080   -8.2300   21.4420 C.2   337  PRO337     -0.0077
    131  CD        35.9260   -7.9050   20.5830 C.2   337  PRO337      0.0634
    132  N         33.8890   -8.1370   23.0980 N.am  338  GLY338     -0.1940
    133  CA        32.9660   -7.4970   23.9950 C.3   338  GLY338      0.2014
    134  C         32.7510   -6.0880   23.5080 C.2   338  GLY338      0.2638
    135  O         32.6540   -5.8370   22.2970 O.2   338  GLY338     -0.2714
    136  N         32.6730   -5.2160   24.4630 N.am  339  VAL339     -0.1977
    137  CA        32.4930   -3.8000   24.1960 C.3   339  VAL339      0.1596
    138  C         33.8400   -3.2330   23.7600 C.2   339  VAL339      0.2287
    139  O         34.5900   -2.6700   24.5710 O.2   339  VAL339     -0.2864
    140  CB        31.9980   -3.1200   25.4620 C.3   339  VAL339      0.0276
    141  CG1       32.7430   -1.8200   25.7700 C.3   339  VAL339      0.0022
    142  CG2       30.5160   -2.7450   25.3950 C.3   339  VAL339      0.0022
    143  N         34.3150   -0.9310   21.5210 N.3   341  GLU341     -0.1245
    144  CA        34.1570    0.4630   21.1180 C.3   341  GLU341      0.1567
    145  C         34.2040    1.4330   22.2940 C.2   341  GLU341      0.2260
    146  O         34.0040    2.6460   22.1310 O.2   341  GLU341     -0.2867
    147  CB        32.7930    0.6390   20.4830 C.3   341  GLU341      0.0388
    148  CG        31.7010   -0.0640   21.2880 C.3   341  GLU341      0.1160
    149  CD        30.7270   -0.8430   20.4100 C.2   341  GLU341      0.3649
    150  OE1       30.4990   -2.0900   20.6490 O.co2 341  GLU341     -0.2457
    151  OE2       30.1320   -0.2530   19.4300 O.co2 341  GLU341     -0.2457
    152  N         29.4090   -6.7660   11.4410 N.3   371  GLY371     -0.1210
    153  CA        29.1530   -5.3870   11.7240 C.3   371  GLY371      0.1956
    154  C         30.0710   -4.9660   12.8440 C.2   371  GLY371      0.2611
    155  O         31.0090   -4.1810   12.6410 O.2   371  GLY371     -0.2717
    156  N         29.7790   -5.5100   14.0010 N.am  372  ASP372     -0.1973
    157  CA        30.5100   -5.1500   15.2080 C.3   372  ASP372      0.1709
    158  C         31.9990   -5.3840   15.0210 C.2   372  ASP372      0.2293
    159  O         32.8200   -4.4800   15.2390 O.2   372  ASP372     -0.2864
    160  CB        30.0700   -6.0460   16.3710 C.3   372  ASP372      0.1436
    161  CG        28.5790   -5.9460   16.6940 C.2   372  ASP372      0.3671
    162  OD1       27.7030   -6.3200   15.8230 O.co2 372  ASP372     -0.2456
    163  OD2       28.1980   -5.4880   17.8380 O.co2 372  ASP372     -0.2456
    164  N         27.1290   -8.8640    7.7450 N.3   393  GLY393     -0.1210
    165  CA        27.5820   -9.1760    9.0760 C.3   393  GLY393      0.1956
    166  C         26.6380  -10.2110    9.6310 C.2   393  GLY393      0.2612
    167  O         27.0670  -11.2720   10.1060 O.2   393  GLY393     -0.2717
    168  N         25.3670   -9.8920    9.5680 N.am  394  GLY394     -0.1956
    169  CA        24.2670  -10.8210    9.9440 C.3   394  GLY394      0.1869
    170  C         23.9920  -12.0130    8.9680 C.2   394  GLY394      0.2309
    171  O         24.0050  -13.1860    9.3700 O.2   394  GLY394     -0.2863
@<TRIPOS>BOND
     1   164   165    1
     2   170   171    2
     3   170   169    1
     4   165   166    1
     5   168   166   am
     6   168   169    1
     7   166   167    2
     8   152   153    1
     9   153   154    1
    10   155   154    2
    11   154   156   am
    12   156   157    1
    13   113   111   am
    14   109   108    2
    15   107   106    1
    16   107   108    1
    17   107   110    1
    18   158   157    1
    19   158   159    2
    20   157   160    1
    21   108   114   am
    22   110   111    1
    23   111   112    2
    24   162   161   ar
    25    51    50    1
    26   160   161    1
    27    48    47    2
    28   114   115    1
    29    46    45    1
    30    46    47    1
    31    46    49    1
    32   161   163   ar
    33    49    50    1
    34    50    52    1
    35   115   116    1
    36     7     6    1
    37   116   117    2
    38   116   118   am
    39     6     8    1
    40     6     5    1
    41    34    36    1
    42    33    36    1
    43   124   118    1
    44   124   123    2
    45   118   119    1
    46    36    37    1
    47     1     2    1
    48    35    32    1
    49     5     2    1
    50     2     3    1
    51   151   149   ar
    52   119   122    1
    53   119   120    1
    54   123   122    1
    55    32    31    1
    56    37    38    1
    57    37    40    1
    58    39    38    2
    59   149   150   ar
    60   149   148    1
    61    30    29    1
    62   147   144    1
    63   147   148    1
    64   131   125    1
    65   131   130    2
    66   120   125   am
    67   120   121    2
    68    31    40    1
    69     9     3   am
    70     9    10    1
    71     3     4    2
    72    40    41    1
    73    44    43    1
    74   125   126    1
    75   144   143    1
    76   144   145    1
    77    29    28    1
    78    43    42    1
    79   130   129    1
    80    12    11    2
    81    10    11    1
    82   146   145    2
    83   126   129    1
    84   126   127    1
    85    42    41    1
    86    42    25    1
    87    42    24    1
    88   135   134    2
    89    11    13   am
    90    25    24    1
    91    28    27    1
    92   132   127   am
    93   132   133    1
    94    27    26    1
    95   127   128    2
    96    24    23    1
    97   134   133    1
    98   134   136   am
    99    13    14    1
   100    20    19    2
   101   138   137    1
   102   138   139    2
   103    16    15    2
   104   137   136    1
   105   137   140    1
   106    14    15    1
   107    26    23    1
   108    15    17   am
   109    23    22    1
   110    19    22   am
   111    19    18    1
   112   142   140    1
   113   140   141    1
   114    17    18    1
   115    53    54    1
   116   105   103   am
   117    18    21    1
   118   103   102    1
   119   103   104    2
   120   102    99    1
   121    56    55    2
   122    54    55    1
   123    75    73   ar
   124    75    74   ar
   125    73    71   ar
   126   101   100    2
   127    98    99    1
   128    99   100    1
   129    74    72   ar
   130    89    88   ar
   131    89    87   ar
   132    93    92    2
   133    71    70   ar
   134    96    95    1
   135    88    86   ar
   136    87    85   ar
   137    72    70   ar
   138    92    91    1
   139    70    69    1
   140    68    67    2
   141    86    83   ar
   142    95    97    1
   143    95    94    1
   144    85    83   ar
   145    85    84   ar
   146    91    94    1
   147    91    90    1
   148    83    81   ar
   149    67    66    1
   150    57    58    1
   151    84    82   ar
   152    69    66    1
   153    66    65    1
   154    62    61    1
   155    62    63    1
   156    81    82   ar
   157    81    80    1
   158    58    61    1
   159    58    59    1
   160    63    79    1
   161    63    64    1
   162    59    60    2
   163    80    77    1
   164    79    78    1
   165    77    78    1
   166    77    76    1
