@<TRIPOS>MOLECULE
tmp/3pglA00.pdb
 135 129 0 0 0
SMALL
GASTEIGER

@<TRIPOS>ATOM
      1  N          8.2390   15.7430  -10.2460 N.3    22  ASP22      -0.1225
      2  CA         7.1270   16.5820   -9.8330 C.3    22  ASP22       0.1805
      3  C          7.5010   17.9630   -9.3590 C.2    22  ASP22       0.2597
      4  O          8.3130   18.1090   -8.4540 O.2    22  ASP22      -0.2718
      5  CB         6.3630   15.8620   -8.7680 C.3    22  ASP22       0.1424
      6  CG         5.7360   14.6350   -9.3040 C.2    22  ASP22       0.3668
      7  OD1        4.8520   14.7920  -10.1880 O.co2  22  ASP22      -0.2456
      8  OD2        6.1520   13.5130   -8.8840 O.co2  22  ASP22      -0.2456
      9  N          6.8100   18.9320   -9.9620 N.am   23  GLU23      -0.1979
     10  CA         6.9480   20.3650   -9.7430 C.3    23  GLU23       0.1602
     11  C          8.3070   20.9050  -10.2330 C.2    23  GLU23       0.2287
     12  O          8.5430   22.1140  -10.2000 O.2    23  GLU23      -0.2864
     13  CB         6.6050   20.8250   -8.2950 C.3    23  GLU23       0.0415
     14  CG         5.1570   20.6340   -7.9130 C.3    23  GLU23       0.1163
     15  CD         4.7930   19.1600   -7.7520 C.2    23  GLU23       0.3649
     16  OE1        5.3870   18.5270   -6.8710 O.co2  23  GLU23      -0.2457
     17  OE2        3.9350   18.6130   -8.5000 O.co2  23  GLU23      -0.2457
     18  N          1.6580   16.8130  -11.9920 N.3    28  SER28      -0.1202
     19  CA         0.5750   15.8710  -12.1280 C.3    28  SER28       0.2020
     20  C         -0.5220   16.1130  -11.1130 C.2    28  SER28       0.2619
     21  O         -0.2990   16.7340  -10.0760 O.2    28  SER28      -0.2717
     22  CB         1.1300   14.4960  -11.9520 C.3    28  SER28       0.2103
     23  OG         1.9940   14.1960  -13.0610 O.3    28  SER28      -0.2182
     24  N         -1.7070   15.5990  -11.3820 N.am   29  SER29      -0.1937
     25  CA        -2.8500   15.7940  -10.4960 C.3    29  SER29       0.2055
     26  C         -3.9360   14.7420  -10.7100 C.2    29  SER29       0.2643
     27  O         -4.1170   14.2150  -11.8220 O.2    29  SER29      -0.2714
     28  CB        -3.4310   17.1680  -10.7260 C.3    29  SER29       0.2130
     29  OG        -4.5930   17.3400   -9.9250 O.3    29  SER29      -0.2179
     30  N         -4.6520   14.4140   -9.6350 N.am   30  PHE30      -0.1973
     31  CA        -5.8320   13.5460   -9.6910 C.3    30  PHE30       0.1639
     32  C         -7.0770   14.3290  -10.1220 C.2    30  PHE30       0.2290
     33  O         -8.0250   13.7390  -10.5890 O.2    30  PHE30      -0.2864
     34  CB        -6.0610   12.8570   -8.3570 C.3    30  PHE30       0.0560
     35  CG        -5.0730   11.7210   -8.0610 C.ar   30  PHE30      -0.0200
     36  CD1       -4.0720   11.8810   -7.1020 C.ar   30  PHE30      -0.0042
     37  CD2       -5.1740   10.4980   -8.7080 C.ar   30  PHE30      -0.0042
     38  CE1       -3.1820   10.8480   -6.8190 C.ar   30  PHE30      -0.0003
     39  CE2       -4.2920    9.4420   -8.4250 C.ar   30  PHE30      -0.0003
     40  CZ        -3.2860    9.6220   -7.5080 C.ar   30  PHE30      -0.0000
     41  N         -3.3140    5.0230  -13.0570 N.3    42  VAL42      -0.1245
     42  CA        -2.5170    4.4610  -11.9940 C.3    42  VAL42       0.1561
     43  C         -3.4380    3.6400  -11.1070 C.2    42  VAL42       0.2260
     44  O         -4.4710    4.1900  -10.6370 O.2    42  VAL42      -0.2867
     45  CB        -1.8540    5.5840  -11.1350 C.3    42  VAL42       0.0252
     46  CG1       -1.1450    4.9970   -9.9330 C.3    42  VAL42       0.0019
     47  CG2       -0.8790    6.3820  -11.9530 C.3    42  VAL42       0.0019
     48  N         -4.5210    2.0210   -7.7850 N.3    44  ILE44      -0.1245
     49  CA        -4.3760    2.2860   -6.3400 C.3    44  ILE44       0.1561
     50  C         -5.3740    1.4700   -5.5200 C.2    44  ILE44       0.2260
     51  O         -6.6090    1.7400   -5.5300 O.2    44  ILE44      -0.2867
     52  CB        -4.4620    3.8040   -5.9870 C.3    44  ILE44       0.0252
     53  CG1       -3.3750    4.5860   -6.7450 C.3    44  ILE44       0.0019
     54  CG2       -4.3050    4.0130   -4.4580 C.3    44  ILE44       0.0019
     55  CD1       -3.6210    6.0930   -6.8510 C.3    44  ILE44       0.0001
     56  N         -7.1030    4.9550  -11.2140 N.3    49  HIS49      -0.1241
     57  CA        -7.3690    6.3930  -11.2260 C.3    49  HIS49       0.1621
     58  C         -6.5510    7.1110  -12.3230 C.2    49  HIS49       0.2264
     59  O         -5.3670    6.8340  -12.4820 O.2    49  HIS49      -0.2867
     60  CB        -6.9990    6.9690   -9.8590 C.3    49  HIS49       0.0745
     61  CG        -7.8100    6.3970   -8.7320 C.ar   49  HIS49       0.0817
     62  ND1       -9.1120    6.7880   -8.4820 N.ar   49  HIS49      -0.2268
     63  CD2       -7.5200    5.4300   -7.8250 C.ar   49  HIS49       0.1154
     64  CE1       -9.5840    6.0790   -7.4730 C.ar   49  HIS49       0.1986
     65  NE2       -8.6430    5.2470   -7.0660 N.ar   49  HIS49      -0.2212
     66  N         -4.3430    9.9870  -13.8600 N.3    51  VAL51      -0.1245
     67  CA        -3.4660   11.0950  -13.4060 C.3    51  VAL51       0.1561
     68  C         -3.1980   12.0700  -14.5610 C.2    51  VAL51       0.2260
     69  O         -2.6940   11.6660  -15.6100 O.2    51  VAL51      -0.2867
     70  CB        -2.1230   10.5980  -12.8370 C.3    51  VAL51       0.0252
     71  CG1       -1.2160   11.7770  -12.4230 C.3    51  VAL51       0.0019
     72  CG2       -2.3600    9.6900  -11.6480 C.3    51  VAL51       0.0019
     73  N         10.6540   11.3050   -5.5760 N.3    77  ALA77      -0.1231
     74  CA        10.0940   10.6720   -4.3490 C.3    77  ALA77       0.1694
     75  C          8.8430    9.8410   -4.6350 C.2    77  ALA77       0.2593
     76  O          8.3760    9.1070   -3.7350 O.2    77  ALA77      -0.2718
     77  CB         9.8210   11.6790   -3.2540 C.3    77  ALA77       0.0304
     78  N          8.3280    9.9240   -5.8760 N.am   78  SER78      -0.1938
     79  CA         7.1420    9.2010   -6.3060 C.3    78  SER78       0.2055
     80  C          7.4250    7.7530   -6.4980 C.2    78  SER78       0.2642
     81  O          8.5700    7.2700   -6.4620 O.2    78  SER78      -0.2714
     82  CB         6.6180    9.7450   -7.6390 C.3    78  SER78       0.2130
     83  OG         6.5530   11.1910   -7.6390 O.3    78  SER78      -0.2179
     84  N          6.3550    7.0580   -6.8100 N.am   79  LEU79      -0.1977
     85  CA         6.3700    5.6400   -6.9350 C.3    79  LEU79       0.1596
     86  C          6.5790    5.3360   -8.4090 C.2    79  LEU79       0.2287
     87  O          6.0940    6.0730   -9.2600 O.2    79  LEU79      -0.2864
     88  CB         5.0220    5.1190   -6.4090 C.3    79  LEU79       0.0297
     89  CG         4.7900    5.1880   -4.8740 C.3    79  LEU79       0.0022
     90  CD1        3.3110    4.7880   -4.5700 C.3    79  LEU79       0.0001
     91  CD2        5.7270    4.2640   -4.0560 C.3    79  LEU79       0.0001
     92  N          5.3050    3.2970  -10.3550 N.3    81  LYS81      -0.1231
     93  CA         4.1120    2.9140  -11.0930 C.3    81  LYS81       0.1693
     94  C          3.5250    4.1710  -11.7290 C.2    81  LYS81       0.2592
     95  O          2.8290    4.0740  -12.7370 O.2    81  LYS81      -0.2718
     96  CB         3.0890    2.1810  -10.2000 C.3    81  LYS81       0.0285
     97  CG         2.5850    3.0260   -9.0590 C.3    81  LYS81       0.0035
     98  CD         1.2080    2.6210   -8.5730 C.3    81  LYS81       0.0206
     99  CE         1.2480    1.4500   -7.6160 C.3    81  LYS81       0.1093
    100  NZ         0.0220    1.3380   -6.7120 N.3    81  LYS81      -0.1314
    101  N          3.8150    5.3320  -11.1570 N.am   82  TYR82      -0.1976
    102  CA         3.4060    6.5700  -11.7600 C.3    82  TYR82       0.1639
    103  C          4.5830    7.2000  -12.5340 C.2    82  TYR82       0.2290
    104  O          4.3900    7.6850  -13.6440 O.2    82  TYR82      -0.2864
    105  CB         2.8330    7.5740  -10.6990 C.3    82  TYR82       0.0560
    106  CG         3.1220    9.0400  -11.0060 C.ar   82  TYR82      -0.0198
    107  CD1        2.4190    9.6990  -11.9770 C.ar   82  TYR82      -0.0009
    108  CD2        4.1580    9.7400  -10.3510 C.ar   82  TYR82      -0.0009
    109  CE1        2.7000   11.0760  -12.2930 C.ar   82  TYR82       0.0417
    110  CE2        4.4620   11.1120  -10.6520 C.ar   82  TYR82       0.0417
    111  CZ         3.7150   11.7570  -11.6450 C.ar   82  TYR82       0.1957
    112  OH         3.9630   13.0750  -12.0290 O.3    82  TYR82      -0.2866
    113  N         10.9780    6.3050   -4.9480 N.3   102  ARG102     -0.1245
    114  CA        10.7200    6.5580   -3.5270 C.3   102  ARG102      0.1563
    115  C         11.6250    5.7190   -2.6400 C.2   102  ARG102      0.2260
    116  O         12.2670    6.2920   -1.7970 O.2   102  ARG102     -0.2867
    117  CB         9.2040    6.4100   -3.1540 C.3   102  ARG102      0.0307
    118  CG         8.8060    6.4750   -1.6050 C.3   102  ARG102      0.0489
    119  CD         7.2710    6.7340   -1.3710 C.3   102  ARG102      0.2205
    120  NE         7.0740    8.1750   -1.5550 N.pl3 102  ARG102     -0.0865
    121  CZ         5.9530    8.7950   -1.9200 C.cat 102  ARG102      0.5346
    122  NH1        4.8300    8.1290   -2.1550 N.pl3 102  ARG102      0.1354
    123  NH2        5.9750   10.1110   -2.0680 N.pl3 102  ARG102      0.1354
    124  N         11.6800   13.6970    2.1500 N.3   112  TYR112     -0.1241
    125  CA        12.3750   12.7460    1.2760 C.3   112  TYR112      0.1605
    126  C         13.6730   13.4000    0.7880 C.2   112  TYR112      0.2264
    127  O         13.6690   14.3550    0.0170 O.2   112  TYR112     -0.2867
    128  CB        11.5200   12.3200    0.0890 C.3   112  TYR112      0.0534
    129  CG        10.1640   11.7270    0.4160 C.ar  112  TYR112     -0.0201
    130  CD1       10.0310   10.3500    0.7370 C.ar  112  TYR112     -0.0009
    131  CD2        9.0060   12.5450    0.3790 C.ar  112  TYR112     -0.0009
    132  CE1        8.7740    9.8000    1.0140 C.ar  112  TYR112      0.0417
    133  CE2        7.7410   12.0170    0.6690 C.ar  112  TYR112      0.0417
    134  CZ         7.6340   10.6360    0.9730 C.ar  112  TYR112      0.1957
    135  OH         6.3730   10.1120    1.2340 O.3   112  TYR112     -0.2866
@<TRIPOS>BOND
     1    69    68    2
     2    68    67    1
     3    66    67    1
     4   104   103    2
     5    67    70    1
     6    23    22    1
     7    41    42    1
     8    70    71    1
     9    70    72    1
    10    95    94    2
    11   103   102    1
    12    59    58    2
    13    58    57    1
    14   109   107   ar
    15   109   111   ar
    16    19    18    1
    17    19    22    1
    18    19    20    1
    19   112   111    1
    20    42    45    1
    21    42    43    1
    22   107   106   ar
    23    47    45    1
    24    27    26    2
    25   102   101    1
    26   102   105    1
    27    94   101   am
    28    94    93    1
    29   111   110   ar
    30    24    20   am
    31    24    25    1
    32    57    56    1
    33    57    60    1
    34    45    46    1
    35    20    21    2
    36    43    44    2
    37    93    92    1
    38    93    96    1
    39   106   105    1
    40   106   108   ar
    41    28    25    1
    42    28    29    1
    43    26    25    1
    44    26    30   am
    45   110   108   ar
    46    33    32    2
    47     1     2    1
    48    11    12    2
    49    11    10    1
    50    96    97    1
    51     7     6   ar
    52    32    31    1
    53     9    10    1
    54     9     3   am
    55    60    61    1
    56     2     3    1
    57     2     5    1
    58    10    13    1
    59    31    30    1
    60    31    34    1
    61     3     4    2
    62     6     8   ar
    63     6     5    1
    64    87    86    2
    65    97    98    1
    66    61    62   ar
    67    61    63   ar
    68    37    39   ar
    69    37    35   ar
    70    98    99    1
    71    17    15   ar
    72    62    64   ar
    73    39    40   ar
    74    86    85    1
    75    34    35    1
    76    13    14    1
    77    35    36   ar
    78    14    15    1
    79    63    65   ar
    80    48    49    1
    81    15    16   ar
    82    82    83    1
    83    82    79    1
    84    99   100    1
    85    40    38   ar
    86    64    65   ar
    87    36    38   ar
    88    85    84    1
    89    85    88    1
    90    55    53    1
    91    84    80   am
    92    53    52    1
    93    80    81    2
    94    80    79    1
    95    88    89    1
    96    49    52    1
    97    49    50    1
    98    79    78    1
    99    52    54    1
   100    78    75   am
   101    73    74    1
   102    51    50    2
   103   113   114    1
   104    89    90    1
   105    89    91    1
   106    75    74    1
   107    75    76    2
   108    74    77    1
   109   114   117    1
   110   114   115    1
   111   117   118    1
   112   115   116    2
   113   122   121    1
   114   123   121    1
   115   121   120    2
   116   118   119    1
   117   120   119    1
   118   127   126    2
   119   128   129    1
   120   128   125    1
   121   131   129   ar
   122   131   133   ar
   123   129   130   ar
   124   133   134   ar
   125   130   132   ar
   126   126   125    1
   127   134   132   ar
   128   134   135    1
   129   125   124    1
