@<TRIPOS>MOLECULE
tmp/3pgqC01.pdb
 88 81 0 0 0
SMALL
GASTEIGER

@<TRIPOS>ATOM
      1  N         52.2710  -40.8800   67.5180 N.3   135  SER135     -0.1202
      2  CA        50.8220  -40.6360   67.4970 C.3   135  SER135      0.2020
      3  C         50.4730  -39.1570   67.3380 C.2   135  SER135      0.2619
      4  O         49.6040  -38.6330   68.0470 O.2   135  SER135     -0.2717
      5  CB        50.1590  -41.1730   68.7630 C.3   135  SER135      0.2103
      6  OG        50.9230  -40.8290   69.8960 O.3   135  SER135     -0.2182
      7  N         51.1250  -38.4970   66.3870 N.am  136  GLY136     -0.1942
      8  CA        50.7280  -37.1610   65.9960 C.3   136  GLY136      0.2014
      9  C         50.9790  -36.1420   67.0800 C.2   136  GLY136      0.2638
     10  O         51.7760  -36.3640   67.9850 O.2   136  GLY136     -0.2714
     11  N         50.2680  -35.0260   67.0030 N.am  137  ALA137     -0.1977
     12  CA        50.5410  -33.8960   67.8650 C.3   137  ALA137      0.1597
     13  C         50.2150  -34.2610   69.2750 C.2   137  ALA137      0.2287
     14  O         49.2630  -34.9810   69.5140 O.2   137  ALA137     -0.2864
     15  CB        49.7230  -32.6950   67.4360 C.3   137  ALA137      0.0319
     16  N         48.6940  -33.7590   72.8960 N.3   139  ILE139     -0.1245
     17  CA        47.4820  -33.1080   73.3840 C.3   139  ILE139      0.1561
     18  C         47.5520  -32.9190   74.8850 C.2   139  ILE139      0.2260
     19  O         48.0910  -33.7590   75.6030 O.2   139  ILE139     -0.2867
     20  CB        46.2240  -33.9030   73.0030 C.3   139  ILE139      0.0252
     21  CG1       46.3960  -35.3700   73.3890 C.3   139  ILE139      0.0019
     22  CG2       46.0040  -33.8320   71.4890 C.3   139  ILE139      0.0019
     23  CD1       45.2990  -35.8860   74.2680 C.3   139  ILE139      0.0001
     24  N         50.7770  -26.9510   67.1310 N.3   215  LEU215     -0.1245
     25  CA        50.4880  -26.7740   65.7270 C.3   215  LEU215      0.1561
     26  C         51.5660  -25.9740   65.0180 C.2   215  LEU215      0.2260
     27  O         51.9710  -26.3470   63.9160 O.2   215  LEU215     -0.2867
     28  CB        49.0950  -26.1800   65.5240 C.3   215  LEU215      0.0270
     29  CG        47.9970  -26.9470   66.2670 C.3   215  LEU215      0.0019
     30  CD1       46.6510  -26.2620   66.1360 C.3   215  LEU215      0.0001
     31  CD2       47.9180  -28.3830   65.8140 C.3   215  LEU215      0.0001
     32  N         54.2060  -28.4190   64.3670 N.3   218  SER218     -0.1217
     33  CA        53.9610  -29.3370   63.2680 C.3   218  SER218      0.1889
     34  C         54.1570  -28.6400   61.9280 C.2   218  SER218      0.2288
     35  O         54.7110  -29.2240   60.9850 O.2   218  SER218     -0.2866
     36  CB        52.5490  -29.8860   63.3540 C.3   218  SER218      0.2089
     37  OG        52.4860  -30.9210   64.3070 O.3   218  SER218     -0.2183
     38  N         56.7380  -29.5660   58.9070 N.3   222  ALA222     -0.1245
     39  CA        56.1130  -29.9240   57.6420 C.3   222  ALA222      0.1562
     40  C         56.7420  -29.1170   56.4950 C.2   222  ALA222      0.2260
     41  O         57.1730  -29.7050   55.4860 O.2   222  ALA222     -0.2867
     42  CB        54.6380  -29.7250   57.7150 C.3   222  ALA222      0.0290
     43  N         50.8450  -41.0580   62.7270 N.3   243  VAL243     -0.1231
     44  CA        49.5630  -40.3680   62.8740 C.3   243  VAL243      0.1692
     45  C         49.6600  -38.8690   62.6380 C.2   243  VAL243      0.2593
     46  O         50.6270  -38.2350   63.0290 O.2   243  VAL243     -0.2718
     47  CB        48.9680  -40.5890   64.2720 C.3   243  VAL243      0.0266
     48  CG1       47.4990  -40.2450   64.2720 C.3   243  VAL243      0.0020
     49  CG2       49.1870  -42.0210   64.7230 C.3   243  VAL243      0.0020
     50  N         48.6300  -38.3140   62.0120 N.am  244  GLY244     -0.1942
     51  CA        48.5170  -36.8710   61.8120 C.3   244  GLY244      0.2014
     52  C         49.6960  -36.2350   61.1090 C.2   244  GLY244      0.2638
     53  O         50.0590  -36.6040   59.9810 O.2   244  GLY244     -0.2714
     54  N         50.2960  -35.2590   61.7710 N.am  245  ILE245     -0.1977
     55  CA        51.5600  -34.7280   61.3010 C.3   245  ILE245      0.1596
     56  C         52.5460  -35.8400   60.9490 C.2   245  ILE245      0.2287
     57  O         53.3260  -35.6940   60.0220 O.2   245  ILE245     -0.2864
     58  CB        52.2100  -33.7960   62.3090 C.3   245  ILE245      0.0276
     59  CG1       53.4430  -33.1340   61.6830 C.3   245  ILE245      0.0022
     60  CG2       52.5950  -34.5670   63.5460 C.3   245  ILE245      0.0022
     61  CD1       53.2370  -32.6020   60.2520 C.3   245  ILE245      0.0001
     62  N         51.6050  -36.8840   57.3390 N.3   248  TYR248     -0.1241
     63  CA        52.0820  -35.9170   56.3420 C.3   248  TYR248      0.1605
     64  C         53.6040  -35.9140   56.1580 C.2   248  TYR248      0.2264
     65  O         54.1090  -35.7180   55.0490 O.2   248  TYR248     -0.2867
     66  CB        51.5530  -34.5000   56.5930 C.3   248  TYR248      0.0534
     67  CG        50.2010  -34.2880   55.9820 C.ar  248  TYR248     -0.0201
     68  CD1       49.0500  -34.5160   56.7220 C.ar  248  TYR248     -0.0009
     69  CD2       50.0690  -34.0770   54.6180 C.ar  248  TYR248     -0.0009
     70  CE1       47.7880  -34.4670   56.1390 C.ar  248  TYR248      0.0417
     71  CE2       48.8030  -33.9630   54.0220 C.ar  248  TYR248      0.0417
     72  CZ        47.6610  -34.1720   54.7920 C.ar  248  TYR248      0.1957
     73  OH        46.4010  -34.0680   54.2270 O.3   248  TYR248     -0.2866
     74  N         45.4790  -40.4310   59.3780 N.3   266  LEU266     -0.1231
     75  CA        45.2640  -39.0510   59.8090 C.3   266  LEU266      0.1693
     76  C         44.5530  -38.9720   61.1420 C.2   266  LEU266      0.2592
     77  O         44.8930  -38.1240   61.9570 O.2   266  LEU266     -0.2718
     78  CB        44.4430  -38.2760   58.7920 C.3   266  LEU266      0.0284
     79  CG        44.9120  -38.2030   57.3580 C.3   266  LEU266      0.0019
     80  CD1       43.8840  -37.3790   56.6770 C.3   266  LEU266      0.0001
     81  CD2       46.2390  -37.5110   57.3120 C.3   266  LEU266      0.0001
     82  N         43.4690  -39.7310   61.2940 N.am  267  THR267     -0.1953
     83  CA        42.9570  -40.0800   62.6270 C.3   267  THR267      0.1897
     84  C         42.4700  -41.5270   62.6560 C.2   267  THR267      0.2313
     85  O         42.1740  -42.1050   61.6100 O.2   267  THR267     -0.2863
     86  CB        41.7910  -39.1640   63.0610 C.3   267  THR267      0.1794
     87  OG1       40.7020  -39.3110   62.1350 O.3   267  THR267     -0.2208
     88  CG2       42.2450  -37.6670   63.1470 C.3   267  THR267      0.0378
@<TRIPOS>BOND
     1    71    69   ar
     2    71    72   ar
     3    73    72    1
     4    69    67   ar
     5    72    70   ar
     6    65    64    2
     7    41    40    2
     8    67    66    1
     9    67    68   ar
    10    70    68   ar
    11    64    63    1
    12    63    66    1
    13    63    62    1
    14    40    39    1
    15    80    79    1
    16    81    79    1
    17    79    78    1
    18    39    42    1
    19    39    38    1
    20    78    75    1
    21    74    75    1
    22    75    76    1
    23    53    52    2
    24    57    56    2
    25    61    59    1
    26    56    55    1
    27    35    34    2
    28    52    54   am
    29    52    51    1
    30    76    82   am
    31    76    77    2
    32    82    83    1
    33    55    54    1
    34    55    58    1
    35    85    84    2
    36    59    58    1
    37    51    50    1
    38    34    33    1
    39    50    45   am
    40    87    86    1
    41    58    60    1
    42    83    84    1
    43    83    86    1
    44    45    44    1
    45    45    46    2
    46    43    44    1
    47    44    47    1
    48    86    88    1
    49    33    36    1
    50    33    32    1
    51    36    37    1
    52    27    26    2
    53    48    47    1
    54    47    49    1
    55    26    25    1
    56    28    25    1
    57    28    29    1
    58    25    24    1
    59    31    29    1
    60     8     7    1
    61     8     9    1
    62    30    29    1
    63     7     3   am
    64    11     9   am
    65    11    12    1
    66     9    10    2
    67     3     2    1
    68     3     4    2
    69    15    12    1
    70     2     1    1
    71     2     5    1
    72    12    13    1
    73     5     6    1
    74    13    14    2
    75    22    20    1
    76    16    17    1
    77    20    17    1
    78    20    21    1
    79    17    18    1
    80    21    23    1
    81    18    19    2
