@<TRIPOS>MOLECULE
tmp/3pgrA01.pdb
 109 110 0 0 0
SMALL
GASTEIGER

@<TRIPOS>ATOM
      1  N         16.4710   57.6910   98.0270 N.3    87  PRO87      -0.2102
      2  CA        15.8800   57.7610   96.6880 C.3    87  PRO87       0.1504
      3  C         16.9390   57.4830   95.6280 C.2    87  PRO87       0.2575
      4  O         18.1180   57.7390   95.8360 O.2    87  PRO87      -0.2718
      5  CB        15.3960   59.2120   96.5890 C.3    87  PRO87       0.0282
      6  CG        16.2830   59.9690   97.5100 C.3    87  PRO87       0.0208
      7  CD        16.6560   59.0180   98.6370 C.3    87  PRO87       0.0893
      8  N         16.4990   56.9320   94.5080 N.am   88  ILE88      -0.1980
      9  CA        17.3350   56.7860   93.3340 C.3    88  ILE88       0.1595
     10  C         16.8850   57.8550   92.3410 C.2    88  ILE88       0.2287
     11  O         17.7000   58.4900   91.6830 O.2    88  ILE88      -0.2864
     12  CB        17.1360   55.3950   92.7060 C.3    88  ILE88       0.0276
     13  CG1       17.6310   54.3010   93.6700 C.3    88  ILE88       0.0022
     14  CG2       17.8140   55.3150   91.3500 C.3    88  ILE88       0.0022
     15  CD1       17.2250   52.8950   93.2860 C.3    88  ILE88       0.0001
     16  N         11.8560   55.9820   91.8270 N.3    92  PHE92      -0.1241
     17  CA        12.4190   54.8140   92.4680 C.3    92  PHE92       0.1605
     18  C         13.2070   55.1550   93.7140 C.2    92  PHE92       0.2264
     19  O         13.7920   56.2230   93.8180 O.2    92  PHE92      -0.2867
     20  CB        13.3200   54.0630   91.4940 C.3    92  PHE92       0.0534
     21  CG        12.5860   53.4400   90.3460 C.ar   92  PHE92      -0.0203
     22  CD1       11.9850   52.1980   90.4840 C.ar   92  PHE92      -0.0042
     23  CD2       12.5170   54.0830   89.1250 C.ar   92  PHE92      -0.0042
     24  CE1       11.3160   51.6190   89.4270 C.ar   92  PHE92      -0.0003
     25  CE2       11.8520   53.5070   88.0650 C.ar   92  PHE92      -0.0003
     26  CZ        11.2460   52.2750   88.2140 C.ar   92  PHE92      -0.0000
     27  N         15.3090   52.8740   97.3010 N.3    94  TRP94      -0.1241
     28  CA        15.6880   51.5920   97.8690 C.3    94  TRP94       0.1605
     29  C         15.9090   51.7670   99.3480 C.2    94  TRP94       0.2264
     30  O         15.9140   52.8830   99.8550 O.2    94  TRP94      -0.2867
     31  CB        16.9410   51.0410   97.1930 C.3    94  TRP94       0.0550
     32  CG        18.2100   51.7340   97.5770 C.ar   94  TRP94       0.0003
     33  CD1       18.6790   52.9070   97.0800 C.ar   94  TRP94       0.0946
     34  CD2       19.1860   51.2850   98.5210 C.ar   94  TRP94       0.0152
     35  NE1       19.8700   53.2260   97.6640 N.ar   94  TRP94      -0.2442
     36  CE2       20.2080   52.2330   98.5590 C.ar   94  TRP94       0.0810
     37  CE3       19.2930   50.1610   99.3480 C.ar   94  TRP94       0.0012
     38  CZ2       21.3200   52.1130   99.3770 C.ar   94  TRP94       0.0191
     39  CZ3       20.3850   50.0410  100.1640 C.ar   94  TRP94       0.0001
     40  CH2       21.3880   51.0050  100.1750 C.ar   94  TRP94       0.0015
     41  N         16.6870   43.9810  102.0730 N.3   130  LEU130     -0.1231
     42  CA        16.9010   44.9360  100.9890 C.3   130  LEU130      0.1693
     43  C         15.5800   45.1880  100.2930 C.2   130  LEU130      0.2593
     44  O         14.9120   44.2500   99.8500 O.2   130  LEU130     -0.2718
     45  CB        17.9030   44.4060   99.9680 C.3   130  LEU130      0.0284
     46  CG        19.3270   44.9100  100.1270 C.3   130  LEU130      0.0019
     47  CD1       20.2300   44.0510   99.2760 C.3   130  LEU130      0.0001
     48  CD2       19.4270   46.3740   99.7250 C.3   130  LEU130      0.0001
     49  N         15.2040   46.4550  100.1850 N.am  131  SER131     -0.1938
     50  CA        13.9360   46.7800   99.5470 C.3   131  SER131      0.2055
     51  C         14.0640   47.7330   98.3780 C.2   131  SER131      0.2644
     52  O         15.0480   48.4610   98.2530 O.2   131  SER131     -0.2714
     53  CB        12.9360   47.3270  100.5630 C.3   131  SER131      0.2130
     54  OG        12.4600   46.2820  101.3950 O.3   131  SER131     -0.2179
     55  N         13.0460   47.7000   97.5230 N.am  132  GLY132     -0.1939
     56  CA        12.9330   48.6120   96.4090 C.3   132  GLY132      0.2014
     57  C         11.5030   49.0940   96.3950 C.2   132  GLY132      0.2639
     58  O         10.6280   48.4090   96.9060 O.2   132  GLY132     -0.2714
     59  N         11.2540   50.2750   95.8300 N.am  133  ALA133     -0.1963
     60  CA         9.8920   50.7930   95.7180 C.3   133  ALA133      0.1728
     61  C          9.7440   51.5840   94.4350 C.2   133  ALA133      0.2616
     62  O         10.7280   52.1290   93.9140 O.2   133  ALA133     -0.2715
     63  CB         9.5310   51.6580   96.9190 C.3   133  ALA133      0.0334
     64  N          8.5120   51.6340   93.9310 N.am  134  TYR134     -0.1974
     65  CA         8.1990   52.3580   92.7140 C.3   134  TYR134      0.1639
     66  C          7.0120   53.2610   92.9700 C.2   134  TYR134      0.2290
     67  O          5.9740   52.7780   93.4290 O.2   134  TYR134     -0.2864
     68  CB         7.8540   51.3760   91.5970 C.3   134  TYR134      0.0560
     69  CG         7.2460   52.0300   90.3790 C.ar  134  TYR134     -0.0198
     70  CD1        8.0230   52.8050   89.5220 C.ar  134  TYR134     -0.0009
     71  CD2        5.9020   51.8780   90.0820 C.ar  134  TYR134     -0.0009
     72  CE1        7.4760   53.4090   88.4010 C.ar  134  TYR134      0.0417
     73  CE2        5.3420   52.4820   88.9590 C.ar  134  TYR134      0.0417
     74  CZ         6.1360   53.2460   88.1220 C.ar  134  TYR134      0.1957
     75  OH         5.5950   53.8510   87.0080 O.3   134  TYR134     -0.2866
     76  N          4.4280   51.2200   95.2430 N.3   142  PHE142     -0.1227
     77  CA         4.5990   49.7900   95.4330 C.3   142  PHE142      0.1736
     78  C          6.0190   49.4740   95.8770 C.2   142  PHE142      0.2596
     79  O          6.9770   50.0940   95.4160 O.2   142  PHE142     -0.2718
     80  CB         4.2160   49.0460   94.1570 C.3   142  PHE142      0.0547
     81  CG         2.8670   49.4300   93.6320 C.ar  142  PHE142     -0.0202
     82  CD1        1.7310   48.7460   94.0320 C.ar  142  PHE142     -0.0042
     83  CD2        2.7300   50.5080   92.7590 C.ar  142  PHE142     -0.0042
     84  CE1        0.4740   49.1120   93.5610 C.ar  142  PHE142     -0.0003
     85  CE2        1.4840   50.8840   92.2760 C.ar  142  PHE142     -0.0003
     86  CZ         0.3510   50.1850   92.6800 C.ar  142  PHE142     -0.0000
     87  N          6.1490   48.5230   96.7930 N.am  143  GLY143     -0.1942
     88  CA         7.4360   48.1620   97.3500 C.3   143  GLY143      0.2014
     89  C          7.5920   46.6580   97.4180 C.2   143  GLY143      0.2638
     90  O          6.6340   45.9200   97.7230 O.2   143  GLY143     -0.2714
     91  N          8.8050   46.2050   97.1250 N.am  144  LEU144     -0.1977
     92  CA         9.1480   44.7950   97.1710 C.3   144  LEU144      0.1596
     93  C         10.4500   44.5940   97.9400 C.2   144  LEU144      0.2287
     94  O         11.4310   45.3190   97.7290 O.2   144  LEU144     -0.2864
     95  CB         9.2640   44.2310   95.7550 C.3   144  LEU144      0.0297
     96  CG         9.6310   42.7490   95.6410 C.3   144  LEU144      0.0022
     97  CD1        8.6660   41.8790   96.4460 C.3   144  LEU144      0.0001
     98  CD2        9.6620   42.3150   94.1770 C.3   144  LEU144      0.0001
     99  N         13.3800   41.8270   99.9560 N.3   146  PHE146     -0.1241
    100  CA        13.9650   40.5110  100.0980 C.3   146  PHE146      0.1605
    101  C         14.6660   40.3560  101.4410 C.2   146  PHE146      0.2264
    102  O         15.3830   41.2460  101.8920 O.2   146  PHE146     -0.2867
    103  CB        14.8710   40.1990   98.9040 C.3   146  PHE146      0.0534
    104  CG        14.1000   40.0010   97.6330 C.ar  146  PHE146     -0.0203
    105  CD1       13.8870   41.0610   96.7540 C.ar  146  PHE146     -0.0042
    106  CD2       13.5080   38.7710   97.3540 C.ar  146  PHE146     -0.0042
    107  CE1       13.1340   40.8840   95.5960 C.ar  146  PHE146     -0.0003
    108  CE2       12.7550   38.5830   96.1990 C.ar  146  PHE146     -0.0003
    109  CZ        12.5670   39.6420   95.3190 C.ar  146  PHE146     -0.0000
@<TRIPOS>BOND
     1    75    74    1
     2    25    26   ar
     3    25    23   ar
     4    74    72   ar
     5    74    73   ar
     6    26    24   ar
     7    72    70   ar
     8    73    71   ar
     9    23    21   ar
    10    24    22   ar
    11    70    69   ar
    12    71    69   ar
    13    21    22   ar
    14    21    20    1
    15    69    68    1
    16    14    12    1
    17    20    17    1
    18    68    65    1
    19    11    10    2
    20    16    17    1
    21    85    86   ar
    22    85    83   ar
    23    10     9    1
    24    17    18    1
    25    86    84   ar
    26    12     9    1
    27    12    13    1
    28    65    66    1
    29    65    64    1
    30    83    81   ar
    31    66    67    2
    32    15    13    1
    33     9     8    1
    34    84    82   ar
    35    81    82   ar
    36    81    80    1
    37    18    19    2
    38    62    61    2
    39    64    61   am
    40    80    77    1
    41    98    96    1
    42    61    60    1
    43     8     3   am
    44    76    77    1
    45   109   107   ar
    46   109   108   ar
    47    79    78    2
    48    77    78    1
    49   107   105   ar
    50     3     4    2
    51     3     2    1
    52    96    95    1
    53    96    97    1
    54    60    59    1
    55    60    63    1
    56    95    92    1
    57    59    57   am
    58    78    87   am
    59   108   106   ar
    60    57    56    1
    61    57    58    2
    62    56    55    1
    63     5     2    1
    64     5     6    1
    65     2     1    1
    66   105   104   ar
    67    87    88    1
    68    33    32   ar
    69    33    35   ar
    70    91    92    1
    71    91    89   am
    72    92    93    1
    73    31    32    1
    74    31    28    1
    75    27    28    1
    76    88    89    1
    77   106   104   ar
    78    89    90    2
    79     6     7    1
    80    55    51   am
    81    32    34   ar
    82   104   103    1
    83    35    36   ar
    84    94    93    2
    85    28    29    1
    86     1     7    1
    87    52    51    2
    88    51    50    1
    89    34    36   ar
    90    34    37   ar
    91    36    38   ar
    92   103   100    1
    93    47    46    1
    94    29    30    2
    95    37    39   ar
    96    38    40   ar
    97    50    49    1
    98    50    53    1
    99    48    46    1
   100    44    43    2
   101    99   100    1
   102    45    46    1
   103    45    42    1
   104   100   101    1
   105    39    40   ar
   106    49    43   am
   107    43    42    1
   108    53    54    1
   109    42    41    1
   110   101   102    2
