@<TRIPOS>MOLECULE
tmp/3pgrA08.pdb
 100 95 0 0 0
SMALL
GASTEIGER

@<TRIPOS>ATOM
      1  N          3.8400   15.4860  143.4310 N.3    65  GLY65      -0.1210
      2  CA         3.8920   16.2230  144.6700 C.3    65  GLY65       0.1956
      3  C          4.9710   17.2770  144.5860 C.2    65  GLY65       0.2612
      4  O          5.0760   18.1310  145.4630 O.2    65  GLY65      -0.2717
      5  N          5.7760   17.2220  143.5290 N.am   66  ARG66      -0.1965
      6  CA         6.8470   18.2020  143.3530 C.3    66  ARG66       0.1729
      7  C          6.2850   19.5590  142.9670 C.2    66  ARG66       0.2616
      8  O          5.2780   19.6540  142.2710 O.2    66  ARG66      -0.2715
      9  CB         7.8560   17.7440  142.2990 C.3    66  ARG66       0.0348
     10  CG         8.5220   16.4300  142.6130 C.3    66  ARG66       0.0492
     11  CD         9.3250   16.5200  143.8900 C.3    66  ARG66       0.2205
     12  NE         9.9350   15.2390  144.2370 N.pl3  66  ARG66      -0.0865
     13  CZ        10.7040   15.0610  145.3030 C.cat  66  ARG66       0.5346
     14  NH1       10.9460   16.0840  146.1100 N.pl3  66  ARG66       0.1354
     15  NH2       11.2340   13.8770  145.5590 N.pl3  66  ARG66       0.1354
     16  N          6.9340   20.6160  143.4300 N.am   67  SER67      -0.1950
     17  CA         6.5280   21.9550  143.0470 C.3    67  SER67       0.1924
     18  C          6.7900   22.1410  141.5540 C.2    67  SER67       0.2314
     19  O          7.7910   21.6610  141.0080 O.2    67  SER67      -0.2863
     20  CB         7.2640   23.0210  143.8700 C.3    67  SER67       0.2116
     21  OG         6.8810   24.3360  143.4850 O.3    67  SER67      -0.2180
     22  N         16.8010   21.3430  137.4500 N.3   111  THR111     -0.1203
     23  CA        16.3850   20.5310  138.5870 C.3   111  THR111      0.1994
     24  C         14.8570   20.5890  138.7640 C.2   111  THR111      0.2618
     25  O         14.2770   19.9740  139.6640 O.2   111  THR111     -0.2717
     26  CB        17.1370   21.0230  139.8450 C.3   111  THR111      0.1784
     27  OG1       17.6890   19.9070  140.5480 O.3   111  THR111     -0.2211
     28  CG2       16.2410   21.8630  140.7540 C.3   111  THR111      0.0376
     29  N         14.2230   21.3340  137.8650 N.am  112  TYR112     -0.1961
     30  CA        12.7970   21.6050  137.8950 C.3   112  TYR112      0.1771
     31  C         11.9620   20.3650  137.5820 C.2   112  TYR112      0.2619
     32  O         12.2800   19.6200  136.6540 O.2   112  TYR112     -0.2715
     33  CB        12.5320   22.6690  136.8440 C.3   112  TYR112      0.0574
     34  CG        11.1140   23.1270  136.7010 C.ar  112  TYR112     -0.0198
     35  CD1       10.4460   23.7270  137.7620 C.ar  112  TYR112     -0.0009
     36  CD2       10.4590   23.0130  135.4880 C.ar  112  TYR112     -0.0009
     37  CE1        9.1420   24.1780  137.6240 C.ar  112  TYR112      0.0417
     38  CE2        9.1550   23.4640  135.3400 C.ar  112  TYR112      0.0417
     39  CZ         8.5100   24.0460  136.4110 C.ar  112  TYR112      0.1957
     40  OH         7.2350   24.4910  136.2640 O.3   112  TYR112     -0.2866
     41  N         10.8880   20.1560  138.3410 N.am  113  ALA113     -0.1977
     42  CA        10.0750   18.9390  138.2160 C.3   113  ALA113      0.1597
     43  C          9.4840   18.7510  136.8170 C.2   113  ALA113      0.2287
     44  O          9.3570   17.6220  136.3320 O.2   113  ALA113     -0.2864
     45  CB         8.9680   18.9190  139.2630 C.3   113  ALA113      0.0319
     46  N         10.5800   15.0990  137.1050 N.3   161  ASP161     -0.1239
     47  CA        10.0800   14.0770  138.0140 C.3   161  ASP161      0.1674
     48  C          9.4450   12.8930  137.2700 C.2   161  ASP161      0.2266
     49  O          8.7590   12.0630  137.8780 O.2   161  ASP161     -0.2867
     50  CB         9.0800   14.6860  139.0110 C.3   161  ASP161      0.1410
     51  CG         7.7920   15.1510  138.3440 C.2   161  ASP161      0.3668
     52  OD1        7.6400   14.9170  137.1280 O.co2 161  ASP161     -0.2456
     53  OD2        6.9240   15.7320  139.0350 O.co2 161  ASP161     -0.2456
     54  N          9.5740    9.6210  138.8280 N.3   164  GLN164     -0.1245
     55  CA         8.7450    9.5350  140.0220 C.3   164  GLN164      0.1566
     56  C          7.2980    9.2370  139.6150 C.2   164  GLN164      0.2260
     57  O          6.5740    8.5260  140.3050 O.2   164  GLN164     -0.2867
     58  CB         8.8260   10.8420  140.8080 C.3   164  GLN164      0.0367
     59  CG        10.2350   11.3050  140.9820 C.3   164  GLN164      0.0905
     60  CD        10.3580   12.6060  141.7470 C.2   164  GLN164      0.2608
     61  OE1        9.4490   13.0020  142.4870 O.2   164  GLN164     -0.2717
     62  NE2       11.4940   13.2790  141.5780 N.am  164  GLN164     -0.0878
     63  N         12.2720    5.8990  139.8950 N.3   189  ASN189     -0.1240
     64  CA        12.3180    6.9850  140.8630 C.3   189  ASN189      0.1653
     65  C         13.7300    7.5100  141.0680 C.2   189  ASN189      0.2266
     66  O         13.9160    8.6560  141.4520 O.2   189  ASN189     -0.2867
     67  CB        11.7310    6.5520  142.2090 C.3   189  ASN189      0.1155
     68  CG        11.7140    7.6810  143.2160 C.2   189  ASN189      0.2627
     69  OD1       12.3500    7.6090  144.2660 O.2   189  ASN189     -0.2716
     70  ND2       10.9960    8.7450  142.8910 N.am  189  ASN189     -0.0877
     71  N         16.0400    8.0580  138.9330 N.3   191  ILE191     -0.1231
     72  CA        16.5340    8.9170  137.8680 C.3   191  ILE191      0.1692
     73  C         16.5540   10.3800  138.3160 C.2   191  ILE191      0.2592
     74  O         15.5200   10.9380  138.6730 O.2   191  ILE191     -0.2718
     75  CB        15.6540    8.7880  136.6080 C.3   191  ILE191      0.0266
     76  CG1       15.8990    7.4390  135.9220 C.3   191  ILE191      0.0019
     77  CG2       15.8990    9.9620  135.6510 C.3   191  ILE191      0.0020
     78  CD1       15.0100    7.2090  134.7060 C.3   191  ILE191      0.0001
     79  N         17.7340   10.9910  138.3030 N.am  192  ASP192     -0.1960
     80  CA        17.8910   12.3880  138.6890 C.3   192  ASP192      0.1840
     81  C         17.0590   13.3590  137.8310 C.2   192  ASP192      0.2623
     82  O         17.0420   13.2800  136.5930 O.2   192  ASP192     -0.2715
     83  CB        19.3570   12.7880  138.5630 C.3   192  ASP192      0.1450
     84  CG        20.2320   12.1950  139.6470 C.2   192  ASP192      0.3671
     85  OD1       19.7150   11.8560  140.7290 O.co2 192  ASP192     -0.2456
     86  OD2       21.4550   12.1030  139.4180 O.co2 192  ASP192     -0.2456
     87  N         16.3890   14.2990  138.4890 N.am  193  SER193     -0.1936
     88  CA        15.6160   15.3110  137.7830 C.3   193  SER193      0.2055
     89  C         16.4590   16.0400  136.7490 C.2   193  SER193      0.2643
     90  O         15.9550   16.4170  135.6890 O.2   193  SER193     -0.2714
     91  CB        15.0210   16.3180  138.7640 C.3   193  SER193      0.2130
     92  OG        14.0470   15.7000  139.5800 O.3   193  SER193     -0.2179
     93  N         17.7450   16.2250  137.0560 N.am  194  ASN194     -0.1971
     94  CA        18.6360   16.9700  136.1630 C.3   194  ASN194      0.1688
     95  C         19.3330   16.1400  135.0830 C.2   194  ASN194      0.2292
     96  O         20.3000   16.5890  134.4760 O.2   194  ASN194     -0.2864
     97  CB        19.6520   17.8130  136.9490 C.3   194  ASN194      0.1181
     98  CG        20.7430   16.9730  137.5910 C.2   194  ASN194      0.2629
     99  OD1       20.6720   15.7440  137.5890 O.2   194  ASN194     -0.2716
    100  ND2       21.7530   17.6370  138.1620 N.am  194  ASN194     -0.0877
@<TRIPOS>BOND
     1    96    95    2
     2    78    76    1
     3    95    94    1
     4    38    36   ar
     5    38    39   ar
     6    36    34   ar
     7    77    75    1
     8    90    89    2
     9    76    75    1
    10    94    97    1
    11    94    93    1
    12    40    39    1
    13    44    43    2
    14    39    37   ar
    15    82    81    2
    16    75    72    1
    17    32    31    2
    18    34    33    1
    19    34    35   ar
    20    89    93   am
    21    89    88    1
    22    43    42    1
    23    33    30    1
    24    97    98    1
    25    46    47    1
    26    52    51   ar
    27    48    49    2
    28    48    47    1
    29    22    23    1
    30    31    30    1
    31    31    41   am
    32    99    98    2
    33    98   100   am
    34    37    35   ar
    35    88    87    1
    36    88    91    1
    37    81    87   am
    38    81    80    1
    39    29    30    1
    40    29    24   am
    41    72    73    1
    42    72    71    1
    43    47    50    1
    44    42    41    1
    45    42    45    1
    46    79    73   am
    47    79    80    1
    48    73    74    2
    49    51    50    1
    50    51    53   ar
    51    83    80    1
    52    83    84    1
    53    23    24    1
    54    23    26    1
    55    91    92    1
    56    24    25    2
    57    54    55    1
    58    86    84   ar
    59    56    55    1
    60    56    57    2
    61    84    85   ar
    62    26    27    1
    63    26    28    1
    64    63    64    1
    65    55    58    1
    66    58    59    1
    67    64    65    1
    68    64    67    1
    69    59    60    1
    70    19    18    2
    71    65    66    2
    72    18    17    1
    73    62    60   am
    74    60    61    2
    75    67    68    1
    76     8     7    2
    77     9    10    1
    78     9     6    1
    79    10    11    1
    80    70    68   am
    81     7     6    1
    82     7    16   am
    83    17    16    1
    84    17    20    1
    85    68    69    2
    86     6     5    1
    87     1     2    1
    88    21    20    1
    89     5     3   am
    90    11    12    1
    91    12    13    2
    92     3     2    1
    93     3     4    2
    94    13    15    1
    95    13    14    1
