@<TRIPOS>MOLECULE
tmp/3pgrA00.pdb
 92 86 0 0 0
SMALL
GASTEIGER

@<TRIPOS>ATOM
      1  N          1.6900   16.0340  139.7160 N.3    63  PRO63      -0.2102
      2  CA         1.0250   14.8960  140.3750 C.3    63  PRO63       0.1504
      3  C          1.9860   14.0810  141.2520 C.2    63  PRO63       0.2576
      4  O          1.5270   13.2750  142.0630 O.2    63  PRO63      -0.2718
      5  CB         0.5240   14.0470  139.2030 C.3    63  PRO63       0.0282
      6  CG         0.4590   14.9830  138.0530 C.3    63  PRO63       0.0208
      7  CD         1.5630   15.9820  138.2500 C.3    63  PRO63       0.0893
      8  N          3.2920   14.2890  141.0980 N.am   64  SER64      -0.1953
      9  CA         4.2820   13.6180  141.9540 C.3    64  SER64       0.1924
     10  C          4.3570   14.2700  143.3360 C.2    64  SER64       0.2314
     11  O          4.8660   13.6880  144.2890 O.2    64  SER64      -0.2863
     12  CB         5.6740   13.6460  141.3130 C.3    64  SER64       0.2116
     13  OG         6.1660   14.9660  141.2620 O.3    64  SER64      -0.2180
     14  N          9.5740    9.6210  138.8280 N.3   164  GLN164     -0.1231
     15  CA         8.7450    9.5350  140.0220 C.3   164  GLN164      0.1698
     16  C          7.2980    9.2370  139.6150 C.2   164  GLN164      0.2592
     17  O          6.5740    8.5260  140.3050 O.2   164  GLN164     -0.2718
     18  CB         8.8260   10.8420  140.8080 C.3   164  GLN164      0.0381
     19  CG        10.2350   11.3050  140.9820 C.3   164  GLN164      0.0905
     20  CD        10.3580   12.6060  141.7470 C.2   164  GLN164      0.2608
     21  OE1        9.4490   13.0020  142.4870 O.2   164  GLN164     -0.2717
     22  NE2       11.4940   13.2790  141.5780 N.am  164  GLN164     -0.0878
     23  N          6.8890    9.7850  138.4820 N.am  165  LEU165     -0.1980
     24  CA         5.5630    9.5160  137.9420 C.3   165  LEU165      0.1596
     25  C          5.4340    8.0570  137.5250 C.2   165  LEU165      0.2287
     26  O          4.4600    7.3870  137.8670 O.2   165  LEU165     -0.2864
     27  CB         5.2900   10.4330  136.7540 C.3   165  LEU165      0.0297
     28  CG         5.1240   11.8950  137.1520 C.3   165  LEU165      0.0022
     29  CD1        4.9560   12.7590  135.9160 C.3   165  LEU165      0.0001
     30  CD2        3.9410   12.0540  138.1030 C.3   165  LEU165      0.0001
     31  N          7.2680    5.5950  138.5980 N.3   167  ALA167     -0.1231
     32  CA         7.3520    4.8320  139.8380 C.3   167  ALA167      0.1694
     33  C          5.9880    4.7420  140.4970 C.2   167  ALA167      0.2593
     34  O          5.5980    3.6830  141.0070 O.2   167  ALA167     -0.2718
     35  CB         8.3550    5.4690  140.7940 C.3   167  ALA167      0.0304
     36  N          5.2710    5.8620  140.4830 N.am  168  GLY168     -0.1942
     37  CA         3.9070    5.9110  140.9660 C.3   168  GLY168      0.2014
     38  C          3.0160    4.9550  140.1960 C.2   168  GLY168      0.2638
     39  O          2.3920    4.0710  140.7880 O.2   168  GLY168     -0.2714
     40  N          2.9640    5.1140  138.8770 N.am  169  GLN169     -0.1977
     41  CA         2.1310    4.2400  138.0490 C.3   169  GLN169      0.1601
     42  C          2.4600    2.7590  138.2510 C.2   169  GLN169      0.2287
     43  O          1.5570    1.9420  138.3980 O.2   169  GLN169     -0.2864
     44  CB         2.2210    4.6170  136.5660 C.3   169  GLN169      0.0394
     45  CG         1.6080    5.9720  136.2270 C.3   169  GLN169      0.0908
     46  CD         0.1120    6.0400  136.5330 C.2   169  GLN169      0.2608
     47  OE1       -0.3070    6.6750  137.5050 O.2   169  GLN169     -0.2717
     48  NE2       -0.6960    5.3900  135.7000 N.am  169  GLN169     -0.0878
     49  N          4.0110    1.2270  140.8780 N.3   171  MET171     -0.1230
     50  CA         3.5860    0.8410  142.2210 C.3   171  MET171      0.1702
     51  C          2.0670    0.6710  142.3510 C.2   171  MET171      0.2592
     52  O          1.6000   -0.1630  143.1140 O.2   171  MET171     -0.2718
     53  CB         4.0910    1.8490  143.2540 C.3   171  MET171      0.0401
     54  CG         5.6040    1.8410  143.4360 C.3   171  MET171      0.0596
     55  SD         6.2280    0.2160  143.9220 S.3   171  MET171     -0.1393
     56  CE         5.5250    0.0460  145.5630 C.3   171  MET171      0.0692
     57  N          1.3050    1.4750  141.6170 N.am  172  GLN172     -0.1979
     58  CA        -0.1530    1.4310  141.6750 C.3   172  GLN172      0.1601
     59  C         -0.7010    0.1800  140.9840 C.2   172  GLN172      0.2287
     60  O         -1.6000   -0.4940  141.4960 O.2   172  GLN172     -0.2864
     61  CB        -0.7540    2.6900  141.0330 C.3   172  GLN172      0.0394
     62  CG        -2.2480    2.5820  140.7330 C.3   172  GLN172      0.0908
     63  CD        -2.8000    3.7850  139.9880 C.2   172  GLN172      0.2608
     64  OE1       -2.1680    4.8400  139.9310 O.2   172  GLN172     -0.2717
     65  NE2       -3.9900    3.6310  139.4130 N.am  172  GLN172     -0.0878
     66  N          8.6590   -3.5970  142.1160 N.3   182  GLN182     -0.1245
     67  CA         9.2920   -2.6410  143.0180 C.3   182  GLN182      0.1566
     68  C         10.6320   -2.1690  142.4600 C.2   182  GLN182      0.2260
     69  O         10.8420   -0.9710  142.2630 O.2   182  GLN182     -0.2867
     70  CB         9.4650   -3.2430  144.4100 C.3   182  GLN182      0.0367
     71  CG         8.1470   -3.5220  145.1040 C.3   182  GLN182      0.0905
     72  CD         8.2700   -4.5630  146.2050 C.2   182  GLN182      0.2608
     73  OE1        9.3730   -4.9870  146.5630 O.2   182  GLN182     -0.2717
     74  NE2        7.1290   -4.9870  146.7420 N.am  182  GLN182     -0.0878
     75  N         10.3420    0.1980  139.7820 N.3   185  ALA185     -0.1231
     76  CA         9.8630    1.4980  140.2350 C.3   185  ALA185      0.1694
     77  C         11.0130    2.2920  140.8210 C.2   185  ALA185      0.2591
     78  O         11.2460    3.4610  140.4590 O.2   185  ALA185     -0.2718
     79  CB         8.7740    1.3260  141.2630 C.3   185  ALA185      0.0304
     80  N         11.7410    1.6430  141.7240 N.am  186  ALA186     -0.1980
     81  CA        12.9150    2.2370  142.3420 C.3   186  ALA186      0.1597
     82  C         13.9080    2.7240  141.2820 C.2   186  ALA186      0.2287
     83  O         14.4710    3.8140  141.4110 O.2   186  ALA186     -0.2864
     84  CB        13.5730    1.2470  143.3010 C.3   186  ALA186      0.0319
     85  N         12.2720    5.8990  139.8950 N.3   189  ASN189     -0.1240
     86  CA        12.3180    6.9850  140.8630 C.3   189  ASN189      0.1653
     87  C         13.7300    7.5100  141.0680 C.2   189  ASN189      0.2266
     88  O         13.9160    8.6560  141.4520 O.2   189  ASN189     -0.2867
     89  CB        11.7310    6.5520  142.2090 C.3   189  ASN189      0.1155
     90  CG        11.7140    7.6810  143.2160 C.2   189  ASN189      0.2627
     91  OD1       12.3500    7.6090  144.2660 O.2   189  ASN189     -0.2716
     92  ND2       10.9960    8.7450  142.8910 N.am  189  ASN189     -0.0877
@<TRIPOS>BOND
     1    48    46   am
     2    29    28    1
     3    45    46    1
     4    45    44    1
     5    46    47    2
     6    44    41    1
     7    27    28    1
     8    27    24    1
     9    28    30    1
    10    25    26    2
    11    25    24    1
    12    24    23    1
    13    41    42    1
    14    41    40    1
    15     6     7    1
    16     6     5    1
    17     7     1    1
    18    42    43    2
    19    23    16   am
    20    31    32    1
    21    14    15    1
    22    40    38   am
    23     5     2    1
    24    65    63   am
    25    16    15    1
    26    16    17    2
    27     1     2    1
    28    75    76    1
    29    32    33    1
    30    32    35    1
    31    85    86    1
    32    64    63    2
    33    63    62    1
    34    15    18    1
    35    38    39    2
    36    38    37    1
    37    76    77    1
    38    76    79    1
    39     2     3    1
    40    78    77    2
    41    36    33   am
    42    36    37    1
    43    33    34    2
    44    62    61    1
    45    18    19    1
    46    77    80   am
    47    86    87    1
    48    86    89    1
    49    49    50    1
    50    19    20    1
    51    59    60    2
    52    59    58    1
    53    61    58    1
    54    87    88    2
    55     8     3   am
    56     8     9    1
    57     3     4    2
    58    13    12    1
    59    82    83    2
    60    82    81    1
    61    12     9    1
    62    22    20   am
    63    57    58    1
    64    57    51   am
    65    80    81    1
    66    20    21    2
    67     9    10    1
    68    66    67    1
    69    89    90    1
    70    50    51    1
    71    50    53    1
    72    69    68    2
    73    81    84    1
    74    51    52    2
    75    68    67    1
    76    92    90   am
    77    67    70    1
    78    90    91    2
    79    53    54    1
    80    10    11    2
    81    54    55    1
    82    55    56    1
    83    70    71    1
    84    71    72    1
    85    72    73    2
    86    72    74   am
