@<TRIPOS>MOLECULE
tmp/3pgsB06.pdb
 100 100 0 0 0
SMALL
GASTEIGER

@<TRIPOS>ATOM
      1  N        -55.8740   12.7890  -37.9500 N.3    88  ILE88      -0.1245
      2  CA       -57.1590   12.5700  -38.6090 C.3    88  ILE88       0.1561
      3  C        -57.8010   13.9200  -38.8720 C.2    88  ILE88       0.2260
      4  O        -58.2110   14.2230  -39.9900 O.2    88  ILE88      -0.2867
      5  CB       -58.0850   11.7140  -37.7290 C.3    88  ILE88       0.0252
      6  CG1      -57.5200   10.2840  -37.6560 C.3    88  ILE88       0.0019
      7  CG2      -59.5160   11.7730  -38.2740 C.3    88  ILE88       0.0019
      8  CD1      -58.0650    9.4440  -36.4950 C.3    88  ILE88       0.0001
      9  N        -58.2230   14.8750  -33.5730 N.3    92  PHE92      -0.1227
     10  CA       -57.9620   13.4380  -33.4630 C.3    92  PHE92       0.1736
     11  C        -56.7830   13.0210  -34.3170 C.2    92  PHE92       0.2596
     12  O        -56.4960   13.6410  -35.3530 O.2    92  PHE92      -0.2718
     13  CB       -59.1730   12.6230  -33.9310 C.3    92  PHE92       0.0547
     14  CG       -60.3770   12.7330  -33.0450 C.ar   92  PHE92      -0.0202
     15  CD1      -61.3810   13.6500  -33.3290 C.ar   92  PHE92      -0.0042
     16  CD2      -60.5280   11.8940  -31.9520 C.ar   92  PHE92      -0.0042
     17  CE1      -62.5090   13.7430  -32.5240 C.ar   92  PHE92      -0.0003
     18  CE2      -61.6510   11.9820  -31.1420 C.ar   92  PHE92      -0.0003
     19  CZ       -62.6410   12.9060  -31.4290 C.ar   92  PHE92      -0.0000
     20  N        -56.1240   11.9460  -33.8970 N.am   93  GLY93      -0.1942
     21  CA       -55.0950   11.3270  -34.7070 C.3    93  GLY93       0.2014
     22  C        -54.9310    9.8820  -34.2890 C.2    93  GLY93       0.2638
     23  O        -55.5660    9.4310  -33.3300 O.2    93  GLY93      -0.2714
     24  N        -54.0770    9.1530  -34.9990 N.am   94  TRP94      -0.1973
     25  CA       -53.8390    7.7540  -34.6650 C.3    94  TRP94       0.1640
     26  C        -52.3800    7.4080  -34.8820 C.2    94  TRP94       0.2290
     27  O        -51.6300    8.1710  -35.4980 O.2    94  TRP94      -0.2864
     28  CB       -54.7420    6.8400  -35.5110 C.3    94  TRP94       0.0576
     29  CG       -54.3470    6.7120  -36.9570 C.ar   94  TRP94       0.0006
     30  CD1      -54.6320    7.5910  -37.9760 C.ar   94  TRP94       0.0946
     31  CD2      -53.6150    5.6290  -37.5570 C.ar   94  TRP94       0.0152
     32  NE1      -54.1080    7.1220  -39.1630 N.ar   94  TRP94      -0.2442
     33  CE2      -53.4770    5.9260  -38.9320 C.ar   94  TRP94       0.0810
     34  CE3      -53.0500    4.4450  -37.0600 C.ar   94  TRP94       0.0012
     35  CZ2      -52.8120    5.0760  -39.8170 C.ar   94  TRP94       0.0191
     36  CZ3      -52.3870    3.6040  -37.9400 C.ar   94  TRP94       0.0001
     37  CH2      -52.2710    3.9250  -39.3040 C.ar   94  TRP94       0.0015
     38  N        -49.4540    3.7270  -35.0140 N.3    96  ALA96      -0.1245
     39  CA       -49.1960    2.3000  -34.8570 C.3    96  ALA96       0.1562
     40  C        -47.6950    2.1070  -34.7480 C.2    96  ALA96       0.2260
     41  O        -46.9190    2.8750  -35.3160 O.2    96  ALA96      -0.2867
     42  CB       -49.7420    1.5130  -36.0470 C.3    96  ALA96       0.0290
     43  N        -51.7260   -0.2390  -31.6980 N.3   130  LEU130     -0.1231
     44  CA       -52.5760    0.6580  -32.4750 C.3   130  LEU130      0.1693
     45  C        -53.1730    1.6790  -31.5100 C.2   130  LEU130      0.2593
     46  O        -53.8390    1.2970  -30.5550 O.2   130  LEU130     -0.2718
     47  CB       -53.6950   -0.1230  -33.1660 C.3   130  LEU130      0.0284
     48  CG       -54.6860    0.7290  -33.9640 C.3   130  LEU130      0.0019
     49  CD1      -53.9660    1.5010  -35.0600 C.3   130  LEU130      0.0001
     50  CD2      -55.7680   -0.1510  -34.5700 C.3   130  LEU130      0.0001
     51  N        -52.9480    2.9710  -31.7470 N.am  131  SER131     -0.1938
     52  CA       -53.3730    3.9940  -30.7800 C.3   131  SER131      0.2055
     53  C        -54.2190    5.0850  -31.4250 C.2   131  SER131      0.2644
     54  O        -54.1320    5.3180  -32.6270 O.2   131  SER131     -0.2714
     55  CB       -52.1510    4.6440  -30.1010 C.3   131  SER131      0.2130
     56  OG       -51.3980    3.7180  -29.3280 O.3   131  SER131     -0.2179
     57  N        -55.0290    5.7520  -30.6050 N.am  132  GLY132     -0.1939
     58  CA       -55.7820    6.9200  -31.0180 C.3   132  GLY132      0.2014
     59  C        -55.6670    7.9770  -29.9340 C.2   132  GLY132      0.2639
     60  O        -55.3450    7.6710  -28.7920 O.2   132  GLY132     -0.2714
     61  N        -55.9230    9.2290  -30.2820 N.am  133  ALA133     -0.1963
     62  CA       -55.8360   10.2860  -29.2890 C.3   133  ALA133      0.1728
     63  C        -56.7850   11.4030  -29.6540 C.2   133  ALA133      0.2616
     64  O        -57.2090   11.5290  -30.8030 O.2   133  ALA133     -0.2715
     65  CB       -54.4050   10.8080  -29.1750 C.3   133  ALA133      0.0334
     66  N        -57.1070   12.2130  -28.6580 N.am  134  TYR134     -0.1974
     67  CA       -58.0820   13.2670  -28.7990 C.3   134  TYR134      0.1639
     68  C        -57.5100   14.4780  -28.1000 C.2   134  TYR134      0.2290
     69  O        -57.0570   14.3720  -26.9700 O.2   134  TYR134     -0.2864
     70  CB       -59.3820   12.8290  -28.1150 C.3   134  TYR134      0.0560
     71  CG       -60.3840   13.9410  -27.8680 C.ar  134  TYR134     -0.0198
     72  CD1      -60.7590   14.2900  -26.5730 C.ar  134  TYR134     -0.0009
     73  CD2      -60.9580   14.6350  -28.9260 C.ar  134  TYR134     -0.0009
     74  CE1      -61.6780   15.3030  -26.3410 C.ar  134  TYR134      0.0417
     75  CE2      -61.8820   15.6500  -28.7040 C.ar  134  TYR134      0.0417
     76  CZ       -62.2360   15.9790  -27.4110 C.ar  134  TYR134      0.1957
     77  OH       -63.1490   16.9870  -27.1950 O.3   134  TYR134     -0.2866
     78  N        -55.5070   13.2630  -24.6510 N.3   142  PHE142     -0.1227
     79  CA       -55.7550   11.9380  -24.0790 C.3   142  PHE142      0.1736
     80  C        -55.5640   10.8770  -25.1560 C.2   142  PHE142      0.2596
     81  O        -56.0080   11.0580  -26.2950 O.2   142  PHE142     -0.2718
     82  CB       -57.1900   11.8680  -23.5470 C.3   142  PHE142      0.0547
     83  CG       -57.5280   12.9850  -22.6010 C.ar  142  PHE142     -0.0202
     84  CD1      -58.0550   14.1770  -23.0740 C.ar  142  PHE142     -0.0042
     85  CD2      -57.2900   12.8510  -21.2400 C.ar  142  PHE142     -0.0042
     86  CE1      -58.3530   15.2070  -22.2050 C.ar  142  PHE142     -0.0003
     87  CE2      -57.5890   13.8790  -20.3630 C.ar  142  PHE142     -0.0003
     88  CZ       -58.1140   15.0550  -20.8440 C.ar  142  PHE142     -0.0000
     89  N        -54.9200    9.7700  -24.8020 N.am  143  GLY143     -0.1942
     90  CA       -54.6410    8.7390  -25.7870 C.3   143  GLY143      0.2014
     91  C        -54.9670    7.3640  -25.2480 C.2   143  GLY143      0.2638
     92  O        -54.9170    7.1400  -24.0430 O.2   143  GLY143     -0.2714
     93  N        -55.2930    6.4410  -26.1470 N.am  144  LEU144     -0.1977
     94  CA       -55.6350    5.0780  -25.7540 C.3   144  LEU144      0.1596
     95  C        -55.0850    4.1520  -26.8230 C.2   144  LEU144      0.2287
     96  O        -55.1650    4.4560  -28.0120 O.2   144  LEU144     -0.2864
     97  CB       -57.1490    4.9120  -25.6880 C.3   144  LEU144      0.0297
     98  CG       -57.8150    4.3970  -24.4150 C.3   144  LEU144      0.0022
     99  CD1      -59.3260    4.3150  -24.6300 C.3   144  LEU144      0.0001
    100  CD2      -57.2520    3.0420  -24.0050 C.3   144  LEU144      0.0001
@<TRIPOS>BOND
     1     4     3    2
     2    35    37   ar
     3    35    33   ar
     4    37    36   ar
     5    32    33   ar
     6    32    30   ar
     7    33    31   ar
     8     3     2    1
     9     2     1    1
    10     2     5    1
    11     7     5    1
    12    30    29   ar
    13    36    34   ar
    14     5     6    1
    15     6     8    1
    16    31    34   ar
    17    31    29   ar
    18    29    28    1
    19    42    39    1
    20    28    25    1
    21    27    26    2
    22    12    11    2
    23    41    40    2
    24    49    48    1
    25    38    39    1
    26    24    25    1
    27    24    22   am
    28    26    25    1
    29    39    40    1
    30    21    22    1
    31    21    20    1
    32    50    48    1
    33    11    20   am
    34    11    10    1
    35    22    23    2
    36    48    47    1
    37    13    10    1
    38    13    14    1
    39     9    10    1
    40    15    14   ar
    41    15    17   ar
    42    47    44    1
    43    14    16   ar
    44    54    53    2
    45    17    19   ar
    46    44    43    1
    47    44    45    1
    48    16    18   ar
    49    51    45   am
    50    51    52    1
    51    45    46    2
    52    19    18   ar
    53    53    52    1
    54    53    57   am
    55    58    57    1
    56    58    59    1
    57    64    63    2
    58    52    55    1
    59    61    59   am
    60    61    62    1
    61    55    56    1
    62    59    60    2
    63    63    62    1
    64    63    66   am
    65    62    65    1
    66    73    75   ar
    67    73    71   ar
    68    67    66    1
    69    67    70    1
    70    67    68    1
    71    75    76   ar
    72    70    71    1
    73    68    69    2
    74    96    95    2
    75    71    72   ar
    76    76    77    1
    77    76    74   ar
    78    95    94    1
    79    72    74   ar
    80    81    80    2
    81    93    94    1
    82    93    91   am
    83    90    91    1
    84    90    89    1
    85    94    97    1
    86    97    98    1
    87    91    92    2
    88    80    89   am
    89    80    79    1
    90    78    79    1
    91    99    98    1
    92    98   100    1
    93    79    82    1
    94    82    83    1
    95    84    83   ar
    96    84    86   ar
    97    83    85   ar
    98    86    88   ar
    99    85    87   ar
   100    88    87   ar
