@<TRIPOS>MOLECULE
tmp/3pgsB07.pdb
 118 110 0 0 0
SMALL
GASTEIGER

@<TRIPOS>ATOM
      1  N        -19.5400  -27.0030   -4.6960 N.3    63  PRO63      -0.2116
      2  CA       -19.1340  -27.9940   -3.6930 C.3    63  PRO63       0.1372
      3  C        -18.3460  -29.1630   -4.3080 C.2    63  PRO63       0.2244
      4  O        -17.6310  -29.8490   -3.5800 O.2    63  PRO63      -0.2868
      5  CB       -20.4700  -28.5090   -3.1390 C.3    63  PRO63       0.0268
      6  CG       -21.4790  -27.4850   -3.5270 C.3    63  PRO63       0.0207
      7  CD       -21.0050  -26.8480   -4.7820 C.3    63  PRO63       0.0892
      8  N        -27.8580  -31.1840  -16.2640 N.3   159  ALA159     -0.1245
      9  CA       -27.4840  -31.7930  -14.9900 C.3   159  ALA159      0.1562
     10  C        -26.3280  -31.0540  -14.2950 C.2   159  ALA159      0.2260
     11  O        -26.2850  -30.9970  -13.0770 O.2   159  ALA159     -0.2867
     12  CB       -27.0930  -33.2670  -15.2010 C.3   159  ALA159      0.0290
     13  N        -24.4360  -32.2780  -10.7480 N.3   162  LEU162     -0.1231
     14  CA       -25.2840  -32.9140   -9.7220 C.3   162  LEU162      0.1693
     15  C        -24.9940  -34.4090   -9.5570 C.2   162  LEU162      0.2592
     16  O        -25.0160  -34.9300   -8.4430 O.2   162  LEU162     -0.2718
     17  CB       -26.7800  -32.7080  -10.0110 C.3   162  LEU162      0.0284
     18  CG       -27.3490  -31.3020   -9.8250 C.3   162  LEU162      0.0019
     19  CD1      -28.8210  -31.2160  -10.3080 C.3   162  LEU162      0.0001
     20  CD2      -27.2400  -30.8530   -8.3630 C.3   162  LEU162      0.0001
     21  N        -24.7560  -35.0990  -10.6670 N.am  163  GLY163     -0.1957
     22  CA       -24.4350  -36.5180  -10.6210 C.3   163  GLY163      0.1869
     23  C        -23.2020  -36.8060   -9.7760 C.2   163  GLY163      0.2309
     24  O        -23.1950  -37.7100   -8.9360 O.2   163  GLY163     -0.2863
     25  N        -21.9990  -34.8120   -7.4630 N.3   165  LEU165     -0.1231
     26  CA       -22.3170  -34.4590   -6.0770 C.3   165  LEU165      0.1693
     27  C        -23.0860  -35.5940   -5.3820 C.2   165  LEU165      0.2591
     28  O        -22.8170  -35.9440   -4.2330 O.2   165  LEU165     -0.2718
     29  CB       -23.1320  -33.1610   -6.0300 C.3   165  LEU165      0.0284
     30  CG       -22.3310  -31.9140   -6.4200 C.3   165  LEU165      0.0019
     31  CD1      -23.2340  -30.6460   -6.4380 C.3   165  LEU165      0.0001
     32  CD2      -21.1440  -31.7570   -5.4650 C.3   165  LEU165      0.0001
     33  N        -24.0550  -36.1610   -6.0870 N.am  166  VAL166     -0.1980
     34  CA       -24.8700  -37.2220   -5.5220 C.3   166  VAL166      0.1595
     35  C        -24.0530  -38.4920   -5.3210 C.2   166  VAL166      0.2287
     36  O        -24.1930  -39.1690   -4.2900 O.2   166  VAL166     -0.2864
     37  CB       -26.1050  -37.5110   -6.4170 C.3   166  VAL166      0.0276
     38  CG1      -26.7680  -38.8040   -5.9870 C.3   166  VAL166      0.0022
     39  CG2      -27.0820  -36.3460   -6.3110 C.3   166  VAL166      0.0022
     40  N        -21.9500  -38.0470   -2.2460 N.3   169  GLN169     -0.1245
     41  CA       -22.8230  -38.1200   -1.0680 C.3   169  GLN169      0.1566
     42  C        -23.1150  -39.5900   -0.7360 C.2   169  GLN169      0.2260
     43  O        -23.0170  -40.0150    0.4150 O.2   169  GLN169     -0.2867
     44  CB       -24.1300  -37.3460   -1.3460 C.3   169  GLN169      0.0367
     45  CG       -25.1900  -37.3670   -0.2360 C.3   169  GLN169      0.0905
     46  CD       -26.5110  -36.6910   -0.6600 C.2   169  GLN169      0.2608
     47  OE1      -26.7210  -36.3700   -1.8360 O.2   169  GLN169     -0.2717
     48  NE2      -27.3990  -36.4740    0.3050 N.am  169  GLN169     -0.0878
     49  N        -25.7250  -42.2240  -10.8110 N.3   188  ALA188     -0.1245
     50  CA       -25.4200  -40.8030  -10.6050 C.3   188  ALA188      0.1562
     51  C        -24.1860  -40.3660  -11.3890 C.2   188  ALA188      0.2260
     52  O        -24.2240  -39.3310  -12.0630 O.2   188  ALA188     -0.2867
     53  CB       -25.2360  -40.4880   -9.1160 C.3   188  ALA188      0.0290
     54  N        -24.6930  -39.7330  -15.1920 N.3   191  ILE191     -0.1245
     55  CA       -25.4400  -38.5730  -15.6950 C.3   191  ILE191      0.1561
     56  C        -24.4380  -37.4890  -16.1270 C.2   191  ILE191      0.2260
     57  O        -23.9160  -36.7460  -15.2840 O.2   191  ILE191     -0.2867
     58  CB       -26.4100  -37.9950  -14.6340 C.3   191  ILE191      0.0252
     59  CG1      -27.3380  -39.0890  -14.0560 C.3   191  ILE191      0.0019
     60  CG2      -27.2470  -36.8310  -15.2300 C.3   191  ILE191      0.0019
     61  CD1      -28.3520  -39.6590  -15.0460 C.3   191  ILE191      0.0001
     62  N        -32.1400  -31.7900  -18.3430 N.3   197  ILE197     -0.1245
     63  CA       -33.0650  -32.1550  -17.2620 C.3   197  ILE197      0.1561
     64  C        -34.3480  -31.3280  -17.3380 C.2   197  ILE197      0.2260
     65  O        -35.2880  -31.5390  -16.5730 O.2   197  ILE197     -0.2867
     66  CB       -32.4050  -32.0200  -15.8560 C.3   197  ILE197      0.0252
     67  CG1      -32.1630  -30.5390  -15.4880 C.3   197  ILE197      0.0019
     68  CG2      -31.0820  -32.8280  -15.7960 C.3   197  ILE197      0.0019
     69  CD1      -31.6980  -30.3530  -14.0200 C.3   197  ILE197      0.0001
     70  N        -33.9040  -37.1970  -18.4190 N.3   243  LEU243     -0.1245
     71  CA       -33.7090  -38.1220  -17.2960 C.3   243  LEU243      0.1561
     72  C        -34.7140  -39.2670  -17.3370 C.2   243  LEU243      0.2260
     73  O        -35.8430  -39.0860  -17.7570 O.2   243  LEU243     -0.2867
     74  CB       -33.8370  -37.4050  -15.9420 C.3   243  LEU243      0.0270
     75  CG       -32.7010  -36.4350  -15.5970 C.3   243  LEU243      0.0019
     76  CD1      -32.9320  -35.8790  -14.1750 C.3   243  LEU243      0.0001
     77  CD2      -31.3480  -37.1350  -15.6870 C.3   243  LEU243      0.0001
     78  N        -36.4840  -41.3390  -11.7710 N.3   247  PHE247     -0.1241
     79  CA       -36.0530  -40.2670  -10.8640 C.3   247  PHE247      0.1605
     80  C        -37.2320  -39.5760  -10.1800 C.2   247  PHE247      0.2264
     81  O        -37.0470  -38.8760   -9.1860 O.2   247  PHE247     -0.2867
     82  CB       -35.2790  -39.1860  -11.6160 C.3   247  PHE247      0.0534
     83  CG       -33.8320  -39.4950  -11.8060 C.ar  247  PHE247     -0.0203
     84  CD1      -33.3790  -40.0580  -12.9950 C.ar  247  PHE247     -0.0042
     85  CD2      -32.9080  -39.2080  -10.7950 C.ar  247  PHE247     -0.0042
     86  CE1      -32.0140  -40.3360  -13.1850 C.ar  247  PHE247     -0.0003
     87  CE2      -31.5490  -39.4810  -10.9720 C.ar  247  PHE247     -0.0003
     88  CZ       -31.1010  -40.0460  -12.1700 C.ar  247  PHE247     -0.0000
     89  N        -37.0840  -35.0740   -5.1240 N.3   252  LEU252     -0.1231
     90  CA       -35.7920  -34.5140   -5.5220 C.3   252  LEU252      0.1678
     91  C        -36.0080  -33.1500   -6.1550 C.2   252  LEU252      0.2434
     92  O        -36.9770  -32.9580   -6.8980 O.2   252  LEU252     -0.2733
     93  CB       -35.0430  -35.4340   -6.5030 C.3   252  LEU252      0.0284
     94  CG       -34.6540  -36.8050   -5.9270 C.3   252  LEU252      0.0019
     95  CD1      -34.1260  -37.7230   -7.0320 C.3   252  LEU252      0.0001
     96  CD2      -33.6150  -36.6430   -4.8200 C.3   252  LEU252      0.0001
     97  N        -35.1160  -32.1920   -5.8540 N.am  253  PRO253     -0.2718
     98  CA       -35.2910  -30.8350   -6.3950 C.3   253  PRO253      0.1535
     99  C        -34.7770  -30.7470   -7.8300 C.2   253  PRO253      0.2598
    100  O        -33.7890  -30.0690   -8.1030 O.2   253  PRO253     -0.2715
    101  CB       -34.4370  -29.9750   -5.4520 C.3   253  PRO253      0.0310
    102  CG       -33.3250  -30.8970   -5.0390 C.3   253  PRO253      0.0237
    103  CD       -33.9930  -32.2640   -4.9000 C.3   253  PRO253      0.0939
    104  N        -35.4450  -31.4600   -8.7350 N.am  254  ILE254     -0.1978
    105  CA       -35.1460  -31.3930  -10.1630 C.3   254  ILE254      0.1596
    106  C        -36.4940  -31.4320  -10.8750 C.2   254  ILE254      0.2287
    107  O        -37.4880  -31.8850  -10.2900 O.2   254  ILE254     -0.2864
    108  CB       -34.3060  -32.6000  -10.6310 C.3   254  ILE254      0.0276
    109  CG1      -34.9190  -33.9080  -10.1030 C.3   254  ILE254      0.0022
    110  CG2      -32.8400  -32.4390  -10.2100 C.3   254  ILE254      0.0022
    111  CD1      -34.2230  -35.1680  -10.6370 C.3   254  ILE254      0.0001
    112  N        -27.7450  -25.9110   -4.5930 N.3   401  PRO401     -0.2116
    113  CA       -26.5700  -26.1980   -3.7580 C.3   401  PRO401      0.1372
    114  C        -25.3990  -25.2350   -4.0030 C.2   401  PRO401      0.2244
    115  O        -24.3210  -25.4500   -3.4540 O.2   401  PRO401     -0.2868
    116  CB       -26.1800  -27.6070   -4.2020 C.3   401  PRO401      0.0268
    117  CG       -26.5880  -27.6490   -5.6640 C.3   401  PRO401      0.0207
    118  CD       -27.8360  -26.8050   -5.7640 C.3   401  PRO401      0.0892
@<TRIPOS>BOND
     1    70    71    1
     2    62    63    1
     3    73    72    2
     4    64    63    1
     5    64    65    2
     6    72    71    1
     7    71    74    1
     8    63    66    1
     9     8     9    1
    10    56    55    1
    11    56    57    2
    12    74    75    1
    13    66    68    1
    14    66    67    1
    15    55    54    1
    16    55    58    1
    17    77    75    1
    18    75    76    1
    19    67    69    1
    20    60    58    1
    21    12     9    1
    22    61    59    1
    23     9    10    1
    24    58    59    1
    25    10    11    2
    26    86    84   ar
    27    86    88   ar
    28    84    83   ar
    29    88    87   ar
    30    52    51    2
    31    83    82    1
    32    83    85   ar
    33    78    79    1
    34    82    79    1
    35    51    50    1
    36    87    85   ar
    37   106   107    2
    38   106   105    1
    39    79    80    1
    40    49    50    1
    41    13    14    1
    42    21    22    1
    43    21    15   am
    44   111   109    1
    45   108   110    1
    46   108   105    1
    47   108   109    1
    48    22    23    1
    49    50    53    1
    50    19    18    1
    51    80    81    2
    52   105   104    1
    53    17    18    1
    54    17    14    1
    55    18    20    1
    56    23    24    2
    57    14    15    1
    58    15    16    2
    59   104    99   am
    60   100    99    2
    61    99    98    1
    62    25    26    1
    63    95    94    1
    64    92    91    2
    65    93    94    1
    66    93    90    1
    67    31    30    1
    68    30    29    1
    69    30    32    1
    70    37    39    1
    71    37    38    1
    72    37    34    1
    73    98    97    1
    74    98   101    1
    75    91    97   am
    76    91    90    1
    77    33    34    1
    78    33    27   am
    79    26    29    1
    80    26    27    1
    81    94    96    1
    82    97   103    1
    83   118   117    1
    84   118   112    1
    85   117   116    1
    86    90    89    1
    87    34    35    1
    88   101   102    1
    89    27    28    2
    90    35    36    2
    91   102   103    1
    92     7     1    1
    93     7     6    1
    94     1     2    1
    95   112   113    1
    96     3     2    1
    97     3     4    2
    98   116   113    1
    99   114   113    1
   100   114   115    2
   101     2     5    1
   102     6     5    1
   103    40    41    1
   104    47    46    2
   105    44    41    1
   106    44    45    1
   107    41    42    1
   108    42    43    2
   109    46    45    1
   110    46    48   am
