@<TRIPOS>MOLECULE
tmp/3pgsA01.pdb
 100 98 0 0 0
SMALL
GASTEIGER

@<TRIPOS>ATOM
      1  N        -36.5180   20.7210   34.3130 N.3   335  TYR335     -0.1227
      2  CA       -37.6500   21.5180   34.7900 C.3   335  TYR335      0.1736
      3  C        -37.3430   22.3510   36.0380 C.2   335  TYR335      0.2595
      4  O        -37.4540   23.5830   36.0170 O.2   335  TYR335     -0.2718
      5  CB       -38.8680   20.6220   35.0230 C.3   335  TYR335      0.0548
      6  CG       -40.0610   21.3570   35.5940 C.ar  335  TYR335     -0.0200
      7  CD1      -40.9250   22.0660   34.7680 C.ar  335  TYR335     -0.0009
      8  CD2      -40.3230   21.3400   36.9560 C.ar  335  TYR335     -0.0009
      9  CE1      -42.0180   22.7450   35.2840 C.ar  335  TYR335      0.0417
     10  CE2      -41.4150   22.0180   37.4870 C.ar  335  TYR335      0.0417
     11  CZ       -42.2610   22.7150   36.6430 C.ar  335  TYR335      0.1957
     12  OH       -43.3490   23.3870   37.1590 O.3   335  TYR335     -0.2866
     13  N        -36.9820   21.6900   37.1340 N.am  336  ASP336     -0.1974
     14  CA       -36.5730   22.4190   38.3390 C.3   336  ASP336      0.1709
     15  C        -35.5530   21.6210   39.1500 C.2   336  ASP336      0.2293
     16  O        -34.9850   20.6560   38.6480 O.2   336  ASP336     -0.2864
     17  CB       -37.7800   22.8830   39.1920 C.3   336  ASP336      0.1436
     18  CG       -38.5690   21.7270   39.8040 C.2   336  ASP336      0.3671
     19  OD1      -38.0440   20.5940   39.8680 O.co2 336  ASP336     -0.2456
     20  OD2      -39.7240   21.9580   40.2370 O.co2 336  ASP336     -0.2456
     21  N        -37.1320   17.9420   39.4090 N.3   339  TRP339     -0.1241
     22  CA       -37.6810   17.2260   38.2650 C.3   339  TRP339      0.1605
     23  C        -36.9200   17.4480   36.9690 C.2   339  TRP339      0.2264
     24  O        -36.6540   18.5870   36.5800 O.2   339  TRP339     -0.2867
     25  CB       -39.1350   17.6290   38.0510 C.3   339  TRP339      0.0550
     26  CG       -40.0520   17.1920   39.1360 C.ar  339  TRP339      0.0003
     27  CD1      -40.5380   17.9600   40.1610 C.ar  339  TRP339      0.0946
     28  CD2      -40.6110   15.8860   39.3090 C.ar  339  TRP339      0.0152
     29  NE1      -41.3640   17.2060   40.9600 N.ar  339  TRP339     -0.2442
     30  CE2      -41.4310   15.9320   40.4570 C.ar  339  TRP339      0.0810
     31  CE3      -40.5000   14.6820   38.6060 C.ar  339  TRP339      0.0012
     32  CZ2      -42.1350   14.8180   40.9200 C.ar  339  TRP339      0.0191
     33  CZ3      -41.2050   13.5720   39.0640 C.ar  339  TRP339      0.0001
     34  CH2      -42.0090   13.6490   40.2130 C.ar  339  TRP339      0.0015
     35  N        -37.1780   15.8530   32.9020 N.3   341  PHE341     -0.1241
     36  CA       -37.9270   15.0060   31.9700 C.3   341  PHE341      0.1605
     37  C        -37.1360   14.7890   30.6860 C.2   341  PHE341      0.2264
     38  O        -36.2880   15.6030   30.3320 O.2   341  PHE341     -0.2867
     39  CB       -39.2820   15.6250   31.6610 C.3   341  PHE341      0.0534
     40  CG       -40.0750   15.9430   32.8900 C.ar  341  PHE341     -0.0203
     41  CD1      -40.0920   17.2270   33.4060 C.ar  341  PHE341     -0.0042
     42  CD2      -40.7620   14.9410   33.5560 C.ar  341  PHE341     -0.0042
     43  CE1      -40.8030   17.5160   34.5480 C.ar  341  PHE341     -0.0003
     44  CE2      -41.4750   15.2220   34.7050 C.ar  341  PHE341     -0.0003
     45  CZ       -41.4970   16.5150   35.2010 C.ar  341  PHE341     -0.0000
     46  N        -38.2560   10.2050   33.3170 N.3   373  THR373     -0.1218
     47  CA       -38.1570   11.2810   34.2970 C.3   373  THR373      0.1862
     48  C        -37.1400   10.9450   35.3740 C.2   373  THR373      0.2287
     49  O        -36.8430    9.7740   35.6300 O.2   373  THR373     -0.2866
     50  CB       -39.5280   11.6150   34.9490 C.3   373  THR373      0.1770
     51  OG1      -39.3740   12.7240   35.8440 O.3   373  THR373     -0.2211
     52  CG2      -40.0530   10.4390   35.7310 C.3   373  THR373      0.0375
     53  N        -36.2830   12.1460   39.4280 N.3   375  TYR375     -0.1241
     54  CA       -36.6090   12.9490   40.6000 C.3   375  TYR375      0.1605
     55  C        -35.3930   12.9900   41.5010 C.2   375  TYR375      0.2264
     56  O        -34.8960   11.9480   41.9130 O.2   375  TYR375     -0.2867
     57  CB       -37.7970   12.3630   41.3750 C.3   375  TYR375      0.0534
     58  CG       -38.2070   13.2060   42.5630 C.ar  375  TYR375     -0.0201
     59  CD1      -39.1270   14.2390   42.4170 C.ar  375  TYR375     -0.0009
     60  CD2      -37.6620   12.9880   43.8250 C.ar  375  TYR375     -0.0009
     61  CE1      -39.5030   15.0250   43.4910 C.ar  375  TYR375      0.0417
     62  CE2      -38.0330   13.7710   44.9090 C.ar  375  TYR375      0.0417
     63  CZ       -38.9550   14.7880   44.7320 C.ar  375  TYR375      0.1957
     64  OH       -39.3380   15.5710   45.7930 O.3   375  TYR375     -0.2866
     65  N        -33.9910   13.7760   45.0610 N.3   377  PHE377     -0.1241
     66  CA       -34.4030   13.9600   46.4510 C.3   377  PHE377      0.1605
     67  C        -33.6240   15.1090   47.0710 C.2   377  PHE377      0.2264
     68  O        -34.1240   15.8320   47.9330 O.2   377  PHE377     -0.2867
     69  CB       -34.1700   12.6820   47.2550 C.3   377  PHE377      0.0534
     70  CG       -34.8470   11.4690   46.6700 C.ar  377  PHE377     -0.0203
     71  CD1      -34.1470   10.6020   45.8460 C.ar  377  PHE377     -0.0042
     72  CD2      -36.1870   11.2030   46.9430 C.ar  377  PHE377     -0.0042
     73  CE1      -34.7630    9.4820   45.2980 C.ar  377  PHE377     -0.0003
     74  CE2      -36.8070   10.0940   46.4050 C.ar  377  PHE377     -0.0003
     75  CZ       -36.0990    9.2290   45.5830 C.ar  377  PHE377     -0.0000
     76  N        -33.7630    9.2910   41.6260 N.3   383  VAL383     -0.1245
     77  CA       -34.2650    8.0840   40.9740 C.3   383  VAL383      0.1561
     78  C        -34.6430    8.3960   39.5300 C.2   383  VAL383      0.2260
     79  O        -35.2520    9.4330   39.2530 O.2   383  VAL383     -0.2867
     80  CB       -35.4630    7.4880   41.7470 C.3   383  VAL383      0.0252
     81  CG1      -36.5250    8.5520   42.0180 C.3   383  VAL383      0.0019
     82  CG2      -36.0560    6.3050   40.9740 C.3   383  VAL383      0.0019
     83  N        -36.6890    6.9630   36.1450 N.3   385  VAL385     -0.1245
     84  CA       -37.6460    6.0100   35.6200 C.3   385  VAL385      0.1561
     85  C        -37.7630    6.2530   34.1320 C.2   385  VAL385      0.2260
     86  O        -37.8360    7.3950   33.6930 O.2   385  VAL385     -0.2867
     87  CB       -39.0170    6.1560   36.3110 C.3   385  VAL385      0.0252
     88  CG1      -40.0370    5.2650   35.6360 C.3   385  VAL385      0.0019
     89  CG2      -38.8820    5.7870   37.7690 C.3   385  VAL385      0.0019
     90  N        -31.4250    3.9800   40.7320 N.3   417  PHE417     -0.1241
     91  CA       -31.1910    4.9010   41.8330 C.3   417  PHE417      0.1605
     92  C        -29.7630    5.4290   41.7310 C.2   417  PHE417      0.2264
     93  O        -28.8360    4.7050   41.3490 O.2   417  PHE417     -0.2867
     94  CB       -31.4710    4.2360   43.1850 C.3   417  PHE417      0.0534
     95  CG       -32.9400    3.9790   43.4420 C.ar  417  PHE417     -0.0203
     96  CD1      -33.5720    2.8730   42.8940 C.ar  417  PHE417     -0.0042
     97  CD2      -33.6860    4.8490   44.2210 C.ar  417  PHE417     -0.0042
     98  CE1      -34.9240    2.6360   43.1230 C.ar  417  PHE417     -0.0003
     99  CE2      -35.0350    4.6160   44.4600 C.ar  417  PHE417     -0.0003
    100  CZ       -35.6520    3.5100   43.9090 C.ar  417  PHE417     -0.0000
@<TRIPOS>BOND
     1    38    37    2
     2    37    36    1
     3    39    36    1
     4    39    40    1
     5    36    35    1
     6    40    41   ar
     7    40    42   ar
     8    46    47    1
     9    41    43   ar
    10    42    44   ar
    11    86    85    2
    12    85    84    1
    13    47    50    1
    14    47    48    1
    15     1     2    1
    16    43    45   ar
    17    44    45   ar
    18     7     9   ar
    19     7     6   ar
    20     2     5    1
    21     2     3    1
    22    50    52    1
    23    50    51    1
    24     5     6    1
    25     9    11   ar
    26    48    49    2
    27     6     8   ar
    28    84    83    1
    29    84    87    1
    30    88    87    1
    31     4     3    2
    32     3    13   am
    33    87    89    1
    34    24    23    2
    35    11    12    1
    36    11    10   ar
    37     8    10   ar
    38    23    22    1
    39    13    14    1
    40    25    22    1
    41    25    26    1
    42    22    21    1
    43    14    15    1
    44    14    17    1
    45    31    33   ar
    46    31    28   ar
    47    16    15    2
    48    33    34   ar
    49    26    28   ar
    50    26    27   ar
    51    17    18    1
    52    79    78    2
    53    28    30   ar
    54    53    54    1
    55    78    77    1
    56    18    19   ar
    57    18    20   ar
    58    27    29   ar
    59    34    32   ar
    60    30    32   ar
    61    30    29   ar
    62    54    57    1
    63    54    55    1
    64    90    91    1
    65    82    80    1
    66    77    76    1
    67    77    80    1
    68    93    92    2
    69    57    58    1
    70    55    56    2
    71    92    91    1
    72    80    81    1
    73    91    94    1
    74    59    58   ar
    75    59    61   ar
    76    58    60   ar
    77    96    98   ar
    78    96    95   ar
    79    98   100   ar
    80    94    95    1
    81    95    97   ar
    82    61    63   ar
    83    60    62   ar
    84   100    99   ar
    85    97    99   ar
    86    63    62   ar
    87    63    64    1
    88    65    66    1
    89    73    75   ar
    90    73    71   ar
    91    75    74   ar
    92    71    70   ar
    93    74    72   ar
    94    66    67    1
    95    66    69    1
    96    70    72   ar
    97    70    69    1
    98    67    68    2
