@<TRIPOS>MOLECULE
tmp/3pgsB09.pdb
 119 112 0 0 0
SMALL
GASTEIGER

@<TRIPOS>ATOM
      1  N        -48.3530   23.0660  -20.6440 N.3   217  LEU217     -0.1231
      2  CA       -48.3780   24.3950  -20.0370 C.3   217  LEU217      0.1693
      3  C        -48.3310   25.4490  -21.1380 C.2   217  LEU217      0.2592
      4  O        -49.1040   26.4030  -21.1420 O.2   217  LEU217     -0.2718
      5  CB       -47.1790   24.5550  -19.1030 C.3   217  LEU217      0.0284
      6  CG       -47.4120   25.1680  -17.7230 C.3   217  LEU217      0.0019
      7  CD1      -46.1140   25.1940  -16.9270 C.3   217  LEU217      0.0001
      8  CD2      -47.9770   26.5580  -17.8590 C.3   217  LEU217      0.0001
      9  N        -47.3930   25.2750  -22.0610 N.am  218  ASP218     -0.1974
     10  CA       -47.3600   26.0380  -23.3010 C.3   218  ASP218      0.1709
     11  C        -46.6820   25.1620  -24.3420 C.2   218  ASP218      0.2293
     12  O        -46.5120   23.9620  -24.1200 O.2   218  ASP218     -0.2864
     13  CB       -46.6440   27.3910  -23.1390 C.3   218  ASP218      0.1436
     14  CG       -45.1950   27.2560  -22.6690 C.2   218  ASP218      0.3671
     15  OD1      -44.5960   26.1650  -22.8040 O.co2 218  ASP218     -0.2456
     16  OD2      -44.6470   28.2650  -22.1720 O.co2 218  ASP218     -0.2456
     17  N        -43.3370   23.5390  -22.7520 N.3   221  ASN221     -0.1240
     18  CA       -43.3350   22.8310  -21.4800 C.3   221  ASN221      0.1653
     19  C        -44.5490   21.9180  -21.3730 C.2   221  ASN221      0.2266
     20  O        -45.6890   22.3590  -21.5490 O.2   221  ASN221     -0.2867
     21  CB       -43.3240   23.8350  -20.3230 C.3   221  ASN221      0.1155
     22  CG       -42.1080   24.7460  -20.3510 C.2   221  ASN221      0.2627
     23  OD1      -41.0490   24.4030  -19.8180 O.2   221  ASN221     -0.2716
     24  ND2      -42.2540   25.9140  -20.9680 N.am  221  ASN221     -0.0877
     25  N        -46.1760   17.9100  -19.5800 N.3   223  TYR223     -0.1241
     26  CA       -46.0500   16.8490  -18.5970 C.3   223  TYR223      0.1605
     27  C        -46.9790   15.7150  -18.9770 C.2   223  TYR223      0.2264
     28  O        -47.9930   15.9320  -19.6350 O.2   223  TYR223     -0.2867
     29  CB       -46.3880   17.3990  -17.2170 C.3   223  TYR223      0.0534
     30  CG       -45.4810   18.5500  -16.8590 C.ar  223  TYR223     -0.0201
     31  CD1      -45.8240   19.8570  -17.1800 C.ar  223  TYR223     -0.0009
     32  CD2      -44.2570   18.3230  -16.2480 C.ar  223  TYR223     -0.0009
     33  CE1      -44.9790   20.9120  -16.8740 C.ar  223  TYR223      0.0417
     34  CE2      -43.4080   19.3650  -15.9400 C.ar  223  TYR223      0.0417
     35  CZ       -43.7740   20.6560  -16.2530 C.ar  223  TYR223      0.1957
     36  OH       -42.9210   21.6870  -15.9390 O.3   223  TYR223     -0.2866
     37  N        -44.4750    8.9090  -15.1870 N.3   277  VAL277     -0.1231
     38  CA       -44.6970   10.3500  -15.2570 C.3   277  VAL277      0.1692
     39  C        -43.4780   11.0110  -15.8870 C.2   277  VAL277      0.2592
     40  O        -42.3380   10.6440  -15.5860 O.2   277  VAL277     -0.2718
     41  CB       -44.9590   10.9780  -13.8740 C.3   277  VAL277      0.0266
     42  CG1      -46.3480   10.5910  -13.3650 C.3   277  VAL277      0.0020
     43  CG2      -43.8740   10.5730  -12.8830 C.3   277  VAL277      0.0020
     44  N        -43.7210   11.9860  -16.7600 N.am  278  SER278     -0.1952
     45  CA       -42.6470   12.6370  -17.5040 C.3   278  SER278      0.1924
     46  C        -42.8290   14.1350  -17.5420 C.2   278  SER278      0.2314
     47  O        -43.9550   14.6260  -17.4760 O.2   278  SER278     -0.2863
     48  CB       -42.6300   12.1460  -18.9560 C.3   278  SER278      0.2116
     49  OG       -42.4880   10.7410  -19.0360 O.3   278  SER278     -0.2180
     50  N        -38.9890   20.3210  -20.5330 N.3   281  ASN281     -0.1240
     51  CA       -38.9070   21.7790  -20.5050 C.3   281  ASN281      0.1653
     52  C        -37.8760   22.3070  -21.4890 C.2   281  ASN281      0.2266
     53  O        -36.6760   22.1070  -21.2980 O.2   281  ASN281     -0.2867
     54  CB       -38.5790   22.2960  -19.0980 C.3   281  ASN281      0.1155
     55  CG       -39.5300   21.7610  -18.0430 C.2   281  ASN281      0.2627
     56  OD1      -40.6810   22.1900  -17.9550 O.2   281  ASN281     -0.2716
     57  ND2      -39.0480   20.8280  -17.2310 N.am  281  ASN281     -0.0877
     58  N        -36.1920   25.2510  -22.0980 N.3   283  VAL283     -0.1245
     59  CA       -35.9610   26.4490  -21.3060 C.3   283  VAL283      0.1561
     60  C        -35.2890   27.5420  -22.1300 C.2   283  VAL283      0.2260
     61  O        -35.2540   28.7040  -21.7330 O.2   283  VAL283     -0.2867
     62  CB       -35.0900   26.1230  -20.0810 C.3   283  VAL283      0.0252
     63  CG1      -35.7620   25.0510  -19.2240 C.3   283  VAL283      0.0019
     64  CG2      -33.7120   25.6550  -20.5230 C.3   283  VAL283      0.0019
     65  N        -34.6200   20.1210  -21.1060 N.3   289  ILE289     -0.1245
     66  CA       -34.3690   19.0600  -20.1470 C.3   289  ILE289      0.1561
     67  C        -35.6220   18.2100  -20.1000 C.2   289  ILE289      0.2260
     68  O        -36.7080   18.6870  -20.3940 O.2   289  ILE289     -0.2867
     69  CB       -34.0780   19.6140  -18.7410 C.3   289  ILE289      0.0252
     70  CG1      -35.2680   20.4370  -18.2450 C.3   289  ILE289      0.0019
     71  CG2      -32.8170   20.4690  -18.7550 C.3   289  ILE289      0.0019
     72  CD1      -35.1840   20.7920  -16.7830 C.3   289  ILE289      0.0001
     73  N        -37.2730   14.4410  -18.0180 N.3   291  TYR291     -0.1227
     74  CA       -37.0290   13.5730  -16.8710 C.3   291  TYR291      0.1736
     75  C        -38.2680   12.7240  -16.6460 C.2   291  TYR291      0.2596
     76  O        -39.3540   13.0720  -17.0940 O.2   291  TYR291     -0.2718
     77  CB       -36.7280   14.4280  -15.6320 C.3   291  TYR291      0.0548
     78  CG       -37.5870   15.6730  -15.5930 C.ar  291  TYR291     -0.0200
     79  CD1      -38.8310   15.6600  -14.9760 C.ar  291  TYR291     -0.0009
     80  CD2      -37.1780   16.8380  -16.2260 C.ar  291  TYR291     -0.0009
     81  CE1      -39.6350   16.7810  -14.9590 C.ar  291  TYR291      0.0417
     82  CE2      -37.9790   17.9740  -16.2200 C.ar  291  TYR291      0.0417
     83  CZ       -39.2050   17.9360  -15.5810 C.ar  291  TYR291      0.1957
     84  OH       -40.0100   19.0490  -15.5690 O.3   291  TYR291     -0.2866
     85  N        -38.1150   11.6060  -15.9540 N.am  292  SER292     -0.1938
     86  CA       -39.2480   10.7190  -15.7640 C.3   292  SER292      0.2055
     87  C        -39.0530    9.8300  -14.5490 C.2   292  SER292      0.2642
     88  O        -37.9310    9.6110  -14.0960 O.2   292  SER292     -0.2714
     89  CB       -39.4690    9.8560  -17.0120 C.3   292  SER292      0.2130
     90  OG       -38.2730    9.1860  -17.3890 O.3   292  SER292     -0.2179
     91  N        -40.1670    9.3310  -14.0320 N.am  293  LEU293     -0.1977
     92  CA       -40.1600    8.3200  -12.9810 C.3   293  LEU293      0.1596
     93  C        -41.1510    7.2650  -13.4120 C.2   293  LEU293      0.2287
     94  O        -42.3100    7.5760  -13.6880 O.2   293  LEU293     -0.2864
     95  CB       -40.6020    8.9250  -11.6470 C.3   293  LEU293      0.0297
     96  CG       -40.8130    7.9190  -10.5050 C.3   293  LEU293      0.0022
     97  CD1      -39.5160    7.2050  -10.1780 C.3   293  LEU293      0.0001
     98  CD2      -41.3450    8.6210   -9.2690 C.3   293  LEU293      0.0001
     99  N        -35.6660    5.9120  -12.6510 N.3   327  ILE327     -0.1231
    100  CA       -35.6520    7.3670  -12.7240 C.3   327  ILE327      0.1692
    101  C        -34.6170    7.8010  -13.7580 C.2   327  ILE327      0.2592
    102  O        -33.5630    7.1700  -13.8900 O.2   327  ILE327     -0.2718
    103  CB       -35.4030    7.9920  -11.3310 C.3   327  ILE327      0.0266
    104  CG1      -35.6520    9.5010  -11.3580 C.3   327  ILE327      0.0019
    105  CG2      -34.0060    7.6500  -10.8210 C.3   327  ILE327      0.0020
    106  CD1      -35.7160   10.1310   -9.9750 C.3   327  ILE327      0.0001
    107  N        -34.9310    8.8520  -14.5130 N.am  328  ALA328     -0.1966
    108  CA       -34.0660    9.2700  -15.6100 C.3   328  ALA328      0.1728
    109  C        -34.1260   10.7710  -15.8250 C.2   328  ALA328      0.2616
    110  O        -35.1730   11.3910  -15.6530 O.2   328  ALA328     -0.2715
    111  CB       -34.4530    8.5420  -16.8920 C.3   328  ALA328      0.0334
    112  N        -32.9990   11.3440  -16.2340 N.am  329  LEU329     -0.1977
    113  CA       -32.8870   12.7800  -16.4210 C.3   329  LEU329      0.1596
    114  C        -31.9370   13.0070  -17.5900 C.2   329  LEU329      0.2287
    115  O        -30.8580   12.4070  -17.6580 O.2   329  LEU329     -0.2864
    116  CB       -32.3300   13.4020  -15.1380 C.3   329  LEU329      0.0297
    117  CG       -32.3390   14.9100  -14.8560 C.3   329  LEU329      0.0022
    118  CD1      -30.9460   15.3520  -14.4300 C.3   329  LEU329      0.0001
    119  CD2      -32.8560   15.7530  -16.0130 C.3   329  LEU329      0.0001
@<TRIPOS>BOND
     1    11    12    2
     2    11    10    1
     3    10    13    1
     4    10     9    1
     5    13    14    1
     6    15    14   ar
     7    17    18    1
     8    14    16   ar
     9    60    61    2
    10    60    59    1
    11    58    59    1
    12     9     3   am
    13    20    19    2
    14    52    53    2
    15    52    51    1
    16    18    19    1
    17    18    21    1
    18    59    62    1
    19     4     3    2
    20     3     2    1
    21    65    66    1
    22    24    22   am
    23     1     2    1
    24    50    51    1
    25    64    62    1
    26    51    54    1
    27    68    67    2
    28    22    21    1
    29    22    23    2
    30    66    67    1
    31    66    69    1
    32    62    63    1
    33     2     5    1
    34    28    27    2
    35    25    26    1
    36     5     6    1
    37    54    55    1
    38    49    48    1
    39    27    26    1
    40    48    45    1
    41    71    69    1
    42    69    70    1
    43    26    29    1
    44    70    72    1
    45    55    56    2
    46    55    57   am
    47    73    74    1
    48     8     6    1
    49     6     7    1
    50   115   114    2
    51   114   113    1
    52    46    45    1
    53    46    47    2
    54    45    44    1
    55    90    89    1
    56    29    30    1
    57    31    33   ar
    58    31    30   ar
    59    76    75    2
    60    89    86    1
    61   111   108    1
    62    33    35   ar
    63    74    75    1
    64    74    77    1
    65    30    32   ar
    66    44    39   am
    67    75    85   am
    68   113   112    1
    69   113   116    1
    70    35    34   ar
    71    35    36    1
    72    32    34   ar
    73   112   109   am
    74    80    82   ar
    75    80    78   ar
    76    82    83   ar
    77   119   117    1
    78    85    86    1
    79    39    40    2
    80    39    38    1
    81   109   110    2
    82   109   108    1
    83    86    87    1
    84    77    78    1
    85   108   107    1
    86    78    79   ar
    87    83    84    1
    88    83    81   ar
    89    38    37    1
    90    38    41    1
    91   116   117    1
    92    79    81   ar
    93   117   118    1
    94    87    88    2
    95    87    91   am
    96   107   101   am
    97    91    92    1
    98   102   101    2
    99    41    42    1
   100    41    43    1
   101   101   100    1
   102    94    93    2
   103    93    92    1
   104    92    95    1
   105   100    99    1
   106   100   103    1
   107    95    96    1
   108   104   103    1
   109   104   106    1
   110   103   105    1
   111    96    97    1
   112    96    98    1
