@<TRIPOS>MOLECULE
tmp/3pgsA02.pdb
 88 84 0 0 0
SMALL
GASTEIGER

@<TRIPOS>ATOM
      1  N        -45.5640  -27.3640    5.2210 N.3    63  PRO63      -0.2116
      2  CA       -46.0050  -28.2700    4.1530 C.3    63  PRO63       0.1372
      3  C        -46.7720  -29.4790    4.7080 C.2    63  PRO63       0.2244
      4  O        -47.4830  -30.1220    3.9440 O.2    63  PRO63      -0.2868
      5  CB       -44.6950  -28.7550    3.5140 C.3    63  PRO63       0.0268
      6  CG       -43.6490  -27.8020    3.9760 C.3    63  PRO63       0.0207
      7  CD       -44.0930  -27.2210    5.2840 C.3    63  PRO63       0.0892
      8  N        -41.0400  -36.5570    6.1060 N.3   166  VAL166     -0.1245
      9  CA       -40.2290  -37.5880    5.4740 C.3   166  VAL166      0.1561
     10  C        -41.0610  -38.8340    5.1950 C.2   166  VAL166      0.2260
     11  O        -40.9790  -39.4180    4.1100 O.2   166  VAL166     -0.2867
     12  CB       -38.9980  -37.9420    6.3440 C.3   166  VAL166      0.0252
     13  CG1      -38.3560  -39.2460    5.8580 C.3   166  VAL166      0.0019
     14  CG2      -37.9820  -36.7730    6.3160 C.3   166  VAL166      0.0019
     15  N        -43.0870  -38.2080    2.2020 N.3   169  GLN169     -0.1231
     16  CA       -42.1640  -38.2300    1.0630 C.3   169  GLN169      0.1698
     17  C        -41.9190  -39.6590    0.5780 C.2   169  GLN169      0.2592
     18  O        -41.9900  -39.9510   -0.6100 O.2   169  GLN169     -0.2718
     19  CB       -40.8320  -37.5800    1.4760 C.3   169  GLN169      0.0381
     20  CG       -39.7440  -37.5200    0.3830 C.3   169  GLN169      0.0905
     21  CD       -38.4800  -36.7710    0.8260 C.2   169  GLN169      0.2608
     22  OE1      -38.2790  -36.4930    2.0130 O.2   169  GLN169     -0.2717
     23  NE2      -37.6310  -36.4360   -0.1360 N.am  169  GLN169     -0.0878
     24  N        -41.6390  -40.5450    1.5240 N.am  170  ILE170     -0.1980
     25  CA       -41.3750  -41.9480    1.2460 C.3   170  ILE170      0.1595
     26  C        -42.6220  -42.6360    0.7000 C.2   170  ILE170      0.2287
     27  O        -42.5660  -43.3350   -0.3160 O.2   170  ILE170     -0.2864
     28  CB       -40.8920  -42.7080    2.4980 C.3   170  ILE170      0.0276
     29  CG1      -39.5340  -42.1780    2.9570 C.3   170  ILE170      0.0022
     30  CG2      -40.7930  -44.2110    2.1930 C.3   170  ILE170      0.0022
     31  CD1      -39.1080  -42.7150    4.3230 C.3   170  ILE170      0.0001
     32  N        -38.3370  -47.5330    6.7060 N.3   184  LEU184     -0.1245
     33  CA       -37.8480  -46.1660    6.9160 C.3   184  LEU184      0.1561
     34  C        -38.9970  -45.2240    7.2720 C.2   184  LEU184      0.2260
     35  O        -38.8360  -44.3220    8.1080 O.2   184  LEU184     -0.2867
     36  CB       -37.1230  -45.6340    5.6650 C.3   184  LEU184      0.0270
     37  CG       -35.5960  -45.5890    5.5000 C.3   184  LEU184      0.0019
     38  CD1      -34.8170  -46.3650    6.5570 C.3   184  LEU184      0.0001
     39  CD2      -35.1920  -46.0270    4.0870 C.3   184  LEU184      0.0001
     40  N        -39.8880  -45.6250   10.8540 N.3   187  THR187     -0.1203
     41  CA       -38.8770  -44.9350   11.6660 C.3   187  THR187      0.1994
     42  C        -39.1300  -43.4190   11.6920 C.2   187  THR187      0.2617
     43  O        -39.1350  -42.7860   12.7630 O.2   187  THR187     -0.2717
     44  CB       -37.4560  -45.2380   11.1410 C.3   187  THR187      0.1784
     45  OG1      -37.1890  -46.6420   11.2980 O.3   187  THR187     -0.2211
     46  CG2      -36.3970  -44.4400   11.9170 C.3   187  THR187      0.0376
     47  N        -39.3570  -42.8500   10.5100 N.am  188  ALA188     -0.1979
     48  CA       -39.6520  -41.4320   10.3750 C.3   188  ALA188      0.1597
     49  C        -40.9040  -41.0440   11.1710 C.2   188  ALA188      0.2287
     50  O        -40.8730  -40.0570   11.9190 O.2   188  ALA188     -0.2864
     51  CB       -39.8150  -41.0620    8.9050 C.3   188  ALA188      0.0319
     52  N        -28.6340  -41.9990   11.4720 N.3   247  PHE247     -0.1241
     53  CA       -29.0270  -40.8490   10.6540 C.3   247  PHE247      0.1605
     54  C        -27.8330  -40.1350    9.9960 C.2   247  PHE247      0.2264
     55  O        -28.0090  -39.4080    9.0100 O.2   247  PHE247     -0.2867
     56  CB       -29.7800  -39.8250   11.4970 C.3   247  PHE247      0.0534
     57  CG       -31.2340  -40.1110   11.6300 C.ar  247  PHE247     -0.0203
     58  CD1      -31.7260  -40.7530   12.7600 C.ar  247  PHE247     -0.0042
     59  CD2      -32.1160  -39.7520   10.6160 C.ar  247  PHE247     -0.0042
     60  CE1      -33.0920  -41.0240   12.8790 C.ar  247  PHE247     -0.0003
     61  CE2      -33.4780  -40.0210   10.7240 C.ar  247  PHE247     -0.0003
     62  CZ       -33.9660  -40.6550   11.8620 C.ar  247  PHE247     -0.0000
     63  N        -28.0130  -35.3580    5.2040 N.3   252  LEU252     -0.1231
     64  CA       -29.3060  -34.8110    5.6270 C.3   252  LEU252      0.1678
     65  C        -29.1070  -33.4860    6.3670 C.2   252  LEU252      0.2434
     66  O        -28.1700  -33.3480    7.1460 O.2   252  LEU252     -0.2733
     67  CB       -30.0560  -35.7860    6.5380 C.3   252  LEU252      0.0284
     68  CG       -30.4180  -37.1350    5.9090 C.3   252  LEU252      0.0019
     69  CD1      -30.9350  -38.0650    6.9940 C.3   252  LEU252      0.0001
     70  CD2      -31.4530  -36.9380    4.8080 C.3   252  LEU252      0.0001
     71  N        -30.0030  -32.5140    6.1300 N.am  253  PRO253     -0.2729
     72  CA       -29.8730  -31.1770    6.7280 C.3   253  PRO253      0.1401
     73  C        -30.3620  -31.1530    8.1740 C.2   253  PRO253      0.2269
     74  O        -31.3520  -30.4920    8.5140 O.2   253  PRO253     -0.2865
     75  CB       -30.7530  -30.2990    5.8100 C.3   253  PRO253      0.0296
     76  CG       -31.7690  -31.2360    5.2660 C.3   253  PRO253      0.0237
     77  CD       -31.0710  -32.5650    5.1100 C.3   253  PRO253      0.0939
     78  N        -35.1130  -23.7550    6.0060 N.3   400  GLY400     -0.1210
     79  CA       -35.3190  -25.1720    5.7890 C.3   400  GLY400      0.1940
     80  C        -36.5030  -25.3780    4.8610 C.2   400  GLY400      0.2453
     81  O        -36.6580  -24.6710    3.8610 O.2   400  GLY400     -0.2732
     82  N        -37.3720  -26.3360    5.1960 N.am  401  PRO401     -0.2728
     83  CA       -38.5320  -26.5720    4.3320 C.3   401  PRO401      0.1401
     84  C        -39.7080  -25.6280    4.6350 C.2   401  PRO401      0.2269
     85  O        -40.7910  -25.8300    4.0830 O.2   401  PRO401     -0.2865
     86  CB       -38.9150  -28.0130    4.6730 C.3   401  PRO401      0.0296
     87  CG       -38.5580  -28.1350    6.1390 C.3   401  PRO401      0.0237
     88  CD       -37.3240  -27.2620    6.3440 C.3   401  PRO401      0.0939
@<TRIPOS>BOND
     1    18    17    2
     2    27    26    2
     3    23    21   am
     4    20    21    1
     5    20    19    1
     6    17    16    1
     7    17    24   am
     8    26    25    1
     9    21    22    2
    10    16    19    1
    11    16    15    1
    12    25    24    1
    13    25    28    1
    14    30    28    1
    15    28    29    1
    16    29    31    1
    17     5     6    1
    18     5     2    1
    19    81    80    2
    20     4     3    2
    21     6     7    1
    22    85    84    2
    23    39    37    1
    24    11    10    2
    25     2     3    1
    26     2     1    1
    27    83    84    1
    28    83    86    1
    29    83    82    1
    30    86    87    1
    31    70    68    1
    32    80    82   am
    33    80    79    1
    34    77    76    1
    35    77    71    1
    36    10     9    1
    37    82    88    1
    38    63    64    1
    39     1     7    1
    40    76    75    1
    41     9     8    1
    42     9    12    1
    43    37    36    1
    44    37    38    1
    45    64    65    1
    46    64    67    1
    47    36    33    1
    48    79    78    1
    49    75    72    1
    50    13    12    1
    51    68    67    1
    52    68    69    1
    53    71    65   am
    54    71    72    1
    55    87    88    1
    56    14    12    1
    57    65    66    2
    58    32    33    1
    59    72    73    1
    60    33    34    1
    61    34    35    2
    62    73    74    2
    63    51    48    1
    64    55    54    2
    65    54    53    1
    66    48    47    1
    67    48    49    1
    68    47    42   am
    69    59    61   ar
    70    59    57   ar
    71    53    52    1
    72    53    56    1
    73    61    62   ar
    74    40    41    1
    75    44    45    1
    76    44    41    1
    77    44    46    1
    78    49    50    2
    79    56    57    1
    80    57    58   ar
    81    41    42    1
    82    42    43    2
    83    62    60   ar
    84    58    60   ar
