@<TRIPOS>MOLECULE
tmp/3pgsA07.pdb
 85 82 0 0 0
SMALL
GASTEIGER

@<TRIPOS>ATOM
      1  N        -27.4050    2.3270   40.2150 N.3    47  ALA47      -0.1231
      2  CA       -27.7850    0.9300   40.0260 C.3    47  ALA47       0.1694
      3  C        -29.2700    0.8110   39.7170 C.2    47  ALA47       0.2593
      4  O        -30.0920    1.5990   40.1980 O.2    47  ALA47      -0.2718
      5  CB       -27.4330    0.1060   41.2620 C.3    47  ALA47       0.0304
      6  N        -29.6230   -0.1810   38.9180 N.am   48  GLY48      -0.1942
      7  CA       -31.0230   -0.3890   38.6170 C.3    48  GLY48       0.2014
      8  C        -31.1820   -1.5300   37.6520 C.2    48  GLY48       0.2638
      9  O        -30.3140   -2.3880   37.5580 O.2    48  GLY48      -0.2714
     10  N        -32.2890   -1.5360   36.9210 N.am   49  ALA49      -0.1977
     11  CA       -32.5300   -2.6240   35.9880 C.3    49  ALA49       0.1597
     12  C        -33.5590   -2.1840   34.9720 C.2    49  ALA49       0.2287
     13  O        -34.3620   -1.2770   35.2330 O.2    49  ALA49      -0.2864
     14  CB       -33.0340   -3.8560   36.7460 C.3    49  ALA49       0.0319
     15  N        -34.8400   -9.4120   32.4050 N.3    78  TRP78      -0.1241
     16  CA       -34.5470   -8.4070   33.4230 C.3    78  TRP78       0.1605
     17  C        -33.0450   -8.1380   33.3470 C.2    78  TRP78       0.2264
     18  O        -32.2300   -9.0170   33.6300 O.2    78  TRP78      -0.2867
     19  CB       -34.9630   -8.9410   34.7940 C.3    78  TRP78       0.0550
     20  CG       -34.8810   -7.9540   35.9390 C.ar   78  TRP78       0.0003
     21  CD1      -35.8230   -7.0270   36.3060 C.ar   78  TRP78       0.0946
     22  CD2      -33.8270   -7.8560   36.8960 C.ar   78  TRP78       0.0152
     23  NE1      -35.3930   -6.3390   37.4260 N.ar   78  TRP78      -0.2442
     24  CE2      -34.1720   -6.8300   37.8030 C.ar   78  TRP78       0.0810
     25  CE3      -32.6140   -8.5280   37.0660 C.ar   78  TRP78       0.0012
     26  CZ2      -33.3490   -6.4640   38.8660 C.ar   78  TRP78       0.0191
     27  CZ3      -31.7980   -8.1650   38.1230 C.ar   78  TRP78       0.0001
     28  CH2      -32.1670   -7.1380   39.0090 C.ar   78  TRP78       0.0015
     29  N        -29.9630   -6.0200   34.6410 N.3    80  PRO80      -0.2102
     30  CA       -29.5300   -5.0910   35.6910 C.3    80  PRO80       0.1504
     31  C        -28.3240   -4.2890   35.2360 C.2    80  PRO80       0.2576
     32  O        -27.6940   -4.6290   34.2400 O.2    80  PRO80      -0.2718
     33  CB       -29.1380   -6.0200   36.8340 C.3    80  PRO80       0.0282
     34  CG       -28.6460   -7.2690   36.1260 C.3    80  PRO80       0.0208
     35  CD       -29.4310   -7.3820   34.8360 C.3    80  PRO80       0.0893
     36  N        -28.0270   -3.2210   35.9680 N.am   81  ASN81      -0.1961
     37  CA       -26.8450   -2.4230   35.7180 C.3    81  ASN81       0.1819
     38  C        -26.3610   -1.8450   37.0390 C.2    81  ASN81       0.2621
     39  O        -27.1600   -1.5790   37.9630 O.2    81  ASN81      -0.2715
     40  CB       -27.1340   -1.3050   34.7030 C.3    81  ASN81       0.1195
     41  CG       -28.0260   -0.2090   35.2770 C.2    81  ASN81       0.2630
     42  OD1      -27.5530    0.6770   35.9890 O.2    81  ASN81      -0.2716
     43  ND2      -29.3240   -0.2710   34.9750 N.am   81  ASN81      -0.0877
     44  N        -25.0480   -1.6980   37.1490 N.am   82  MET82      -0.1977
     45  CA       -24.4570   -1.0730   38.3170 C.3    82  MET82       0.1605
     46  C        -23.2050   -0.3100   37.9010 C.2    82  MET82       0.2287
     47  O        -22.4400   -0.7730   37.0640 O.2    82  MET82      -0.2864
     48  CB       -24.1260   -2.1160   39.3930 C.3    82  MET82       0.0413
     49  CG       -23.6020   -1.4930   40.6900 C.3    82  MET82       0.0598
     50  SD       -23.4370   -2.7020   42.0280 S.3    82  MET82      -0.1393
     51  CE       -25.1540   -3.0170   42.4360 C.3    82  MET82       0.0692
     52  N        -21.0740   -3.0250   35.9970 N.3    98  ILE98      -0.1245
     53  CA       -21.5860   -4.3150   35.5760 C.3    98  ILE98       0.1561
     54  C        -22.7650   -3.9990   34.6870 C.2    98  ILE98       0.2260
     55  O        -23.7040   -3.3250   35.1250 O.2    98  ILE98      -0.2867
     56  CB       -22.0880   -5.1360   36.7750 C.3    98  ILE98       0.0252
     57  CG1      -20.9660   -5.3170   37.7980 C.3    98  ILE98       0.0019
     58  CG2      -22.6410   -6.4810   36.2990 C.3    98  ILE98       0.0019
     59  CD1      -21.4390   -5.8530   39.1460 C.3    98  ILE98       0.0001
     60  N        -22.5790  -10.9380   30.8830 N.3   126  MET126     -0.1245
     61  CA       -22.3560   -9.9280   31.9020 C.3   126  MET126      0.1570
     62  C        -21.0050   -9.3050   31.6130 C.2   126  MET126      0.2261
     63  O        -19.9880   -9.9980   31.5610 O.2   126  MET126     -0.2867
     64  CB       -22.3510  -10.5690   33.2820 C.3   126  MET126      0.0387
     65  CG       -21.9370   -9.6190   34.4130 C.3   126  MET126      0.0595
     66  SD       -21.8850  -10.4660   36.0070 S.3   126  MET126     -0.1393
     67  CE       -20.4210  -11.4910   35.8260 C.3   126  MET126      0.0692
     68  N        -35.8370    1.3220   36.0620 N.3   415  THR415     -0.1218
     69  CA       -35.6510    2.1860   37.2180 C.3   415  THR415      0.1862
     70  C        -34.1990    2.1250   37.6780 C.2   415  THR415      0.2287
     71  O        -33.6290    1.0380   37.7620 O.2   415  THR415     -0.2866
     72  CB       -36.5600    1.7710   38.3950 C.3   415  THR415      0.1770
     73  OG1      -37.9240    1.8050   37.9700 O.3   415  THR415     -0.2211
     74  CG2      -36.3900    2.7420   39.5530 C.3   415  THR415      0.0375
     75  N        -31.4250    3.9800   40.7320 N.3   417  PHE417     -0.1241
     76  CA       -31.1910    4.9010   41.8330 C.3   417  PHE417      0.1605
     77  C        -29.7630    5.4290   41.7310 C.2   417  PHE417      0.2264
     78  O        -28.8360    4.7050   41.3490 O.2   417  PHE417     -0.2867
     79  CB       -31.4710    4.2360   43.1850 C.3   417  PHE417      0.0534
     80  CG       -32.9400    3.9790   43.4420 C.ar  417  PHE417     -0.0203
     81  CD1      -33.5720    2.8730   42.8940 C.ar  417  PHE417     -0.0042
     82  CD2      -33.6860    4.8490   44.2210 C.ar  417  PHE417     -0.0042
     83  CE1      -34.9240    2.6360   43.1230 C.ar  417  PHE417     -0.0003
     84  CE2      -35.0350    4.6160   44.4600 C.ar  417  PHE417     -0.0003
     85  CZ       -35.6520    3.5100   43.9090 C.ar  417  PHE417     -0.0000
@<TRIPOS>BOND
     1    60    61    1
     2    63    62    2
     3    62    61    1
     4    61    64    1
     5    15    16    1
     6    64    65    1
     7    17    16    1
     8    17    18    2
     9    16    19    1
    10    32    31    2
    11    65    66    1
    12    29    35    1
    13    29    30    1
    14    54    55    2
    15    54    53    1
    16    40    41    1
    17    40    37    1
    18    19    20    1
    19    35    34    1
    20    12    13    2
    21    12    11    1
    22    43    41   am
    23    31    30    1
    24    31    36   am
    25    41    42    2
    26    53    52    1
    27    53    56    1
    28    30    33    1
    29    37    36    1
    30    37    38    1
    31    67    66    1
    32    20    21   ar
    33    20    22   ar
    34    11    14    1
    35    11    10    1
    36    68    69    1
    37    34    33    1
    38    58    56    1
    39    21    23   ar
    40    56    57    1
    41    22    25   ar
    42    22    24   ar
    43    10     8   am
    44    38    44   am
    45    38    39    2
    46    47    46    2
    47    25    27   ar
    48    44    45    1
    49    69    70    1
    50    69    72    1
    51    23    24   ar
    52     9     8    2
    53     8     7    1
    54    70    71    2
    55    57    59    1
    56    24    26   ar
    57    46    45    1
    58    73    72    1
    59    27    28   ar
    60    45    48    1
    61    72    74    1
    62     7     6    1
    63    26    28   ar
    64     6     3   am
    65    48    49    1
    66     3     2    1
    67     3     4    2
    68     2     1    1
    69     2     5    1
    70    49    50    1
    71    75    76    1
    72    78    77    2
    73    77    76    1
    74    76    79    1
    75    50    51    1
    76    81    83   ar
    77    81    80   ar
    78    83    85   ar
    79    79    80    1
    80    80    82   ar
    81    85    84   ar
    82    82    84   ar
