@<TRIPOS>MOLECULE
tmp/3pgsA12.pdb
 187 178 0 0 0
SMALL
GASTEIGER

@<TRIPOS>ATOM
      1  N        -27.5490   -5.3040   23.0940 N.3     5  LEU5       -0.1245
      2  CA       -28.4370   -4.6250   24.0490 C.3     5  LEU5        0.1561
      3  C        -27.8860   -3.2490   24.3820 C.2     5  LEU5        0.2260
      4  O        -26.6840   -3.0870   24.5540 O.2     5  LEU5       -0.2867
      5  CB       -28.5360   -5.4170   25.3470 C.3     5  LEU5        0.0270
      6  CG       -29.0030   -6.8720   25.2930 C.3     5  LEU5        0.0019
      7  CD1      -28.8420   -7.5120   26.6670 C.3     5  LEU5        0.0001
      8  CD2      -30.4500   -6.9620   24.8070 C.3     5  LEU5        0.0001
      9  N        -37.6300   -5.9480   30.1150 N.3    52  ILE52      -0.1245
     10  CA       -37.9850   -5.9530   28.7050 C.3    52  ILE52       0.1561
     11  C        -39.1410   -6.9160   28.4930 C.2    52  ILE52       0.2260
     12  O        -39.0650   -8.0860   28.8780 O.2    52  ILE52      -0.2867
     13  CB       -36.7960   -6.3890   27.8350 C.3    52  ILE52       0.0252
     14  CG1      -35.5350   -5.5980   28.2210 C.3    52  ILE52       0.0019
     15  CG2      -37.1520   -6.2530   26.3510 C.3    52  ILE52       0.0019
     16  CD1      -34.2800   -5.9520   27.3950 C.3    52  ILE52       0.0001
     17  N        -41.0260   -8.2400   25.4690 N.3    54  PRO54      -0.2116
     18  CA       -41.1910   -8.3680   24.0210 C.3    54  PRO54       0.1372
     19  C        -42.5060   -9.0380   23.6500 C.2    54  PRO54       0.2244
     20  O        -43.1000   -9.7850   24.4380 O.2    54  PRO54      -0.2868
     21  CB       -39.9980   -9.2450   23.5940 C.3    54  PRO54       0.0268
     22  CG       -39.2460   -9.5980   24.8600 C.3    54  PRO54       0.0207
     23  CD       -40.1570   -9.2900   26.0200 C.3    54  PRO54       0.0892
     24  N        -43.1080  -10.9290   20.3070 N.3    56  VAL56      -0.1245
     25  CA       -42.5920  -11.3800   19.0150 C.3    56  VAL56       0.1561
     26  C        -43.3520  -12.6330   18.6280 C.2    56  VAL56       0.2260
     27  O        -43.4080  -13.5880   19.4040 O.2    56  VAL56      -0.2867
     28  CB       -41.0780  -11.6700   19.0800 C.3    56  VAL56       0.0252
     29  CG1      -40.5460  -12.1950   17.7110 C.3    56  VAL56       0.0019
     30  CG2      -40.3140  -10.4210   19.5340 C.3    56  VAL56       0.0019
     31  N        -40.3050  -14.6640   22.3860 N.3    74  ALA74      -0.1231
     32  CA       -39.1900  -14.0010   23.0640 C.3    74  ALA74       0.1679
     33  C        -39.5830  -13.7310   24.5090 C.2    74  ALA74       0.2434
     34  O        -40.4390  -12.8870   24.7730 O.2    74  ALA74      -0.2733
     35  CB       -38.8170  -12.6850   22.3470 C.3    74  ALA74       0.0304
     36  N        -38.9960  -14.4840   25.4510 N.am   75  PRO75      -0.2729
     37  CA       -39.3550  -14.3460   26.8670 C.3    75  PRO75       0.1401
     38  C        -39.0360  -12.9450   27.3790 C.2    75  PRO75       0.2269
     39  O        -38.2490  -12.2230   26.7550 O.2    75  PRO75      -0.2865
     40  CB       -38.4280  -15.3570   27.5660 C.3    75  PRO75       0.0296
     41  CG       -38.0930  -16.3600   26.5090 C.3    75  PRO75       0.0237
     42  CD       -38.0980  -15.6240   25.2010 C.3    75  PRO75       0.0939
     43  N        -37.2240  -10.2790   29.9140 N.3    77  ALA77      -0.1231
     44  CA       -35.8530  -10.2680   30.3940 C.3    77  ALA77       0.1694
     45  C        -35.7180   -9.1790   31.4400 C.2    77  ALA77       0.2592
     46  O        -36.4120   -8.1600   31.3860 O.2    77  ALA77      -0.2718
     47  CB       -34.8810  -10.0230   29.2440 C.3    77  ALA77       0.0304
     48  N        -34.8400   -9.4120   32.4050 N.am   78  TRP78      -0.1962
     49  CA       -34.5470   -8.4070   33.4230 C.3    78  TRP78       0.1771
     50  C        -33.0450   -8.1380   33.3470 C.2    78  TRP78       0.2619
     51  O        -32.2300   -9.0170   33.6300 O.2    78  TRP78      -0.2715
     52  CB       -34.9630   -8.9410   34.7940 C.3    78  TRP78       0.0590
     53  CG       -34.8810   -7.9540   35.9390 C.ar   78  TRP78       0.0006
     54  CD1      -35.8230   -7.0270   36.3060 C.ar   78  TRP78       0.0946
     55  CD2      -33.8270   -7.8560   36.8960 C.ar   78  TRP78       0.0152
     56  NE1      -35.3930   -6.3390   37.4260 N.ar   78  TRP78      -0.2442
     57  CE2      -34.1720   -6.8300   37.8030 C.ar   78  TRP78       0.0810
     58  CE3      -32.6140   -8.5280   37.0660 C.ar   78  TRP78       0.0012
     59  CZ2      -33.3490   -6.4640   38.8660 C.ar   78  TRP78       0.0191
     60  CZ3      -31.7980   -8.1650   38.1230 C.ar   78  TRP78       0.0001
     61  CH2      -32.1670   -7.1380   39.0090 C.ar   78  TRP78       0.0015
     62  N        -32.6830   -6.9360   32.9150 N.am   79  VAL79      -0.1964
     63  CA       -31.2870   -6.5990   32.6700 C.3    79  VAL79       0.1712
     64  C        -30.8110   -5.5830   33.7050 C.2    79  VAL79       0.2458
     65  O        -31.2020   -4.4170   33.6600 O.2    79  VAL79      -0.2730
     66  CB       -31.0910   -6.0030   31.2730 C.3    79  VAL79       0.0289
     67  CG1      -29.6040   -5.6960   31.0310 C.3    79  VAL79       0.0023
     68  CG2      -31.6380   -6.9620   30.1870 C.3    79  VAL79       0.0023
     69  N        -29.9630   -6.0200   34.6410 N.am   80  PRO80      -0.2727
     70  CA       -29.5300   -5.0910   35.6910 C.3    80  PRO80       0.1402
     71  C        -28.3240   -4.2890   35.2360 C.2    80  PRO80       0.2269
     72  O        -27.6940   -4.6290   34.2400 O.2    80  PRO80      -0.2865
     73  CB       -29.1380   -6.0200   36.8340 C.3    80  PRO80       0.0296
     74  CG       -28.6460   -7.2690   36.1260 C.3    80  PRO80       0.0237
     75  CD       -29.4310   -7.3820   34.8360 C.3    80  PRO80       0.0939
     76  N        -24.8410   -5.4000   30.6530 N.3   100  SER100     -0.1217
     77  CA       -24.9890   -6.4200   29.6160 C.3   100  SER100      0.1889
     78  C        -25.0630   -5.7310   28.2580 C.2   100  SER100      0.2288
     79  O        -25.9540   -4.9160   28.0270 O.2   100  SER100     -0.2866
     80  CB       -26.2650   -7.2320   29.8390 C.3   100  SER100      0.2089
     81  OG       -26.1670   -8.0360   30.9960 O.3   100  SER100     -0.2183
     82  N        -27.2530  -10.1430   24.4300 N.3   103  GLY103     -0.1210
     83  CA       -28.1180  -11.1390   25.0260 C.3   103  GLY103      0.1956
     84  C        -29.2860  -11.4220   24.1020 C.2   103  GLY103      0.2612
     85  O        -29.7570  -10.5410   23.3940 O.2   103  GLY103     -0.2717
     86  N        -29.7480  -12.6620   24.1000 N.am  104  LEU104     -0.1965
     87  CA       -30.8580  -13.0400   23.2320 C.3   104  LEU104      0.1728
     88  C        -31.6070  -14.1970   23.8700 C.2   104  LEU104      0.2616
     89  O        -31.0110  -15.0370   24.5450 O.2   104  LEU104     -0.2715
     90  CB       -30.3270  -13.4820   21.8640 C.3   104  LEU104      0.0311
     91  CG       -31.4220  -13.9430   20.8980 C.3   104  LEU104      0.0022
     92  CD1      -31.6770  -12.8600   19.8620 C.3   104  LEU104      0.0001
     93  CD2      -31.0480  -15.2530   20.2320 C.3   104  LEU104      0.0001
     94  N        -32.9110  -14.2550   23.6650 N.am  105  ALA105     -0.1977
     95  CA       -33.6400  -15.4500   24.0550 C.3   105  ALA105      0.1597
     96  C        -34.8390  -15.6560   23.1380 C.2   105  ALA105      0.2287
     97  O        -35.7170  -14.7950   23.0430 O.2   105  ALA105     -0.2864
     98  CB       -34.0870  -15.3560   25.4920 C.3   105  ALA105      0.0319
     99  N        -28.6990  -16.6210   24.9480 N.3   123  LEU123     -0.1231
    100  CA       -27.3740  -16.0860   25.2620 C.3   123  LEU123      0.1693
    101  C        -27.5670  -15.0230   26.3440 C.2   123  LEU123      0.2592
    102  O        -28.3710  -14.1060   26.1760 O.2   123  LEU123     -0.2718
    103  CB       -26.7300  -15.4340   24.0360 C.3   123  LEU123      0.0284
    104  CG       -25.4290  -14.6590   24.3480 C.3   123  LEU123      0.0019
    105  CD1      -24.2860  -15.6090   24.7540 C.3   123  LEU123      0.0001
    106  CD2      -25.0010  -13.7500   23.1970 C.3   123  LEU123      0.0001
    107  N        -26.8500  -15.1620   27.4510 N.am  124  GLU124     -0.1966
    108  CA       -26.8160  -14.1100   28.4700 C.3   124  GLU124      0.1733
    109  C        -25.3600  -13.7530   28.6950 C.2   124  GLU124      0.2617
    110  O        -24.5050  -14.6420   28.7490 O.2   124  GLU124     -0.2715
    111  CB       -27.4060  -14.5930   29.7970 C.3   124  GLU124      0.0429
    112  CG       -28.6220  -15.4730   29.6760 C.3   124  GLU124      0.1163
    113  CD       -28.9520  -16.1690   30.9860 C.2   124  GLU124      0.3649
    114  OE1      -28.5000  -15.6810   32.0490 O.co2 124  GLU124     -0.2457
    115  OE2      -29.6520  -17.2060   30.9500 O.co2 124  GLU124     -0.2457
    116  N        -25.0690  -12.4610   28.8170 N.am  125  THR125     -0.1937
    117  CA       -23.6990  -12.0300   29.0700 C.3   125  THR125      0.2028
    118  C        -23.6900  -10.9860   30.1640 C.2   125  THR125      0.2642
    119  O        -24.6670  -10.2560   30.3550 O.2   125  THR125     -0.2714
    120  CB       -22.9880  -11.4680   27.8040 C.3   125  THR125      0.1808
    121  OG1      -23.6020  -10.2400   27.3900 O.3   125  THR125     -0.2208
    122  CG2      -23.0510  -12.4790   26.6300 C.3   125  THR125      0.0379
    123  N        -22.5790  -10.9380   30.8830 N.am  126  MET126     -0.1976
    124  CA       -22.3560   -9.9280   31.9020 C.3   126  MET126      0.1605
    125  C        -21.0050   -9.3050   31.6130 C.2   126  MET126      0.2287
    126  O        -19.9880   -9.9980   31.5610 O.2   126  MET126     -0.2864
    127  CB       -22.3510  -10.5690   33.2820 C.3   126  MET126      0.0413
    128  CG       -21.9370   -9.6190   34.4130 C.3   126  MET126      0.0598
    129  SD       -21.8850  -10.4660   36.0070 S.3   126  MET126     -0.1393
    130  CE       -20.4210  -11.4910   35.8260 C.3   126  MET126      0.0692
    131  N        -35.1390  -13.6940   15.5100 N.3   362  PRO362     -0.2116
    132  CA       -36.1710  -12.9890   14.7520 C.3   362  PRO362      0.1372
    133  C        -35.9170  -11.4960   14.8280 C.2   362  PRO362      0.2244
    134  O        -36.4290  -10.8270   15.7180 O.2   362  PRO362     -0.2868
    135  CB       -37.4560  -13.3640   15.4930 C.3   362  PRO362      0.0268
    136  CG       -37.0110  -13.5690   16.9180 C.3   362  PRO362      0.0207
    137  CD       -35.6230  -14.1570   16.8270 C.3   362  PRO362      0.0892
    138  N        -35.3550   -7.5230   12.9310 N.3   364  GLN364     -0.1245
    139  CA       -35.9520   -6.6570   11.9190 C.3   364  GLN364      0.1566
    140  C        -35.5410   -5.2310   12.2630 C.2   364  GLN364      0.2260
    141  O        -35.1090   -4.9800   13.3840 O.2   364  GLN364     -0.2867
    142  CB       -37.4830   -6.7890   11.9560 C.3   364  GLN364      0.0367
    143  CG       -38.1170   -6.4240   13.3120 C.3   364  GLN364      0.0905
    144  CD       -37.8860   -7.4690   14.4130 C.2   364  GLN364      0.2608
    145  OE1      -38.5150   -8.5310   14.4200 O.2   364  GLN364     -0.2717
    146  NE2      -36.9940   -7.1570   15.3560 N.am  364  GLN364     -0.0878
    147  N        -35.8400   -1.6810   13.6650 N.3   366  ARG366     -0.1245
    148  CA       -36.6490   -1.2660   14.8010 C.3   366  ARG366      0.1563
    149  C        -36.6760    0.2480   14.9720 C.2   366  ARG366      0.2260
    150  O        -35.6710    0.9300   14.7580 O.2   366  ARG366     -0.2867
    151  CB       -36.1040   -1.8990   16.0800 C.3   366  ARG366      0.0307
    152  CG       -36.1410   -3.4140   16.0830 C.3   366  ARG366      0.0489
    153  CD       -35.1630   -3.9720   17.1030 C.3   366  ARG366      0.2205
    154  NE       -35.2040   -5.4300   17.1700 N.pl3 366  ARG366     -0.0865
    155  CZ       -34.4580   -6.1600   17.9960 C.cat 366  ARG366      0.5346
    156  NH1      -33.6080   -5.5670   18.8280 N.pl3 366  ARG366      0.1354
    157  NH2      -34.5620   -7.4850   17.9890 N.pl3 366  ARG366      0.1354
    158  N        -40.6850   -0.2180   21.3890 N.3   390  MET390     -0.1245
    159  CA       -39.9640   -0.5710   20.1790 C.3   390  MET390      0.1570
    160  C        -40.9370   -1.2520   19.2390 C.2   390  MET390      0.2261
    161  O        -41.7440   -2.0850   19.6610 O.2   390  MET390     -0.2867
    162  CB       -38.8060   -1.5360   20.4860 C.3   390  MET390      0.0387
    163  CG       -37.7720   -1.0160   21.4800 C.3   390  MET390      0.0595
    164  SD       -36.3340   -2.1130   21.6340 S.3   390  MET390     -0.1393
    165  CE       -37.1240   -3.7150   21.7370 C.3   390  MET390      0.0692
    166  N        -41.0030   -3.1090   15.2860 N.3   392  GLY392     -0.1225
    167  CA       -40.2760   -3.5410   14.1100 C.3   392  GLY392      0.1811
    168  C        -41.2370   -3.8420   12.9860 C.2   392  GLY392      0.2280
    169  O        -42.4370   -3.9820   13.2060 O.2   392  GLY392     -0.2866
    170  N        -42.8120   -8.1250   15.4340 N.3   408  GLY408     -0.1210
    171  CA       -42.2290   -7.8950   16.7380 C.3   408  GLY408      0.1956
    172  C        -42.3990   -6.4800   17.2380 C.2   408  GLY408      0.2612
    173  O        -42.3620   -5.5250   16.4650 O.2   408  GLY408     -0.2717
    174  N        -42.6070   -6.3620   18.5430 N.am  409  LYS409     -0.1965
    175  CA       -42.5700   -5.0740   19.2280 C.3   409  LYS409      0.1728
    176  C        -42.1880   -5.3680   20.6680 C.2   409  LYS409      0.2616
    177  O        -42.1040   -6.5320   21.0600 O.2   409  LYS409     -0.2715
    178  CB       -43.9200   -4.3760   19.1490 C.3   409  LYS409      0.0311
    179  CG       -45.0660   -5.1070   19.8180 C.3   409  LYS409      0.0038
    180  CD       -46.3930   -4.4530   19.4250 C.3   409  LYS409      0.0206
    181  CE       -47.5900   -5.2480   19.9240 C.3   409  LYS409      0.1093
    182  NZ       -48.8740   -4.7010   19.4000 N.3   409  LYS409     -0.1314
    183  N        -41.9460   -4.3280   21.4570 N.am  410  ALA410     -0.1977
    184  CA       -41.5770   -4.5390   22.8460 C.3   410  ALA410      0.1597
    185  C        -41.8460   -3.2990   23.6740 C.2   410  ALA410      0.2287
    186  O        -41.8430   -2.1860   23.1490 O.2   410  ALA410     -0.2864
    187  CB       -40.1160   -4.9220   22.9520 C.3   410  ALA410      0.0319
@<TRIPOS>BOND
     1   139   142    1
     2   139   140    1
     3   139   138    1
     4   142   143    1
     5   140   141    2
     6   168   169    2
     7   168   167    1
     8   143   144    1
     9   147   148    1
    10   167   166    1
    11   144   145    2
    12   144   146   am
    13   132   133    1
    14   132   135    1
    15   132   131    1
    16   150   149    2
    17   148   149    1
    18   148   151    1
    19   133   134    2
    20   170   171    1
    21   135   136    1
    22   131   137    1
    23   151   152    1
    24   152   153    1
    25   173   172    2
    26   171   172    1
    27   137   136    1
    28   153   154    1
    29   154   155    2
    30   172   174   am
    31    29    28    1
    32   157   155    1
    33   155   156    1
    34   174   175    1
    35    26    25    1
    36    26    27    2
    37    25    28    1
    38    25    24    1
    39    28    30    1
    40   178   175    1
    41   178   179    1
    42   175   176    1
    43   160   161    2
    44   160   159    1
    45   182   181    1
    46   180   179    1
    47   180   181    1
    48    92    91    1
    49   159   162    1
    50   159   158    1
    51    93    91    1
    52   162   163    1
    53   176   177    2
    54   176   183   am
    55    91    90    1
    56   183   184    1
    57   163   164    1
    58   164   165    1
    59    90    87    1
    60    35    32    1
    61    31    32    1
    62   184   187    1
    63   184   185    1
    64    97    96    2
    65    32    33    1
    66     1     2    1
    67    96    95    1
    68   186   185    2
    69   106   104    1
    70    87    88    1
    71    87    86    1
    72    85    84    2
    73    21    18    1
    74    21    22    1
    75    19    18    1
    76    19    20    2
    77    94    88   am
    78    94    95    1
    79    88    89    2
    80    18    17    1
    81   103   104    1
    82   103   100    1
    83     2     3    1
    84     2     5    1
    85    95    98    1
    86    86    84   am
    87    84    83    1
    88   104   105    1
    89     3     4    2
    90    82    83    1
    91    33    34    2
    92    33    36   am
    93     8     6    1
    94    22    23    1
    95    99   100    1
    96    42    36    1
    97    42    41    1
    98   100   101    1
    99     6     5    1
   100     6     7    1
   101    36    37    1
   102    17    23    1
   103   102   101    2
   104   101   107   am
   105    15    13    1
   106    41    40    1
   107   122   120    1
   108    39    38    2
   109    37    38    1
   110    37    40    1
   111   121   120    1
   112    16    14    1
   113   107   108    1
   114   120   117    1
   115    13    14    1
   116    13    10    1
   117    79    78    2
   118    78    77    1
   119   108   109    1
   120   108   111    1
   121    11    10    1
   122    11    12    2
   123   109   110    2
   124   109   116   am
   125    10     9    1
   126   116   117    1
   127   117   118    1
   128    47    44    1
   129    77    80    1
   130    77    76    1
   131   112   111    1
   132   112   113    1
   133    80    81    1
   134    43    44    1
   135   118   119    2
   136   118   123   am
   137    68    66    1
   138    44    45    1
   139   123   124    1
   140   115   113   ar
   141   113   114   ar
   142    67    66    1
   143    66    63    1
   144    46    45    2
   145    45    48   am
   146   126   125    2
   147   125   124    1
   148   124   127    1
   149    48    49    1
   150    63    62    1
   151    63    64    1
   152    62    50   am
   153   127   128    1
   154    50    49    1
   155    50    51    2
   156    49    52    1
   157    65    64    2
   158    64    69   am
   159    72    71    2
   160   128   129    1
   161    69    75    1
   162    69    70    1
   163    52    53    1
   164    75    74    1
   165    71    70    1
   166    70    73    1
   167   130   129    1
   168    53    54   ar
   169    53    55   ar
   170    74    73    1
   171    54    56   ar
   172    55    58   ar
   173    55    57   ar
   174    58    60   ar
   175    56    57   ar
   176    57    59   ar
   177    60    61   ar
   178    59    61   ar
