@<TRIPOS>MOLECULE
tmp/3pgsA10.pdb
 95 96 0 0 0
SMALL
GASTEIGER

@<TRIPOS>ATOM
      1  N         -9.5810   10.4610   40.9240 N.3    88  ILE88      -0.1245
      2  CA        -8.3560   10.1330   41.6440 C.3    88  ILE88       0.1561
      3  C         -7.6600   11.4390   41.9690 C.2    88  ILE88       0.2260
      4  O         -7.2160   11.6730   43.0930 O.2    88  ILE88      -0.2867
      5  CB        -7.4230    9.2880   40.7650 C.3    88  ILE88       0.0252
      6  CG1       -7.9930    7.8760   40.6080 C.3    88  ILE88       0.0019
      7  CG2       -6.0170    9.2550   41.3470 C.3    88  ILE88       0.0019
      8  CD1       -7.5470    7.1880   39.3220 C.3    88  ILE88       0.0001
      9  N         -7.0370   12.7380   36.7370 N.3    92  PHE92      -0.1227
     10  CA        -7.3350   11.3190   36.5080 C.3    92  PHE92       0.1736
     11  C         -8.5470   10.8650   37.3130 C.2    92  PHE92       0.2596
     12  O         -8.8130   11.3850   38.3920 O.2    92  PHE92      -0.2718
     13  CB        -6.1580   10.4490   36.9600 C.3    92  PHE92       0.0547
     14  CG        -4.9140   10.5980   36.1320 C.ar   92  PHE92      -0.0202
     15  CD1       -4.7200    9.8130   35.0050 C.ar   92  PHE92      -0.0042
     16  CD2       -3.9140   11.4830   36.5140 C.ar   92  PHE92      -0.0042
     17  CE1       -3.5570    9.9300   34.2590 C.ar   92  PHE92      -0.0003
     18  CE2       -2.7630   11.6070   35.7680 C.ar   92  PHE92      -0.0003
     19  CZ        -2.5860   10.8290   34.6360 C.ar   92  PHE92      -0.0000
     20  N         -9.2550    9.8630   36.8000 N.am   93  GLY93      -0.1942
     21  CA       -10.3230    9.2320   37.5510 C.3    93  GLY93       0.2014
     22  C        -10.4710    7.7900   37.1140 C.2    93  GLY93       0.2638
     23  O         -9.8040    7.3510   36.1820 O.2    93  GLY93      -0.2714
     24  N        -11.3250    7.0380   37.8000 N.am   94  TRP94      -0.1973
     25  CA       -11.5920    5.6700   37.3900 C.3    94  TRP94       0.1640
     26  C        -13.0680    5.3690   37.5070 C.2    94  TRP94       0.2290
     27  O        -13.8240    6.1340   38.1040 O.2    94  TRP94      -0.2864
     28  CB       -10.7970    4.6920   38.2550 C.3    94  TRP94       0.0576
     29  CG       -11.2370    4.6350   39.6950 C.ar   94  TRP94       0.0006
     30  CD1      -10.8920    5.5030   40.7030 C.ar   94  TRP94       0.0946
     31  CD2      -12.0750    3.6410   40.2920 C.ar   94  TRP94       0.0152
     32  NE1      -11.4790    5.1070   41.8820 N.ar   94  TRP94      -0.2442
     33  CE2      -12.2110    3.9710   41.6560 C.ar   94  TRP94       0.0810
     34  CE3      -12.7380    2.5090   39.8000 C.ar   94  TRP94       0.0012
     35  CZ2      -12.9750    3.2050   42.5360 C.ar   94  TRP94       0.0191
     36  CZ3      -13.4980    1.7500   40.6790 C.ar   94  TRP94       0.0001
     37  CH2      -13.6090    2.1010   42.0290 C.ar   94  TRP94       0.0015
     38  N        -13.5720   -2.2060   33.9870 N.3   130  LEU130     -0.1231
     39  CA       -12.7720   -1.2980   34.8060 C.3   130  LEU130      0.1693
     40  C        -12.1540   -0.2510   33.8790 C.2   130  LEU130      0.2593
     41  O        -11.4770   -0.6010   32.9230 O.2   130  LEU130     -0.2718
     42  CB       -11.6780   -2.0630   35.5600 C.3   130  LEU130      0.0284
     43  CG       -10.7070   -1.2490   36.4260 C.3   130  LEU130      0.0019
     44  CD1      -11.4440   -0.4700   37.5170 C.3   130  LEU130      0.0001
     45  CD2       -9.6610   -2.1610   37.0540 C.3   130  LEU130      0.0001
     46  N        -12.3720    1.0280   34.1710 N.am  131  SER131     -0.1938
     47  CA       -11.9340    2.0980   33.2730 C.3   131  SER131      0.2055
     48  C        -11.1200    3.1550   33.9960 C.2   131  SER131      0.2644
     49  O        -11.2610    3.3420   35.1970 O.2   131  SER131     -0.2714
     50  CB       -13.1470    2.7810   32.6200 C.3   131  SER131      0.2130
     51  OG       -13.8180    1.9170   31.7130 O.3   131  SER131     -0.2179
     52  N        -10.2730    3.8500   33.2440 N.am  132  GLY132     -0.1939
     53  CA        -9.5600    5.0040   33.7510 C.3   132  GLY132      0.2014
     54  C         -9.6190    6.1190   32.7210 C.2   132  GLY132      0.2639
     55  O         -9.8670    5.8720   31.5430 O.2   132  GLY132     -0.2714
     56  N         -9.3900    7.3510   33.1530 N.am  133  ALA133     -0.1963
     57  CA        -9.4070    8.4660   32.2160 C.3   133  ALA133      0.1728
     58  C         -8.4470    9.5570   32.6350 C.2   133  ALA133      0.2616
     59  O         -8.0600    9.6480   33.7980 O.2   133  ALA133     -0.2715
     60  CB       -10.8200    9.0330   32.0780 C.3   133  ALA133      0.0334
     61  N         -8.0910   10.3950   31.6690 N.am  134  TYR134     -0.1974
     62  CA        -7.1500   11.4800   31.8700 C.3   134  TYR134      0.1639
     63  C         -7.7220   12.7090   31.1820 C.2   134  TYR134      0.2290
     64  O         -8.1650   12.6290   30.0310 O.2   134  TYR134     -0.2864
     65  CB        -5.8030   11.1150   31.2480 C.3   134  TYR134      0.0560
     66  CG        -4.8180   12.2590   31.1680 C.ar  134  TYR134     -0.0198
     67  CD1       -4.4640   12.8150   29.9430 C.ar  134  TYR134     -0.0009
     68  CD2       -4.2370   12.7800   32.3150 C.ar  134  TYR134     -0.0009
     69  CE1       -3.5500   13.8610   29.8690 C.ar  134  TYR134      0.0417
     70  CE2       -3.3290   13.8260   32.2520 C.ar  134  TYR134      0.0417
     71  CZ        -2.9900   14.3630   31.0300 C.ar  134  TYR134      0.1957
     72  OH        -2.0860   15.4030   30.9800 O.3   134  TYR134     -0.2866
     73  N         -9.5400   11.7100   27.6390 N.3   142  PHE142     -0.1227
     74  CA        -9.3630   10.4100   27.0160 C.3   142  PHE142      0.1736
     75  C         -9.5710    9.3190   28.0500 C.2   142  PHE142      0.2596
     76  O         -9.1200    9.4470   29.1930 O.2   142  PHE142     -0.2718
     77  CB        -7.9520   10.3060   26.4300 C.3   142  PHE142      0.0547
     78  CG        -7.5820   11.4700   25.5420 C.ar  142  PHE142     -0.0202
     79  CD1       -7.0310   12.6260   26.0790 C.ar  142  PHE142     -0.0042
     80  CD2       -7.8010   11.4120   24.1750 C.ar  142  PHE142     -0.0042
     81  CE1       -6.7010   13.6950   25.2630 C.ar  142  PHE142     -0.0003
     82  CE2       -7.4770   12.4800   23.3570 C.ar  142  PHE142     -0.0003
     83  CZ        -6.9230   13.6170   23.8990 C.ar  142  PHE142     -0.0000
     84  N        -10.2300    8.2360   27.6450 N.am  143  GLY143     -0.1942
     85  CA       -10.4650    7.1270   28.5500 C.3   143  GLY143      0.2014
     86  C        -10.1760    5.7750   27.9270 C.2   143  GLY143      0.2638
     87  O        -10.2260    5.6220   26.7060 O.2   143  GLY143     -0.2714
     88  N         -9.8920    4.7910   28.7800 N.am  144  LEU144     -0.1977
     89  CA        -9.5790    3.4360   28.3400 C.3   144  LEU144      0.1596
     90  C        -10.1830    2.4750   29.3530 C.2   144  LEU144      0.2287
     91  O        -10.1690    2.7460   30.5490 O.2   144  LEU144     -0.2864
     92  CB        -8.0570    3.2410   28.3100 C.3   144  LEU144      0.0297
     93  CG        -7.3600    2.6980   27.0650 C.3   144  LEU144      0.0022
     94  CD1       -5.8580    2.5860   27.3310 C.3   144  LEU144      0.0001
     95  CD2       -7.9320    1.3580   26.6390 C.3   144  LEU144      0.0001
@<TRIPOS>BOND
     1    82    83   ar
     2    82    80   ar
     3    83    81   ar
     4    80    78   ar
     5    81    79   ar
     6    78    79   ar
     7    78    77    1
     8    77    74    1
     9    95    93    1
    10    87    86    2
    11    74    73    1
    12    74    75    1
    13    93    94    1
    14    93    92    1
    15    84    75   am
    16    84    85    1
    17    86    85    1
    18    86    88   am
    19    75    76    2
    20    92    89    1
    21    89    88    1
    22    89    90    1
    23    90    91    2
    24    69    67   ar
    25    69    71   ar
    26    67    66   ar
    27    64    63    2
    28    72    71    1
    29    71    70   ar
    30    66    65    1
    31    66    68   ar
    32    63    62    1
    33    65    62    1
    34    55    54    2
    35    61    62    1
    36    61    58   am
    37    51    50    1
    38    60    57    1
    39    57    58    1
    40    57    56    1
    41    70    68   ar
    42    50    47    1
    43    58    59    2
    44    54    56   am
    45    54    53    1
    46    41    40    2
    47    52    53    1
    48    52    48   am
    49    47    48    1
    50    47    46    1
    51    40    46   am
    52    40    39    1
    53    38    39    1
    54    48    49    2
    55    17    19   ar
    56    17    15   ar
    57    19    18   ar
    58    39    42    1
    59    15    14   ar
    60    42    43    1
    61    18    16   ar
    62    14    16   ar
    63    14    13    1
    64    23    22    2
    65    43    45    1
    66    43    44    1
    67    10     9    1
    68    10    13    1
    69    10    11    1
    70    20    11   am
    71    20    21    1
    72    22    21    1
    73    22    24   am
    74    11    12    2
    75    25    26    1
    76    25    24    1
    77    25    28    1
    78    26    27    2
    79    28    29    1
    80     8     6    1
    81    29    31   ar
    82    29    30   ar
    83    34    31   ar
    84    34    36   ar
    85    31    33   ar
    86     6     5    1
    87    36    37   ar
    88    30    32   ar
    89     5     7    1
    90     5     2    1
    91     1     2    1
    92     2     3    1
    93    33    32   ar
    94    33    35   ar
    95     3     4    2
    96    37    35   ar
