@<TRIPOS>MOLECULE
tmp/3pgsB02.pdb
 89 85 0 0 0
SMALL
GASTEIGER

@<TRIPOS>ATOM
      1  N        -43.0390    9.0480  -39.7740 N.3    45  PHE45      -0.1241
      2  CA       -42.5780    7.6660  -39.6960 C.3    45  PHE45       0.1605
      3  C        -41.1840    7.5910  -39.0740 C.2    45  PHE45       0.2264
      4  O        -40.3520    8.4750  -39.2680 O.2    45  PHE45      -0.2867
      5  CB       -42.5630    7.0810  -41.1120 C.3    45  PHE45       0.0534
      6  CG       -41.9830    5.6930  -41.2080 C.ar   45  PHE45      -0.0203
      7  CD1      -42.7620    4.5810  -40.9320 C.ar   45  PHE45      -0.0042
      8  CD2      -40.6720    5.5030  -41.6090 C.ar   45  PHE45      -0.0042
      9  CE1      -42.2360    3.3040  -41.0370 C.ar   45  PHE45      -0.0003
     10  CE2      -40.1390    4.2270  -41.7140 C.ar   45  PHE45      -0.0003
     11  CZ       -40.9230    3.1320  -41.4340 C.ar   45  PHE45      -0.0000
     12  N        -40.3930    0.2580  -35.1610 N.3    82  MET82      -0.1245
     13  CA       -41.0260    0.9590  -36.2790 C.3    82  MET82       0.1570
     14  C        -42.2390    1.7200  -35.7650 C.2    82  MET82       0.2261
     15  O        -42.9630    1.2280  -34.9050 O.2    82  MET82      -0.2867
     16  CB       -41.4330   -0.0210  -37.3840 C.3    82  MET82       0.0387
     17  CG       -42.0010    0.6680  -38.6260 C.3    82  MET82       0.0595
     18  SD       -42.1390   -0.4420  -40.0550 S.3    82  MET82      -0.1393
     19  CE       -40.4220   -0.8920  -40.3020 C.3    82  MET82       0.0692
     20  N        -45.4400    4.8070  -36.7300 N.3    84  PHE84      -0.1241
     21  CA       -46.1450    5.6950  -37.6440 C.3    84  PHE84       0.1605
     22  C        -47.1750    6.5000  -36.8630 C.2    84  PHE84       0.2264
     23  O        -47.8290    5.9780  -35.9590 O.2    84  PHE84      -0.2867
     24  CB       -46.8400    4.9040  -38.7480 C.3    84  PHE84       0.0534
     25  CG       -47.6020    5.7760  -39.7190 C.ar   84  PHE84      -0.0203
     26  CD1      -46.9310    6.5040  -40.6890 C.ar   84  PHE84      -0.0042
     27  CD2      -48.9850    5.8830  -39.6410 C.ar   84  PHE84      -0.0042
     28  CE1      -47.6300    7.3180  -41.5840 C.ar   84  PHE84      -0.0003
     29  CE2      -49.6930    6.6970  -40.5250 C.ar   84  PHE84      -0.0003
     30  CZ       -49.0120    7.4130  -41.5000 C.ar   84  PHE84      -0.0000
     31  N        -49.4540    3.7270  -35.0140 N.3    96  ALA96      -0.1231
     32  CA       -49.1960    2.3000  -34.8570 C.3    96  ALA96       0.1694
     33  C        -47.6950    2.1070  -34.7480 C.2    96  ALA96       0.2593
     34  O        -46.9190    2.8750  -35.3160 O.2    96  ALA96      -0.2718
     35  CB       -49.7420    1.5130  -36.0470 C.3    96  ALA96       0.0304
     36  N        -47.2770    1.0770  -34.0270 N.am   97  SER97      -0.1938
     37  CA       -45.8560    0.8290  -33.8930 C.3    97  SER97       0.2055
     38  C        -45.5770   -0.6470  -33.6610 C.2    97  SER97       0.2642
     39  O        -46.4650   -1.4080  -33.2660 O.2    97  SER97      -0.2714
     40  CB       -45.2710    1.6450  -32.7320 C.3    97  SER97       0.2130
     41  OG       -45.8470    1.2520  -31.4850 O.3    97  SER97      -0.2179
     42  N        -44.3380   -1.0270  -33.9500 N.am   98  ILE98      -0.1977
     43  CA       -43.7980   -2.3360  -33.6110 C.3    98  ILE98       0.1596
     44  C        -42.6020   -2.0850  -32.7240 C.2    98  ILE98       0.2287
     45  O        -41.6360   -1.4200  -33.1400 O.2    98  ILE98      -0.2864
     46  CB       -43.3190   -3.0900  -34.8720 C.3    98  ILE98       0.0276
     47  CG1      -44.4860   -3.2930  -35.8480 C.3    98  ILE98       0.0022
     48  CG2      -42.6850   -4.4240  -34.4770 C.3    98  ILE98       0.0022
     49  CD1      -44.0630   -3.8260  -37.2210 C.3    98  ILE98       0.0001
     50  N        -47.2830   -5.1570  -30.9550 N.3   128  LEU128     -0.1231
     51  CA       -47.9650   -4.4480  -32.0450 C.3   128  LEU128      0.1693
     52  C        -48.9760   -3.5080  -31.4080 C.2   128  LEU128      0.2592
     53  O        -49.9210   -3.9490  -30.7430 O.2   128  LEU128     -0.2718
     54  CB       -48.6950   -5.4250  -32.9800 C.3   128  LEU128      0.0284
     55  CG       -47.8410   -6.5230  -33.6270 C.3   128  LEU128      0.0019
     56  CD1      -48.6540   -7.3320  -34.6290 C.3   128  LEU128      0.0001
     57  CD2      -46.6010   -5.9380  -34.2870 C.3   128  LEU128      0.0001
     58  N        -48.7700   -2.2110  -31.5850 N.am  129  ASN129     -0.1960
     59  CA       -49.6520   -1.2360  -30.9640 C.3   129  ASN129      0.1819
     60  C        -50.4500   -0.4560  -32.0020 C.2   129  ASN129      0.2621
     61  O        -49.9250   -0.0790  -33.0570 O.2   129  ASN129     -0.2715
     62  CB       -48.8610   -0.2570  -30.0790 C.3   129  ASN129      0.1195
     63  CG       -49.7380    0.8670  -29.5290 C.2   129  ASN129      0.2630
     64  OD1      -50.2380    0.7860  -28.4030 O.2   129  ASN129     -0.2716
     65  ND2      -49.9560    1.9040  -30.3400 N.am  129  ASN129     -0.0877
     66  N        -51.7260   -0.2390  -31.6980 N.am  130  LEU130     -0.1977
     67  CA       -52.5760    0.6580  -32.4750 C.3   130  LEU130      0.1596
     68  C        -53.1730    1.6790  -31.5100 C.2   130  LEU130      0.2287
     69  O        -53.8390    1.2970  -30.5550 O.2   130  LEU130     -0.2864
     70  CB       -53.6950   -0.1230  -33.1660 C.3   130  LEU130      0.0297
     71  CG       -54.6860    0.7290  -33.9640 C.3   130  LEU130      0.0022
     72  CD1      -53.9660    1.5010  -35.0600 C.3   130  LEU130      0.0001
     73  CD2      -55.7680   -0.1510  -34.5700 C.3   130  LEU130      0.0001
     74  N        -54.2570   -0.1770  -28.0760 N.3   146  PHE146     -0.1241
     75  CA       -54.4640   -1.6130  -27.9630 C.3   146  PHE146      0.1605
     76  C        -53.1840   -2.2970  -28.3930 C.2   146  PHE146      0.2264
     77  O        -52.5450   -1.8660  -29.3540 O.2   146  PHE146     -0.2867
     78  CB       -55.6220   -2.0430  -28.8660 C.3   146  PHE146      0.0534
     79  CG       -55.7230   -3.5290  -29.0490 C.ar  146  PHE146     -0.0203
     80  CD1      -56.2990   -4.3240  -28.0660 C.ar  146  PHE146     -0.0042
     81  CD2      -55.2400   -4.1340  -30.2040 C.ar  146  PHE146     -0.0042
     82  CE1      -56.3990   -5.6920  -28.2340 C.ar  146  PHE146     -0.0003
     83  CE2      -55.3390   -5.5010  -30.3790 C.ar  146  PHE146     -0.0003
     84  CZ       -55.9200   -6.2800  -29.3870 C.ar  146  PHE146     -0.0000
     85  N        -51.1710   -5.9870  -29.2510 N.3   148  ALA148     -0.1245
     86  CA       -51.0980   -7.4160  -29.5250 C.3   148  ALA148      0.1562
     87  C        -49.6480   -7.8230  -29.3690 C.2   148  ALA148      0.2260
     88  O        -48.7640   -7.2820  -30.0380 O.2   148  ALA148     -0.2867
     89  CB       -51.5890   -7.7160  -30.9260 C.3   148  ALA148      0.0290
@<TRIPOS>BOND
     1    10     8   ar
     2    10    11   ar
     3     8     6   ar
     4    28    30   ar
     5    28    26   ar
     6    30    29   ar
     7    11     9   ar
     8     6     5    1
     9     6     7   ar
    10     5     2    1
    11     9     7   ar
    12    26    25   ar
    13    29    27   ar
    14    19    18    1
    15    18    17    1
    16     1     2    1
    17    25    27   ar
    18    25    24    1
    19     2     3    1
    20     4     3    2
    21    24    21    1
    22    17    16    1
    23    21    22    1
    24    21    20    1
    25    16    13    1
    26    49    47    1
    27    22    23    2
    28    13    14    1
    29    13    12    1
    30    35    32    1
    31    47    46    1
    32    14    15    2
    33    34    33    2
    34    72    71    1
    35    31    32    1
    36    46    48    1
    37    46    43    1
    38    32    33    1
    39    33    36   am
    40    56    55    1
    41    73    71    1
    42    57    55    1
    43    36    37    1
    44    71    70    1
    45    42    38   am
    46    42    43    1
    47    37    38    1
    48    37    40    1
    49    38    39    2
    50    55    54    1
    51    43    44    1
    52    70    67    1
    53    45    44    2
    54    61    60    2
    55    54    51    1
    56    40    41    1
    57    67    66    1
    58    67    68    1
    59    51    52    1
    60    51    50    1
    61    60    66   am
    62    60    59    1
    63    58    52   am
    64    58    59    1
    65    68    69    2
    66    52    53    2
    67    59    62    1
    68    89    86    1
    69    83    81   ar
    70    83    84   ar
    71    65    63   am
    72    81    79   ar
    73    62    63    1
    74    88    87    2
    75    63    64    2
    76    86    87    1
    77    86    85    1
    78    84    82   ar
    79    77    76    2
    80    79    78    1
    81    79    80   ar
    82    78    75    1
    83    76    75    1
    84    82    80   ar
    85    74    75    1
