@<TRIPOS>MOLECULE
tmp/3pgtB01.pdb
 87 84 0 0 0
SMALL
GASTEIGER

@<TRIPOS>ATOM
      1  N          6.1180   18.7320   24.5160 N.3    22  ALA22      -0.1245
      2  CA         6.0250   20.1850   24.5570 C.3    22  ALA22       0.1562
      3  C          5.3600   20.7430   23.3030 C.2    22  ALA22       0.2260
      4  O          4.4460   21.5550   23.3840 O.2    22  ALA22      -0.2867
      5  CB         7.3970   20.8180   24.6900 C.3    22  ALA22       0.0290
      6  N          1.3460   18.7870   25.3740 N.3    26  GLN26      -0.1231
      7  CA         1.1020   17.7890   26.4070 C.3    26  GLN26       0.1698
      8  C          1.8000   18.1800   27.7040 C.2    26  GLN26       0.2593
      9  O          2.8650   18.7940   27.7080 O.2    26  GLN26      -0.2718
     10  CB         1.5650   16.3910   25.9860 C.3    26  GLN26       0.0381
     11  CG         0.8610   15.8390   24.7620 C.3    26  GLN26       0.0905
     12  CD        -0.6240   15.6170   24.9920 C.2    26  GLN26       0.2608
     13  OE1       -1.0380   15.0590   26.0060 O.2    26  GLN26      -0.2717
     14  NE2       -1.4570   16.0390   24.0530 N.am   26  GLN26      -0.0878
     15  N          1.1670   17.8050   28.8140 N.am   27  SER27      -0.1938
     16  CA         1.7900   18.0720   30.1060 C.3    27  SER27       0.2055
     17  C          2.4320   16.8000   30.6230 C.2    27  SER27       0.2643
     18  O          1.9400   15.6940   30.4070 O.2    27  SER27      -0.2714
     19  CB         0.7590   18.6190   31.0910 C.3    27  SER27       0.2130
     20  OG        -0.5360   18.6400   30.5120 O.3    27  SER27      -0.2179
     21  N          3.5630   16.9410   31.3090 N.am   28  TRP28      -0.1959
     22  CA         4.1780   15.7460   31.8740 C.3    28  TRP28       0.1771
     23  C          5.0060   16.1290   33.1000 C.2    28  TRP28       0.2620
     24  O          5.2530   17.3070   33.3060 O.2    28  TRP28      -0.2715
     25  CB         5.0570   15.0020   30.8810 C.3    28  TRP28       0.0590
     26  CG         6.4040   15.5830   30.5820 C.ar   28  TRP28       0.0006
     27  CD1        7.5960   15.1920   31.1170 C.ar   28  TRP28       0.0946
     28  CD2        6.7160   16.6560   29.6840 C.ar   28  TRP28       0.0152
     29  NE1        8.6250   15.9530   30.6080 N.ar   28  TRP28      -0.2442
     30  CE2        8.1070   16.8590   29.7220 C.ar   28  TRP28       0.0810
     31  CE3        5.9540   17.4730   28.8370 C.ar   28  TRP28       0.0012
     32  CZ2        8.7660   17.8300   28.9660 C.ar   28  TRP28       0.0191
     33  CZ3        6.6100   18.4300   28.0920 C.ar   28  TRP28       0.0001
     34  CH2        8.0020   18.6120   28.1520 C.ar   28  TRP28       0.0015
     35  N          5.3870   15.1030   33.8430 N.am   29  LYS29      -0.1963
     36  CA         6.2020   15.2210   35.0410 C.3    29  LYS29       0.1728
     37  C          7.5840   14.6100   34.8240 C.2    29  LYS29       0.2616
     38  O          7.7170   13.5790   34.1540 O.2    29  LYS29      -0.2715
     39  CB         5.4670   14.5400   36.1960 C.3    29  LYS29       0.0311
     40  CG         6.3460   13.7100   37.1150 C.3    29  LYS29       0.0038
     41  CD         6.2090   14.1750   38.5590 C.3    29  LYS29       0.0206
     42  CE         6.9840   15.4710   38.7870 C.3    29  LYS29       0.1093
     43  NZ         8.4480   15.2510   38.6100 N.3    29  LYS29      -0.1314
     44  N          8.6100   15.2370   35.3900 N.am   30  GLU30      -0.1977
     45  CA         9.9590   14.6960   35.3070 C.3    30  GLU30       0.1602
     46  C         10.4220   14.0900   36.6260 C.2    30  GLU30       0.2287
     47  O         10.6870   14.7800   37.6080 O.2    30  GLU30      -0.2864
     48  CB        10.9770   15.7700   34.9120 C.3    30  GLU30       0.0415
     49  CG        10.8000   16.3710   33.5320 C.3    30  GLU30       0.1163
     50  CD        11.2780   15.4760   32.4060 C.2    30  GLU30       0.3649
     51  OE1       11.6840   14.3180   32.6490 O.co2  30  GLU30      -0.2457
     52  OE2       11.2410   15.9510   31.2490 O.co2  30  GLU30      -0.2457
     53  N          5.3430   26.3510   20.3000 N.3   188  LYS188     -0.1245
     54  CA         5.5190   25.5840   21.5290 C.3   188  LYS188      0.1561
     55  C          6.9060   24.9560   21.5850 C.2   188  LYS188      0.2260
     56  O          7.5210   24.8950   22.6520 O.2   188  LYS188     -0.2867
     57  CB         4.4160   24.5270   21.6530 C.3   188  LYS188      0.0271
     58  CG         3.0280   25.1500   21.8100 C.3   188  LYS188      0.0035
     59  CD         1.9780   24.1110   22.1650 C.3   188  LYS188      0.0206
     60  CE         0.6030   24.7360   22.3660 C.3   188  LYS188      0.1093
     61  NZ         0.6890   26.1090   22.9380 N.3   188  LYS188     -0.1314
     62  N         10.0280   25.7810   24.1210 N.3   192  PHE192     -0.1241
     63  CA        10.6490   24.7300   24.9200 C.3   192  PHE192      0.1605
     64  C         12.1580   24.7340   24.7220 C.2   192  PHE192      0.2264
     65  O         12.9560   24.6540   25.6610 O.2   192  PHE192     -0.2867
     66  CB        10.0440   23.3770   24.5430 C.3   192  PHE192      0.0534
     67  CG        10.7620   22.1840   25.1550 C.ar  192  PHE192     -0.0203
     68  CD1       10.5580   21.8510   26.4870 C.ar  192  PHE192     -0.0042
     69  CD2       11.6310   21.4070   24.4070 C.ar  192  PHE192     -0.0042
     70  CE1       11.2130   20.7800   27.0650 C.ar  192  PHE192     -0.0003
     71  CE2       12.2940   20.3330   24.9810 C.ar  192  PHE192     -0.0003
     72  CZ        12.0860   20.0130   26.3140 C.ar  192  PHE192     -0.0000
     73  N         13.7820   27.3190   26.6800 N.3   195  SER195     -0.1217
     74  CA        13.6330   27.1950   28.1280 C.3   195  SER195      0.1889
     75  C         14.8610   26.6040   28.8130 C.2   195  SER195      0.2288
     76  O         15.6250   25.8460   28.2070 O.2   195  SER195     -0.2866
     77  CB        12.4050   26.3330   28.4570 C.3   195  SER195      0.2089
     78  OG        12.7130   24.9610   28.2690 O.3   195  SER195     -0.2183
     79  N         14.9940   24.3300   31.1230 N.3   197  GLU197     -0.1245
     80  CA        14.9310   22.8860   31.3340 C.3   197  GLU197      0.1567
     81  C         15.4540   22.1200   30.1200 C.2   197  GLU197      0.2260
     82  O         15.7020   20.9240   30.2400 O.2   197  GLU197     -0.2867
     83  CB        13.5190   22.4230   31.6620 C.3   197  GLU197      0.0388
     84  CG        12.6340   22.1280   30.4610 C.3   197  GLU197      0.1160
     85  CD        11.1960   21.9040   30.9090 C.2   197  GLU197      0.3649
     86  OE1       10.5580   22.9010   31.3150 O.co2 197  GLU197     -0.2457
     87  OE2       10.7330   20.7450   30.8640 O.co2 197  GLU197     -0.2457
@<TRIPOS>BOND
     1    53    54    1
     2    54    55    1
     3    54    57    1
     4    55    56    2
     5    57    58    1
     6    58    59    1
     7    59    60    1
     8    60    61    1
     9     3     4    2
    10     3     2    1
    11    14    12   am
    12    62    63    1
    13    69    71   ar
    14    69    67   ar
    15     1     2    1
    16    66    63    1
    17    66    67    1
    18     2     5    1
    19    64    63    1
    20    64    65    2
    21    11    12    1
    22    11    10    1
    23    71    72   ar
    24    12    13    2
    25    67    68   ar
    26     6     7    1
    27    10     7    1
    28    72    70   ar
    29     7     8    1
    30    68    70   ar
    31    73    74    1
    32     8     9    2
    33     8    15   am
    34    33    34   ar
    35    33    31   ar
    36    74    77    1
    37    74    75    1
    38    34    32   ar
    39    76    75    2
    40    78    77    1
    41    15    16    1
    42    31    28   ar
    43    32    30   ar
    44    28    30   ar
    45    28    26   ar
    46    30    29   ar
    47    16    17    1
    48    16    19    1
    49    81    82    2
    50    81    80    1
    51    18    17    2
    52    84    85    1
    53    84    83    1
    54    20    19    1
    55    26    25    1
    56    26    27   ar
    57    29    27   ar
    58    17    21   am
    59    87    85   ar
    60    25    22    1
    61    85    86   ar
    62    79    80    1
    63    52    50   ar
    64    21    22    1
    65    80    83    1
    66    22    23    1
    67    50    51   ar
    68    50    49    1
    69    23    24    2
    70    23    35   am
    71    49    48    1
    72    35    36    1
    73    38    37    2
    74    37    36    1
    75    37    44   am
    76    48    45    1
    77    36    39    1
    78    45    44    1
    79    45    46    1
    80    39    40    1
    81    46    47    2
    82    40    41    1
    83    41    42    1
    84    43    42    1
