@<TRIPOS>MOLECULE
tmp/3pgtB02.pdb
 87 86 0 0 0
SMALL
GASTEIGER

@<TRIPOS>ATOM
      1  N         17.6370   10.1080   33.9190 N.3     8  PHE8       -0.1228
      2  CA        18.8240   10.7890   34.3920 C.3     8  PHE8        0.1721
      3  C         18.8010   12.2370   33.9280 C.2     8  PHE8        0.2437
      4  O         18.1750   12.5570   32.9220 O.2     8  PHE8       -0.2733
      5  CB        20.1050   10.1180   33.8790 C.3     8  PHE8        0.0547
      6  CG        20.1400    8.6420   34.2410 C.ar    8  PHE8       -0.0202
      7  CD1       20.1540    8.2640   35.5710 C.ar    8  PHE8       -0.0042
      8  CD2       20.1440    7.6770   33.2470 C.ar    8  PHE8       -0.0042
      9  CE1       20.1600    6.9270   35.9060 C.ar    8  PHE8       -0.0003
     10  CE2       20.1670    6.3370   33.5830 C.ar    8  PHE8       -0.0003
     11  CZ        20.1810    5.9610   34.9150 C.ar    8  PHE8       -0.0000
     12  N         19.4850   13.0960   34.6640 N.am    9  PRO9       -0.2729
     13  CA        19.4680   14.5230   34.3310 C.3     9  PRO9        0.1401
     14  C         20.3290   14.8390   33.1180 C.2     9  PRO9        0.2269
     15  O         21.3180   15.5500   33.2570 O.2     9  PRO9       -0.2865
     16  CB        20.0800   15.1620   35.5750 C.3     9  PRO9        0.0296
     17  CG        21.0100   14.1100   36.0940 C.3     9  PRO9        0.0237
     18  CD        20.3100   12.7980   35.8380 C.3     9  PRO9        0.0939
     19  N         16.3860   11.0830   38.1750 N.3    33  VAL33      -0.1231
     20  CA        17.1010   10.0750   38.9400 C.3    33  VAL33       0.1692
     21  C         18.5830   10.4280   39.0620 C.2    33  VAL33       0.2593
     22  O         19.2440   10.7070   38.0610 O.2    33  VAL33      -0.2718
     23  CB        16.9910    8.6740   38.3140 C.3    33  VAL33       0.0266
     24  CG1       17.6900    7.6560   39.2040 C.3    33  VAL33       0.0020
     25  CG2       15.5370    8.2920   38.0810 C.3    33  VAL33       0.0020
     26  N         19.0460   10.4020   40.3040 N.am   34  THR34      -0.1939
     27  CA        20.4310   10.6270   40.6580 C.3    34  THR34       0.2028
     28  C         21.2020    9.3090   40.6280 C.2    34  THR34       0.2642
     29  O         20.6030    8.2350   40.5800 O.2    34  THR34      -0.2714
     30  CB        20.5880   11.2010   42.0780 C.3    34  THR34       0.1808
     31  OG1       20.3100   10.1550   43.0270 O.3    34  THR34      -0.2208
     32  CG2       19.5650   12.2880   42.3350 C.3    34  THR34       0.0379
     33  N         22.5190    9.4690   40.6800 N.am   35  VAL35      -0.1977
     34  CA        23.4190    8.3340   40.7870 C.3    35  VAL35       0.1596
     35  C         22.9630    7.4630   41.9600 C.2    35  VAL35       0.2287
     36  O         22.5690    6.3200   41.7830 O.2    35  VAL35      -0.2864
     37  CB        24.8750    8.7560   41.0350 C.3    35  VAL35       0.0276
     38  CG1       25.8240    7.6080   40.7250 C.3    35  VAL35       0.0022
     39  CG2       25.2170    9.9910   40.2120 C.3    35  VAL35       0.0022
     40  N         19.8770    5.6970   41.6370 N.3    38  TRP38      -0.1227
     41  CA        20.1840    4.5940   40.7320 C.3    38  TRP38       0.1737
     42  C         21.0150    3.5260   41.4360 C.2    38  TRP38       0.2595
     43  O         20.8830    2.3290   41.1870 O.2    38  TRP38      -0.2718
     44  CB        20.9370    5.1110   39.5000 C.3    38  TRP38       0.0564
     45  CG        20.9880    4.0850   38.4090 C.ar   38  TRP38       0.0003
     46  CD1       22.0930    3.5210   37.8490 C.ar   38  TRP38       0.0946
     47  CD2       19.8500    3.5080   37.7560 C.ar   38  TRP38       0.0152
     48  NE1       21.7170    2.6210   36.8800 N.ar   38  TRP38      -0.2442
     49  CE2       20.3460    2.5950   36.8030 C.ar   38  TRP38       0.0810
     50  CE3       18.4650    3.6730   37.8800 C.ar   38  TRP38       0.0012
     51  CZ2       19.4850    1.8590   35.9890 C.ar   38  TRP38       0.0191
     52  CZ3       17.6110    2.9400   37.0710 C.ar   38  TRP38       0.0001
     53  CH2       18.1410    2.0430   36.1370 C.ar   38  TRP38       0.0015
     54  N         21.8780    3.9850   42.3300 N.am   39  GLN39      -0.1979
     55  CA        22.8140    3.1580   43.0740 C.3    39  GLN39       0.1601
     56  C         22.1320    2.2580   44.0890 C.2    39  GLN39       0.2287
     57  O         22.5920    1.1250   44.2910 O.2    39  GLN39      -0.2864
     58  CB        23.8580    4.0560   43.7560 C.3    39  GLN39       0.0394
     59  CG        25.2760    3.8200   43.2610 C.3    39  GLN39       0.0908
     60  CD        25.5280    4.3230   41.8550 C.2    39  GLN39       0.2608
     61  OE1       26.6680    4.3120   41.3800 O.2    39  GLN39      -0.2717
     62  NE2       24.4780    4.7690   41.1710 N.am   39  GLN39      -0.0878
     63  N         17.3240   -0.4050   32.6570 N.3    51  GLN51      -0.1245
     64  CA        17.7130    0.9130   32.1790 C.3    51  GLN51       0.1566
     65  C         16.5640    1.9190   32.1540 C.2    51  GLN51       0.2260
     66  O         15.3880    1.5630   32.2530 O.2    51  GLN51      -0.2867
     67  CB        18.2820    0.7720   30.7570 C.3    51  GLN51       0.0367
     68  CG        19.4980   -0.1300   30.6570 C.3    51  GLN51       0.0905
     69  CD        20.2700    0.0720   29.3690 C.2    51  GLN51       0.2608
     70  OE1       19.7190    0.0060   28.2720 O.2    51  GLN51      -0.2717
     71  NE2       21.5700    0.3310   29.4600 N.am   51  GLN51      -0.0878
     72  N         30.6230    8.4200   24.3690 N.3   108  TYR108     -0.1241
     73  CA        30.9450    7.7850   25.6470 C.3   108  TYR108      0.1605
     74  C         32.1430    6.8540   25.5710 C.2   108  TYR108      0.2264
     75  O         32.7660    6.5720   26.5970 O.2   108  TYR108     -0.2867
     76  CB        29.7320    7.0000   26.1600 C.3   108  TYR108      0.0534
     77  CG        28.6010    7.8490   26.6890 C.ar  108  TYR108     -0.0201
     78  CD1       28.6460    8.4170   27.9580 C.ar  108  TYR108     -0.0009
     79  CD2       27.4770    8.0810   25.9150 C.ar  108  TYR108     -0.0009
     80  CE1       27.6140    9.1920   28.4450 C.ar  108  TYR108      0.0417
     81  CE2       26.4410    8.8570   26.3940 C.ar  108  TYR108      0.0417
     82  CZ        26.5060    9.4110   27.6520 C.ar  108  TYR108      0.1957
     83  OH        25.4570   10.1820   28.1080 O.3   108  TYR108     -0.2866
     84  N         26.0210   12.5860   29.4230 N.3   205  GLY205     -0.1225
     85  CA        26.3030   12.5540   30.8440 C.3   205  GLY205      0.1811
     86  C         27.7490   12.7520   31.2310 C.2   205  GLY205      0.2280
     87  O         27.9930   13.1060   32.3890 O.2   205  GLY205     -0.2866
@<TRIPOS>BOND
     1    72    73    1
     2    74    73    1
     3    74    75    2
     4    73    76    1
     5    79    81   ar
     6    79    77   ar
     7    76    77    1
     8    81    82   ar
     9    77    78   ar
    10    82    83    1
    11    82    80   ar
    12    78    80   ar
    13    70    69    2
    14    69    71   am
    15    69    68    1
    16    84    85    1
    17    68    67    1
    18    67    64    1
    19    85    86    1
    20    86    87    2
    21    65    64    1
    22    65    66    2
    23    64    63    1
    24     4     3    2
    25    14    15    2
    26    14    13    1
    27     8    10   ar
    28     8     6   ar
    29    10    11   ar
    30     5     6    1
    31     5     2    1
    32     1     2    1
    33     3     2    1
    34     3    12   am
    35     6     7   ar
    36    13    12    1
    37    13    16    1
    38    12    18    1
    39    11     9   ar
    40     7     9   ar
    41    16    17    1
    42    18    17    1
    43    51    53   ar
    44    51    49   ar
    45    53    52   ar
    46    49    48   ar
    47    49    47   ar
    48    48    46   ar
    49    52    50   ar
    50    47    50   ar
    51    47    45   ar
    52    46    45   ar
    53    22    21    2
    54    25    23    1
    55    19    20    1
    56    23    20    1
    57    23    24    1
    58    45    44    1
    59    20    21    1
    60    21    26   am
    61    44    41    1
    62    39    37    1
    63    26    27    1
    64    29    28    2
    65    28    27    1
    66    28    33   am
    67    27    30    1
    68    33    34    1
    69    38    37    1
    70    41    42    1
    71    41    40    1
    72    34    37    1
    73    34    35    1
    74    62    60   am
    75    43    42    2
    76    61    60    2
    77    42    54   am
    78    36    35    2
    79    60    59    1
    80    30    32    1
    81    30    31    1
    82    54    55    1
    83    55    58    1
    84    55    56    1
    85    59    58    1
    86    56    57    2
