@<TRIPOS>MOLECULE
tmp/3pgtB00.pdb
 170 166 0 0 0
SMALL
GASTEIGER

@<TRIPOS>ATOM
      1  N         14.0900    9.4290   34.2450 N.3     7  TYR7       -0.1227
      2  CA        15.3830    9.4810   33.6030 C.3     7  TYR7        0.1736
      3  C         16.4230   10.2330   34.4280 C.2     7  TYR7        0.2595
      4  O         16.1010   10.8950   35.4200 O.2     7  TYR7       -0.2718
      5  CB        15.2640   10.2410   32.2780 C.3     7  TYR7        0.0548
      6  CG        16.3170    9.9920   31.2270 C.ar    7  TYR7       -0.0200
      7  CD1       16.6570    8.7040   30.8200 C.ar    7  TYR7       -0.0009
      8  CD2       16.9720   11.0570   30.6150 C.ar    7  TYR7       -0.0009
      9  CE1       17.6210    8.4920   29.8480 C.ar    7  TYR7        0.0417
     10  CE2       17.9320   10.8560   29.6450 C.ar    7  TYR7        0.0417
     11  CZ        18.2540    9.5690   29.2600 C.ar    7  TYR7        0.1957
     12  OH        19.2160    9.3530   28.2960 O.3     7  TYR7       -0.2866
     13  N         17.6370   10.1080   33.9190 N.am    8  PHE8       -0.1963
     14  CA        18.8240   10.7890   34.3920 C.3     8  PHE8        0.1756
     15  C         18.8010   12.2370   33.9280 C.2     8  PHE8        0.2461
     16  O         18.1750   12.5570   32.9220 O.2     8  PHE8       -0.2730
     17  CB        20.1050   10.1180   33.8790 C.3     8  PHE8        0.0574
     18  CG        20.1400    8.6420   34.2410 C.ar    8  PHE8       -0.0200
     19  CD1       20.1540    8.2640   35.5710 C.ar    8  PHE8       -0.0042
     20  CD2       20.1440    7.6770   33.2470 C.ar    8  PHE8       -0.0042
     21  CE1       20.1600    6.9270   35.9060 C.ar    8  PHE8       -0.0003
     22  CE2       20.1670    6.3370   33.5830 C.ar    8  PHE8       -0.0003
     23  CZ        20.1810    5.9610   34.9150 C.ar    8  PHE8       -0.0000
     24  N         19.4850   13.0960   34.6640 N.am    9  PRO9       -0.2716
     25  CA        19.4680   14.5230   34.3310 C.3     9  PRO9        0.1536
     26  C         20.3290   14.8390   33.1180 C.2     9  PRO9        0.2598
     27  O         21.3180   15.5500   33.2570 O.2     9  PRO9       -0.2715
     28  CB        20.0800   15.1620   35.5750 C.3     9  PRO9        0.0310
     29  CG        21.0100   14.1100   36.0940 C.3     9  PRO9        0.0237
     30  CD        20.3100   12.7980   35.8380 C.3     9  PRO9        0.0939
     31  N         19.9680   14.3260   31.9510 N.am   10  VAL10      -0.1978
     32  CA        20.5520   14.7160   30.6710 C.3    10  VAL10       0.1596
     33  C         19.4390   14.7280   29.6190 C.2    10  VAL10       0.2287
     34  O         18.3310   14.2470   29.8740 O.2    10  VAL10      -0.2864
     35  CB        21.7030   13.8180   30.1860 C.3    10  VAL10       0.0276
     36  CG1       22.8070   13.7030   31.2360 C.3    10  VAL10       0.0022
     37  CG2       21.1860   12.4360   29.8080 C.3    10  VAL10       0.0022
     38  N         18.4430   10.3610   25.3090 N.3    13  ARG13      -0.1245
     39  CA        17.4020    9.6550   24.5780 C.3    13  ARG13       0.1563
     40  C         16.0180   10.1100   25.0260 C.2    13  ARG13       0.2260
     41  O         15.0410    9.4710   24.6590 O.2    13  ARG13      -0.2867
     42  CB        17.5530    8.1540   24.7810 C.3    13  ARG13       0.0307
     43  CG        18.6210    7.4840   23.9240 C.3    13  ARG13       0.0489
     44  CD        18.6010    5.9790   24.1800 C.3    13  ARG13       0.2205
     45  NE        19.5800    5.2510   23.3750 N.pl3  13  ARG13      -0.0865
     46  CZ        19.3500    4.8990   22.1080 C.cat  13  ARG13       0.5346
     47  NH1       18.1910    5.2250   21.5490 N.pl3  13  ARG13       0.1354
     48  NH2       20.2630    4.2400   21.4170 N.pl3  13  ARG13       0.1354
     49  N         22.5190    9.4690   40.6800 N.3    35  VAL35      -0.1245
     50  CA        23.4190    8.3340   40.7870 C.3    35  VAL35       0.1561
     51  C         22.9630    7.4630   41.9600 C.2    35  VAL35       0.2260
     52  O         22.5690    6.3200   41.7830 O.2    35  VAL35      -0.2867
     53  CB        24.8750    8.7560   41.0350 C.3    35  VAL35       0.0252
     54  CG1       25.8240    7.6080   40.7250 C.3    35  VAL35       0.0019
     55  CG2       25.2170    9.9910   40.2120 C.3    35  VAL35       0.0019
     56  N         19.8770    5.6970   41.6370 N.3    38  TRP38      -0.1241
     57  CA        20.1840    4.5940   40.7320 C.3    38  TRP38       0.1605
     58  C         21.0150    3.5260   41.4360 C.2    38  TRP38       0.2264
     59  O         20.8830    2.3290   41.1870 O.2    38  TRP38      -0.2867
     60  CB        20.9370    5.1110   39.5000 C.3    38  TRP38       0.0550
     61  CG        20.9880    4.0850   38.4090 C.ar   38  TRP38       0.0003
     62  CD1       22.0930    3.5210   37.8490 C.ar   38  TRP38       0.0946
     63  CD2       19.8500    3.5080   37.7560 C.ar   38  TRP38       0.0152
     64  NE1       21.7170    2.6210   36.8800 N.ar   38  TRP38      -0.2442
     65  CE2       20.3460    2.5950   36.8030 C.ar   38  TRP38       0.0810
     66  CE3       18.4650    3.6730   37.8800 C.ar   38  TRP38       0.0012
     67  CZ2       19.4850    1.8590   35.9890 C.ar   38  TRP38       0.0191
     68  CZ3       17.6110    2.9400   37.0710 C.ar   38  TRP38       0.0001
     69  CH2       18.1410    2.0430   36.1370 C.ar   38  TRP38       0.0015
     70  N         16.4380    0.2530   39.2650 N.3    44  LYS44      -0.1245
     71  CA        17.0680   -0.5070   38.2020 C.3    44  LYS44       0.1561
     72  C         16.5490   -1.9400   38.1580 C.2    44  LYS44       0.2260
     73  O         16.1480   -2.4180   37.0940 O.2    44  LYS44      -0.2867
     74  CB        18.5900   -0.5230   38.3690 C.3    44  LYS44       0.0271
     75  CG        19.3070   -1.4150   37.3620 C.3    44  LYS44       0.0035
     76  CD        20.8150   -1.2740   37.5090 C.3    44  LYS44       0.0206
     77  CE        21.5660   -2.2180   36.5890 C.3    44  LYS44       0.1093
     78  NZ        21.4640   -1.8100   35.1580 N.3    44  LYS44      -0.1314
     79  N         16.6830   -3.0680   32.9150 N.3    50  GLY50      -0.1210
     80  CA        17.6200   -2.4960   33.8510 C.3    50  GLY50       0.1956
     81  C         18.0720   -1.0920   33.5150 C.2    50  GLY50       0.2612
     82  O         19.0890   -0.6120   34.0260 O.2    50  GLY50      -0.2717
     83  N         17.3240   -0.4050   32.6570 N.am   51  GLN51      -0.1965
     84  CA        17.7130    0.9130   32.1790 C.3    51  GLN51       0.1733
     85  C         16.5640    1.9190   32.1540 C.2    51  GLN51       0.2616
     86  O         15.3880    1.5630   32.2530 O.2    51  GLN51      -0.2715
     87  CB        18.2820    0.7720   30.7570 C.3    51  GLN51       0.0408
     88  CG        19.4980   -0.1300   30.6570 C.3    51  GLN51       0.0908
     89  CD        20.2700    0.0720   29.3690 C.2    51  GLN51       0.2608
     90  OE1       19.7190    0.0060   28.2720 O.2    51  GLN51      -0.2717
     91  NE2       21.5700    0.3310   29.4600 N.am   51  GLN51      -0.0878
     92  N         16.9390    3.1780   32.0010 N.am   52  LEU52      -0.1964
     93  CA        16.1150    4.3420   31.7810 C.3    52  LEU52       0.1713
     94  C         16.3330    4.8580   30.3620 C.2    52  LEU52       0.2458
     95  O         17.4130    4.6560   29.8070 O.2    52  LEU52      -0.2730
     96  CB        16.4260    5.4860   32.7470 C.3    52  LEU52       0.0310
     97  CG        16.2440    5.1710   34.2310 C.3    52  LEU52       0.0022
     98  CD1       16.9010    6.2600   35.0620 C.3    52  LEU52       0.0001
     99  CD2       14.7730    5.0200   34.5750 C.3    52  LEU52       0.0001
    100  N         15.3690    5.5140   29.7470 N.am   53  PRO53      -0.2727
    101  CA        14.1570    6.0020   30.3810 C.3    53  PRO53       0.1402
    102  C         13.0800    4.9520   30.6610 C.2    53  PRO53       0.2269
    103  O         12.9630    3.9480   29.9680 O.2    53  PRO53      -0.2865
    104  CB        13.6040    6.9730   29.3140 C.3    53  PRO53       0.0296
    105  CG        14.0420    6.3560   28.0200 C.3    53  PRO53       0.0237
    106  CD        15.4240    5.8320   28.2980 C.3    53  PRO53       0.0939
    107  N         12.1550    1.7620   26.8030 N.3    64  GLN64      -0.1231
    108  CA        12.7370    1.9040   25.4720 C.3    64  GLN64       0.1698
    109  C         12.3180    3.2330   24.8560 C.2    64  GLN64       0.2593
    110  O         11.1400    3.4900   24.6200 O.2    64  GLN64      -0.2718
    111  CB        12.3640    0.7300   24.5670 C.3    64  GLN64       0.0381
    112  CG        12.9270   -0.5990   25.0750 C.3    64  GLN64       0.0905
    113  CD        14.3910   -0.7770   24.7180 C.2    64  GLN64       0.2608
    114  OE1       15.0080    0.1360   24.1630 O.2    64  GLN64      -0.2717
    115  NE2       14.9610   -1.9380   25.0220 N.am   64  GLN64      -0.0878
    116  N         13.3060    4.0960   24.6210 N.am   65  SER65      -0.1938
    117  CA        13.0100    5.4460   24.1390 C.3    65  SER65       0.2055
    118  C         12.1890    5.3940   22.8560 C.2    65  SER65       0.2643
    119  O         11.2780    6.2040   22.6630 O.2    65  SER65      -0.2714
    120  CB        14.3030    6.2370   23.9460 C.3    65  SER65       0.2130
    121  OG        15.1830    5.5880   23.0510 O.3    65  SER65      -0.2179
    122  N         12.4800    4.4270   21.9910 N.am   66  ASN66      -0.1971
    123  CA        11.7820    4.3510   20.7010 C.3    66  ASN66       0.1688
    124  C         10.3970    3.7420   20.8700 C.2    66  ASN66       0.2292
    125  O          9.4740    4.0230   20.1130 O.2    66  ASN66      -0.2864
    126  CB        12.6240    3.5850   19.6800 C.3    66  ASN66       0.1181
    127  CG        13.8570    4.3310   19.2130 C.2    66  ASN66       0.2629
    128  OD1       13.7940    5.4700   18.7390 O.2    66  ASN66      -0.2716
    129  ND2       15.0180    3.7000   19.3320 N.am   66  ASN66      -0.0877
    130  N         17.8320    6.1360   14.5960 N.3    97  GLU97      -0.1245
    131  CA        18.3980    5.3450   15.6940 C.3    97  GLU97       0.1567
    132  C         19.7630    4.7790   15.3390 C.2    97  GLU97       0.2260
    133  O         20.6440    4.6430   16.1960 O.2    97  GLU97      -0.2867
    134  CB        17.4330    4.2240   16.0780 C.3    97  GLU97       0.0388
    135  CG        18.0120    3.1540   16.9980 C.3    97  GLU97       0.1160
    136  CD        18.1460    3.6350   18.4290 C.2    97  GLU97       0.3649
    137  OE1       17.6430    4.7360   18.7390 O.co2  97  GLU97      -0.2457
    138  OE2       18.7630    2.9130   19.2330 O.co2  97  GLU97      -0.2457
    139  N         26.3440    7.8880   20.0400 N.3   104  ILE104     -0.1245
    140  CA        26.4570    7.5130   21.4500 C.3   104  ILE104      0.1561
    141  C         27.7650    6.7760   21.6930 C.2   104  ILE104      0.2260
    142  O         28.4040    6.9430   22.7370 O.2   104  ILE104     -0.2867
    143  CB        25.2440    6.6880   21.9090 C.3   104  ILE104      0.0252
    144  CG1       23.9250    7.4690   21.8860 C.3   104  ILE104      0.0019
    145  CG2       25.4710    6.0870   23.2930 C.3   104  ILE104      0.0019
    146  CD1       22.7320    6.7040   22.4160 C.3   104  ILE104      0.0001
    147  N         30.6230    8.4200   24.3690 N.3   108  TYR108     -0.1241
    148  CA        30.9450    7.7850   25.6470 C.3   108  TYR108      0.1605
    149  C         32.1430    6.8540   25.5710 C.2   108  TYR108      0.2264
    150  O         32.7660    6.5720   26.5970 O.2   108  TYR108     -0.2867
    151  CB        29.7320    7.0000   26.1600 C.3   108  TYR108      0.0534
    152  CG        28.6010    7.8490   26.6890 C.ar  108  TYR108     -0.0201
    153  CD1       28.6460    8.4170   27.9580 C.ar  108  TYR108     -0.0009
    154  CD2       27.4770    8.0810   25.9150 C.ar  108  TYR108     -0.0009
    155  CE1       27.6140    9.1920   28.4450 C.ar  108  TYR108      0.0417
    156  CE2       26.4410    8.8570   26.3940 C.ar  108  TYR108      0.0417
    157  CZ        26.5060    9.4110   27.6520 C.ar  108  TYR108      0.1957
    158  OH        25.4570   10.1820   28.1080 O.3   108  TYR108     -0.2866
    159  N         26.0210   12.5860   29.4230 N.3   205  GLY205     -0.1210
    160  CA        26.3030   12.5540   30.8440 C.3   205  GLY205      0.1956
    161  C         27.7490   12.7520   31.2310 C.2   205  GLY205      0.2611
    162  O         27.9930   13.1060   32.3890 O.2   205  GLY205     -0.2717
    163  N         28.6740   12.5230   30.3120 N.am  206  ASN206     -0.1974
    164  CA        30.1090   12.5580   30.5590 C.3   206  ASN206      0.1688
    165  C         30.7490   13.8860   30.1740 C.2   206  ASN206      0.2292
    166  O         31.9710   14.0100   30.0580 O.2   206  ASN206     -0.2864
    167  CB        30.7920   11.4020   29.8070 C.3   206  ASN206      0.1181
    168  CG        30.7780   11.5880   28.3020 C.2   206  ASN206      0.2629
    169  OD1       30.1960   12.5420   27.7820 O.2   206  ASN206     -0.2716
    170  ND2       31.4210   10.6710   27.5930 N.am  206  ASN206     -0.0877
@<TRIPOS>BOND
     1   130   131    1
     2   132   131    1
     3   132   133    2
     4   131   134    1
     5   134   135    1
     6   135   136    1
     7   136   137   ar
     8   136   138   ar
     9   128   127    2
    10   127   129   am
    11   127   126    1
    12   126   123    1
    13   139   140    1
    14   125   124    2
    15   123   124    1
    16   123   122    1
    17    48    46    1
    18   140   141    1
    19   140   143    1
    20    47    46    1
    21   141   142    2
    22   144   143    1
    23   144   146    1
    24   143   145    1
    25   122   118   am
    26    46    45    2
    27   119   118    2
    28   118   117    1
    29   121   120    1
    30    45    44    1
    31    43    44    1
    32    43    42    1
    33   120   117    1
    34   117   116    1
    35   114   113    2
    36   147   148    1
    37   111   112    1
    38   111   108    1
    39    39    42    1
    40    39    40    1
    41    39    38    1
    42   110   109    2
    43   116   109   am
    44    41    40    2
    45   113   115   am
    46   113   112    1
    47   109   108    1
    48   108   107    1
    49   149   148    1
    50   149   150    2
    51   148   151    1
    52   154   156   ar
    53   154   152   ar
    54   151   152    1
    55   156   157   ar
    56   152   153   ar
    57   170   168   am
    58   157   158    1
    59   157   155   ar
    60   169   168    2
    61   153   155   ar
    62   105   106    1
    63   105   104    1
    64    90    89    2
    65    12    11    1
    66   106   100    1
    67   168   167    1
    68    11    10   ar
    69    11     9   ar
    70   104   101    1
    71    89    91   am
    72    89    88    1
    73   159   160    1
    74    33    34    2
    75    33    32    1
    76    10     8   ar
    77   100    94   am
    78   100   101    1
    79   167   164    1
    80    95    94    2
    81    37    35    1
    82     9     7   ar
    83   103   102    2
    84   166   165    2
    85   165   164    1
    86    35    32    1
    87    35    36    1
    88   163   164    1
    89   163   161   am
    90    94    93    1
    91   101   102    1
    92     8     6   ar
    93    88    87    1
    94    32    31    1
    95    87    84    1
    96     7     6   ar
    97   160   161    1
    98     6     5    1
    99   161   162    2
   100    93    92    1
   101    93    96    1
   102    31    26   am
   103    92    85   am
   104    85    84    1
   105    85    86    2
   106    84    83    1
   107     5     2    1
   108    83    81   am
   109    96    97    1
   110    79    80    1
   111    16    15    2
   112    26    27    2
   113    26    25    1
   114    20    22   ar
   115    20    18   ar
   116    81    80    1
   117    81    82    2
   118    22    23   ar
   119     2     1    1
   120     2     3    1
   121    17    18    1
   122    17    14    1
   123    13    14    1
   124    13     3   am
   125    15    14    1
   126    15    24   am
   127    97    99    1
   128    97    98    1
   129    18    19   ar
   130    25    24    1
   131    25    28    1
   132     3     4    2
   133    24    30    1
   134    23    21   ar
   135    78    77    1
   136    19    21   ar
   137    28    29    1
   138    30    29    1
   139    67    69   ar
   140    67    65   ar
   141    69    68   ar
   142    77    76    1
   143    65    64   ar
   144    65    63   ar
   145    64    62   ar
   146    68    66   ar
   147    73    72    2
   148    75    76    1
   149    75    74    1
   150    63    66   ar
   151    63    61   ar
   152    62    61   ar
   153    72    71    1
   154    71    74    1
   155    71    70    1
   156    61    60    1
   157    60    57    1
   158    55    53    1
   159    49    50    1
   160    54    53    1
   161    57    58    1
   162    57    56    1
   163    50    53    1
   164    50    51    1
   165    59    58    2
   166    52    51    2
