@<TRIPOS>MOLECULE
tmp/3pguA03.pdb
 92 86 0 0 0
SMALL
GASTEIGER

@<TRIPOS>ATOM
      1  N        -31.4990  -17.0590   -4.6140 N.3    63  PRO63      -0.2102
      2  CA       -32.1610  -18.2400   -4.0410 C.3    63  PRO63       0.1504
      3  C        -31.2100  -19.0330   -3.1460 C.2    63  PRO63       0.2576
      4  O        -31.6780  -19.8330   -2.3460 O.2    63  PRO63      -0.2718
      5  CB       -32.5320  -19.0710   -5.2720 C.3    63  PRO63       0.0282
      6  CG       -32.6320  -18.0660   -6.3840 C.3    63  PRO63       0.0208
      7  CD       -31.5790  -17.0310   -6.0860 C.3    63  PRO63       0.0893
      8  N        -29.9070  -18.8180   -3.2850 N.am   64  SER64      -0.1953
      9  CA       -28.9410  -19.4930   -2.4160 C.3    64  SER64       0.1924
     10  C        -28.9140  -18.8870   -1.0170 C.2    64  SER64       0.2314
     11  O        -28.3270  -19.4630   -0.1030 O.2    64  SER64      -0.2863
     12  CB       -27.5380  -19.3700   -2.9930 C.3    64  SER64       0.2116
     13  OG       -27.0860  -18.0420   -2.8230 O.3    64  SER64      -0.2180
     14  N        -23.5750  -23.3920   -5.6300 N.3   164  GLN164     -0.1231
     15  CA       -24.4350  -23.5150   -4.4550 C.3   164  GLN164      0.1698
     16  C        -25.8820  -23.7960   -4.8570 C.2   164  GLN164      0.2592
     17  O        -26.5840  -24.5860   -4.2140 O.2   164  GLN164     -0.2718
     18  CB       -24.3460  -22.2510   -3.6050 C.3   164  GLN164      0.0381
     19  CG       -22.9080  -21.9360   -3.1770 C.3   164  GLN164      0.0905
     20  CD       -22.7710  -20.5710   -2.5330 C.2   164  GLN164      0.2608
     21  OE1      -23.6630  -20.1210   -1.8200 O.2   164  GLN164     -0.2717
     22  NE2      -21.6470  -19.9000   -2.7880 N.am  164  GLN164     -0.0878
     23  N        -26.3240  -23.1500   -5.9290 N.am  165  LEU165     -0.1980
     24  CA       -27.6580  -23.4030   -6.4610 C.3   165  LEU165      0.1596
     25  C        -27.7750  -24.8390   -6.9530 C.2   165  LEU165      0.2287
     26  O        -28.7780  -25.5080   -6.6990 O.2   165  LEU165     -0.2864
     27  CB       -27.9720  -22.4230   -7.5990 C.3   165  LEU165      0.0297
     28  CG       -28.0160  -20.9400   -7.2160 C.3   165  LEU165      0.0022
     29  CD1      -28.2120  -20.0750   -8.4550 C.3   165  LEU165      0.0001
     30  CD2      -29.1200  -20.6760   -6.1880 C.3   165  LEU165      0.0001
     31  N        -25.8940  -27.4090   -5.9440 N.3   167  ALA167     -0.1231
     32  CA       -25.8400  -28.2360   -4.7510 C.3   167  ALA167      0.1694
     33  C        -27.2150  -28.3570   -4.0930 C.2   167  ALA167      0.2593
     34  O        -27.6230  -29.4420   -3.6870 O.2   167  ALA167     -0.2718
     35  CB       -24.8070  -27.6690   -3.7610 C.3   167  ALA167      0.0304
     36  N        -27.9310  -27.2410   -4.0030 N.am  168  GLY168     -0.1942
     37  CA       -29.2450  -27.2330   -3.3880 C.3   168  GLY168      0.2014
     38  C        -30.2440  -28.0600   -4.1760 C.2   168  GLY168      0.2638
     39  O        -31.0580  -28.7780   -3.6010 O.2   168  GLY168     -0.2714
     40  N        -30.1830  -27.9460   -5.4980 N.am  169  GLN169     -0.1977
     41  CA       -31.0560  -28.7140   -6.3810 C.3   169  GLN169      0.1601
     42  C        -30.7910  -30.2140   -6.2570 C.2   169  GLN169      0.2287
     43  O        -31.7260  -31.0160   -6.1990 O.2   169  GLN169     -0.2864
     44  CB       -30.8840  -28.2610   -7.8330 C.3   169  GLN169      0.0394
     45  CG       -31.4530  -26.8730   -8.1190 C.3   169  GLN169      0.0908
     46  CD       -32.9740  -26.8650   -8.1720 C.2   169  GLN169      0.2608
     47  OE1      -33.6090  -25.8230   -8.0080 O.2   169  GLN169     -0.2717
     48  NE2      -33.5650  -28.0310   -8.4100 N.am  169  GLN169     -0.0878
     49  N        -29.4940  -31.7020   -3.6410 N.3   171  MET171     -0.1230
     50  CA       -29.8850  -32.1680   -2.3140 C.3   171  MET171      0.1702
     51  C        -31.3980  -32.3160   -2.1700 C.2   171  MET171      0.2592
     52  O        -31.8720  -33.1410   -1.3820 O.2   171  MET171     -0.2718
     53  CB       -29.3120  -31.2730   -1.2150 C.3   171  MET171      0.0401
     54  CG       -27.7990  -31.3700   -1.0690 C.3   171  MET171      0.0596
     55  SD       -27.2030  -33.0390   -0.6930 S.3   171  MET171     -0.1393
     56  CE       -28.0510  -33.3780    0.8470 C.3   171  MET171      0.0692
     57  N        -32.1420  -31.5290   -2.9390 N.am  172  GLN172     -0.1979
     58  CA       -33.5990  -31.5640   -2.9120 C.3   172  GLN172      0.1601
     59  C        -34.1420  -32.7400   -3.7200 C.2   172  GLN172      0.2287
     60  O        -35.2780  -33.1750   -3.5140 O.2   172  GLN172     -0.2864
     61  CB       -34.1760  -30.2500   -3.4540 C.3   172  GLN172      0.0394
     62  CG       -35.6930  -30.2270   -3.5500 C.3   172  GLN172      0.0908
     63  CD       -36.2240  -28.9480   -4.1660 C.2   172  GLN172      0.2608
     64  OE1      -37.3490  -28.9090   -4.6690 O.2   172  GLN172     -0.2717
     65  NE2      -35.4200  -27.8920   -4.1260 N.am  172  GLN172     -0.0878
     66  N        -24.7930  -36.7590   -2.5580 N.3   182  GLN182     -0.1245
     67  CA       -24.2480  -35.8360   -1.5690 C.3   182  GLN182      0.1566
     68  C        -22.8440  -35.3900   -1.9590 C.2   182  GLN182      0.2260
     69  O        -22.4840  -34.2150   -1.8160 O.2   182  GLN182     -0.2867
     70  CB       -24.2780  -36.4900   -0.1800 C.3   182  GLN182      0.0367
     71  CG       -25.7030  -36.6030    0.3680 C.3   182  GLN182      0.0905
     72  CD       -25.8440  -37.6060    1.5030 C.2   182  GLN182      0.2608
     73  OE1      -26.9500  -38.0470    1.8160 O.2   182  GLN182     -0.2717
     74  NE2      -24.7290  -37.9660    2.1240 N.am  182  GLN182     -0.0878
     75  N        -23.0690  -32.9300   -4.7720 N.3   185  ALA185     -0.1231
     76  CA       -23.5180  -31.6290   -4.2790 C.3   185  ALA185      0.1694
     77  C        -22.3530  -30.8940   -3.6200 C.2   185  ALA185      0.2591
     78  O        -22.1800  -29.6910   -3.8020 O.2   185  ALA185     -0.2718
     79  CB       -24.6740  -31.7890   -3.2900 C.3   185  ALA185      0.0304
     80  N        -21.5610  -31.6250   -2.8460 N.am  186  ALA186     -0.1980
     81  CA       -20.3960  -31.0190   -2.2080 C.3   186  ALA186      0.1597
     82  C        -19.4160  -30.4930   -3.2530 C.2   186  ALA186      0.2287
     83  O        -18.8650  -29.4020   -3.1110 O.2   186  ALA186     -0.2864
     84  CB       -19.7110  -32.0230   -1.2730 C.3   186  ALA186      0.0319
     85  N        -20.8600  -27.2700   -4.6220 N.3   189  ASN189     -0.1240
     86  CA       -20.8030  -26.2140   -3.6230 C.3   189  ASN189      0.1653
     87  C        -19.3860  -25.6960   -3.4060 C.2   189  ASN189      0.2266
     88  O        -19.1920  -24.5280   -3.0590 O.2   189  ASN189     -0.2867
     89  CB       -21.4040  -26.6870   -2.2910 C.3   189  ASN189      0.1155
     90  CG       -21.4630  -25.5680   -1.2560 C.2   189  ASN189      0.2627
     91  OD1      -22.1780  -24.5910   -1.4440 O.2   189  ASN189     -0.2716
     92  ND2      -20.7030  -25.7070   -0.1630 N.am  189  ASN189     -0.0877
@<TRIPOS>BOND
     1    29    28    1
     2    48    46   am
     3    46    45    1
     4    46    47    2
     5    45    44    1
     6    44    41    1
     7    27    28    1
     8    27    24    1
     9    28    30    1
    10    25    26    2
    11    25    24    1
    12    24    23    1
    13     6     7    1
    14     6     5    1
    15    41    42    1
    16    41    40    1
    17    42    43    2
    18     7     1    1
    19    31    32    1
    20    23    16   am
    21    14    15    1
    22    40    38   am
    23     5     2    1
    24    16    15    1
    25    16    17    2
    26    75    76    1
    27    32    33    1
    28    32    35    1
    29    64    63    2
    30    85    86    1
    31     1     2    1
    32    15    18    1
    33    76    77    1
    34    76    79    1
    35    38    39    2
    36    38    37    1
    37    63    65   am
    38    63    62    1
    39    33    36   am
    40    33    34    2
    41     2     3    1
    42    36    37    1
    43    78    77    2
    44    59    60    2
    45    59    58    1
    46    49    50    1
    47    86    87    1
    48    86    89    1
    49    77    80   am
    50    18    19    1
    51    62    61    1
    52    61    58    1
    53    87    88    2
    54     8     3   am
    55     8     9    1
    56    82    83    2
    57    82    81    1
    58    19    20    1
    59     3     4    2
    60    12    13    1
    61    12     9    1
    62    57    58    1
    63    57    51   am
    64    80    81    1
    65    22    20   am
    66    66    67    1
    67    20    21    2
    68     9    10    1
    69    50    51    1
    70    50    53    1
    71    89    90    1
    72    81    84    1
    73    51    52    2
    74    68    69    2
    75    68    67    1
    76    67    70    1
    77    91    90    2
    78    90    92   am
    79    53    54    1
    80    54    55    1
    81    10    11    2
    82    55    56    1
    83    70    71    1
    84    71    72    1
    85    72    73    2
    86    72    74   am
