@<TRIPOS>MOLECULE
tmp/3pguA01.pdb
 111 111 0 0 0
SMALL
GASTEIGER

@<TRIPOS>ATOM
      1  N        -21.3890   23.2920  -51.5940 N.3    92  PHE92      -0.1241
      2  CA       -20.8530   22.1110  -50.9060 C.3    92  PHE92       0.1605
      3  C        -20.0020   22.4570  -49.7040 C.2    92  PHE92       0.2264
      4  O        -19.3140   23.4700  -49.6850 O.2    92  PHE92      -0.2867
      5  CB       -19.9820   21.2840  -51.8590 C.3    92  PHE92       0.0534
      6  CG       -20.7480   20.6260  -52.9740 C.ar   92  PHE92      -0.0203
      7  CD1      -20.8040   21.2080  -54.2300 C.ar   92  PHE92      -0.0042
      8  CD2      -21.4000   19.4220  -52.7690 C.ar   92  PHE92      -0.0042
      9  CE1      -21.5030   20.6020  -55.2640 C.ar   92  PHE92      -0.0003
     10  CE2      -22.1010   18.8090  -53.7960 C.ar   92  PHE92      -0.0003
     11  CZ       -22.1540   19.4010  -55.0450 C.ar   92  PHE92      -0.0000
     12  N        -17.8040   20.1840  -46.1530 N.3    94  TRP94      -0.1241
     13  CA       -17.4660   18.9080  -45.5470 C.3    94  TRP94       0.1605
     14  C        -17.1750   19.0840  -44.0710 C.2    94  TRP94       0.2264
     15  O        -17.0480   20.2020  -43.5770 O.2    94  TRP94      -0.2867
     16  CB       -16.2600   18.2690  -46.2440 C.3    94  TRP94       0.0550
     17  CG       -14.9470   18.9570  -45.9400 C.ar   94  TRP94       0.0003
     18  CD1      -14.4880   20.1320  -46.4720 C.ar   94  TRP94       0.0946
     19  CD2      -13.9370   18.5090  -45.0260 C.ar   94  TRP94       0.0152
     20  NE1      -13.2440   20.4340  -45.9520 N.ar   94  TRP94      -0.2442
     21  CE2      -12.8890   19.4560  -45.0600 C.ar   94  TRP94       0.0810
     22  CE3      -13.8120   17.3930  -44.1880 C.ar   94  TRP94       0.0012
     23  CZ2      -11.7340   19.3230  -44.2890 C.ar   94  TRP94       0.0191
     24  CZ3      -12.6600   17.2630  -43.4210 C.ar   94  TRP94       0.0001
     25  CH2      -11.6420   18.2240  -43.4740 C.ar   94  TRP94       0.0015
     26  N        -16.4910   11.1950  -41.3530 N.3   130  LEU130     -0.1231
     27  CA       -16.2790   12.1580  -42.4370 C.3   130  LEU130      0.1693
     28  C        -17.6150   12.4020  -43.1210 C.2   130  LEU130      0.2593
     29  O        -18.3220   11.4440  -43.4810 O.2   130  LEU130     -0.2718
     30  CB       -15.2850   11.6250  -43.4640 C.3   130  LEU130      0.0284
     31  CG       -13.8160   11.5770  -43.0550 C.3   130  LEU130      0.0019
     32  CD1      -12.9930   10.9190  -44.1540 C.3   130  LEU130      0.0001
     33  CD2      -13.3080   12.9910  -42.7740 C.3   130  LEU130      0.0001
     34  N        -17.9730   13.6760  -43.2930 N.am  131  SER131     -0.1938
     35  CA       -19.2890   14.0300  -43.8300 C.3   131  SER131      0.2055
     36  C        -19.1780   15.0410  -44.9600 C.2   131  SER131      0.2644
     37  O        -18.2400   15.8390  -45.0060 O.2   131  SER131     -0.2714
     38  CB       -20.1900   14.6260  -42.7380 C.3   131  SER131      0.2130
     39  OG       -20.6050   13.6420  -41.7890 O.3   131  SER131     -0.2179
     40  N        -20.1690   15.0270  -45.8440 N.am  132  GLY132     -0.1939
     41  CA       -20.2750   16.0430  -46.8810 C.3   132  GLY132      0.2014
     42  C        -21.7060   16.5290  -46.9670 C.2   132  GLY132      0.2639
     43  O        -22.6150   15.8360  -46.5290 O.2   132  GLY132     -0.2714
     44  N        -21.9210   17.7280  -47.5010 N.am  133  ALA133     -0.1963
     45  CA       -23.2770   18.2240  -47.6520 C.3   133  ALA133      0.1728
     46  C        -23.4030   19.0750  -48.8970 C.2   133  ALA133      0.2616
     47  O        -22.4240   19.6690  -49.3640 O.2   133  ALA133     -0.2715
     48  CB       -23.7270   19.0290  -46.4180 C.3   133  ALA133      0.0334
     49  N        -24.6280   19.1120  -49.4010 N.am  134  TYR134     -0.1974
     50  CA       -25.0070   19.8710  -50.5870 C.3   134  TYR134      0.1639
     51  C        -26.1910   20.7650  -50.2370 C.2   134  TYR134      0.2290
     52  O        -27.1820   20.2910  -49.6700 O.2   134  TYR134     -0.2864
     53  CB       -25.4180   18.8880  -51.6830 C.3   134  TYR134      0.0560
     54  CG       -26.0360   19.5200  -52.9090 C.ar  134  TYR134     -0.0198
     55  CD1      -27.3660   19.2870  -53.2370 C.ar  134  TYR134     -0.0009
     56  CD2      -25.2820   20.3290  -53.7450 C.ar  134  TYR134     -0.0009
     57  CE1      -27.9340   19.8640  -54.3700 C.ar  134  TYR134      0.0417
     58  CE2      -25.8370   20.9040  -54.8720 C.ar  134  TYR134      0.0417
     59  CZ       -27.1620   20.6670  -55.1760 C.ar  134  TYR134      0.1957
     60  OH       -27.7120   21.2380  -56.3050 O.3   134  TYR134     -0.2866
     61  N        -28.8230   18.7450  -47.8380 N.3   142  PHE142     -0.1227
     62  CA       -28.7050   17.2950  -47.6700 C.3   142  PHE142      0.1736
     63  C        -27.2880   16.9170  -47.2910 C.2   142  PHE142      0.2596
     64  O        -26.3350   17.4590  -47.8400 O.2   142  PHE142     -0.2718
     65  CB       -29.0890   16.5960  -48.9720 C.3   142  PHE142      0.0547
     66  CG       -30.4300   17.0170  -49.4930 C.ar  142  PHE142     -0.0202
     67  CD1      -30.5480   18.1250  -50.3190 C.ar  142  PHE142     -0.0042
     68  CD2      -31.5720   16.3320  -49.1250 C.ar  142  PHE142     -0.0042
     69  CE1      -31.7860   18.5360  -50.7810 C.ar  142  PHE142     -0.0003
     70  CE2      -32.8150   16.7260  -49.5880 C.ar  142  PHE142     -0.0003
     71  CZ       -32.9200   17.8330  -50.4190 C.ar  142  PHE142     -0.0000
     72  N        -27.1480   15.9820  -46.3540 N.am  143  GLY143     -0.1942
     73  CA       -25.8280   15.5580  -45.9150 C.3   143  GLY143      0.2014
     74  C        -25.6980   14.0480  -45.7920 C.2   143  GLY143      0.2638
     75  O        -26.6760   13.3390  -45.5580 O.2   143  GLY143     -0.2714
     76  N        -24.4730   13.5690  -45.9570 N.am  144  LEU144     -0.1977
     77  CA       -24.1630   12.1490  -45.8680 C.3   144  LEU144      0.1596
     78  C        -22.8260   12.0040  -45.1680 C.2   144  LEU144      0.2287
     79  O        -21.8840   12.7560  -45.4390 O.2   144  LEU144     -0.2864
     80  CB       -24.0770   11.5520  -47.2780 C.3   144  LEU144      0.0297
     81  CG       -23.7110   10.0730  -47.4460 C.3   144  LEU144      0.0022
     82  CD1      -24.7520    9.1710  -46.7890 C.3   144  LEU144      0.0001
     83  CD2      -23.5890    9.7500  -48.9320 C.3   144  LEU144      0.0001
     84  N        -19.8510    9.0850  -43.3430 N.3   146  PHE146     -0.1241
     85  CA       -19.3740    7.7280  -43.1830 C.3   146  PHE146      0.1605
     86  C        -18.6240    7.6110  -41.8730 C.2   146  PHE146      0.2264
     87  O        -17.9110    8.5320  -41.4670 O.2   146  PHE146     -0.2867
     88  CB       -18.5180    7.3380  -44.3870 C.3   146  PHE146      0.0534
     89  CG       -19.3170    7.1780  -45.6490 C.ar  146  PHE146     -0.0203
     90  CD1      -19.4270    8.2210  -46.5560 C.ar  146  PHE146     -0.0042
     91  CD2      -19.9890    5.9940  -45.9080 C.ar  146  PHE146     -0.0042
     92  CE1      -20.1710    8.0740  -47.7140 C.ar  146  PHE146     -0.0003
     93  CE2      -20.7420    5.8430  -47.0610 C.ar  146  PHE146     -0.0003
     94  CZ       -20.8310    6.8820  -47.9640 C.ar  146  PHE146     -0.0000
     95  N        -27.0120   10.0480  -42.3340 N.3   211  ALA211     -0.1231
     96  CA       -27.4890   11.0240  -43.3130 C.3   211  ALA211      0.1694
     97  C        -28.4300   12.0060  -42.6640 C.2   211  ALA211      0.2593
     98  O        -28.9410   11.7700  -41.5720 O.2   211  ALA211     -0.2718
     99  CB       -28.1860   10.3150  -44.4810 C.3   211  ALA211      0.0304
    100  N        -28.6670   13.1200  -43.3380 N.am  212  GLY212     -0.1942
    101  CA       -29.5370   14.1250  -42.7760 C.3   212  GLY212      0.2014
    102  C        -30.1440   14.9970  -43.8430 C.2   212  GLY212      0.2638
    103  O        -29.5740   15.1850  -44.9210 O.2   212  GLY212     -0.2714
    104  N        -31.3250   15.5050  -43.5380 N.am  213  ILE213     -0.1977
    105  CA       -31.9800   16.5040  -44.3690 C.3   213  ILE213      0.1596
    106  C        -32.2760   17.7070  -43.4990 C.2   213  ILE213      0.2287
    107  O        -32.6060   17.5590  -42.3220 O.2   213  ILE213     -0.2864
    108  CB       -33.3040   15.9440  -44.9250 C.3   213  ILE213      0.0276
    109  CG1      -33.0140   14.7220  -45.8000 C.3   213  ILE213      0.0022
    110  CG2      -34.0300   17.0090  -45.7180 C.3   213  ILE213      0.0022
    111  CD1      -34.2640   13.8960  -46.1200 C.3   213  ILE213      0.0001
@<TRIPOS>BOND
     1    60    59    1
     2     9    11   ar
     3     9     7   ar
     4    59    58   ar
     5    59    57   ar
     6    11    10   ar
     7    58    56   ar
     8    57    55   ar
     9     7     6   ar
    10    10     8   ar
    11    56    54   ar
    12    55    54   ar
    13     6     8   ar
    14     6     5    1
    15    54    53    1
    16     5     2    1
    17    53    50    1
    18     1     2    1
    19     2     3    1
    20    69    71   ar
    21    69    67   ar
    22    50    51    1
    23    50    49    1
    24    71    70   ar
    25    67    66   ar
    26    51    52    2
    27     3     4    2
    28    70    68   ar
    29    66    68   ar
    30    66    65    1
    31    49    46   am
    32    47    46    2
    33    65    62    1
    34    83    81    1
    35    46    45    1
    36    94    92   ar
    37    94    93   ar
    38    64    63    2
    39    61    62    1
    40    92    90   ar
    41    62    63    1
    42    45    44    1
    43    45    48    1
    44    44    42   am
    45    81    80    1
    46    81    82    1
    47    63    72   am
    48    80    77    1
    49    93    91   ar
    50    42    41    1
    51    42    43    2
    52    41    40    1
    53    90    89   ar
    54    18    20   ar
    55    18    17   ar
    56    72    73    1
    57    16    17    1
    58    16    13    1
    59    12    13    1
    60   111   109    1
    61    76    77    1
    62    76    74   am
    63    20    21   ar
    64    17    19   ar
    65    73    74    1
    66    91    89   ar
    67    77    78    1
    68    40    36   am
    69   109   108    1
    70    74    75    2
    71   110   108    1
    72    89    88    1
    73    13    14    1
    74    79    78    2
    75    21    19   ar
    76    21    23   ar
    77    19    22   ar
    78    37    36    2
    79    36    35    1
    80   108   105    1
    81   103   102    2
    82    99    96    1
    83    88    85    1
    84   105   104    1
    85   105   106    1
    86    23    25   ar
    87    22    24   ar
    88    32    31    1
    89    14    15    2
    90   102   104   am
    91   102   101    1
    92    35    34    1
    93    35    38    1
    94   106   107    2
    95    29    28    2
    96    25    24   ar
    97    30    31    1
    98    30    27    1
    99    84    85    1
   100   100   101    1
   101   100    97   am
   102    96    97    1
   103    96    95    1
   104    34    28   am
   105    85    86    1
   106    28    27    1
   107    31    33    1
   108    38    39    1
   109    97    98    2
   110    27    26    1
   111    86    87    2
