@<TRIPOS>MOLECULE
tmp/3pguA04.pdb
 167 158 0 0 0
SMALL
GASTEIGER

@<TRIPOS>ATOM
      1  N        -30.6850    5.6660  -24.3260 N.3     1  ALA1       -0.1231
      2  CA       -31.0190    4.4950  -23.5260 C.3     1  ALA1        0.1694
      3  C        -29.9390    3.4280  -23.6450 C.2     1  ALA1        0.2592
      4  O        -29.1470    3.4340  -24.5900 O.2     1  ALA1       -0.2718
      5  CB       -32.3830    3.9270  -23.9400 C.3     1  ALA1        0.0304
      6  N        -29.9230    2.5110  -22.6860 N.am    2  GLY2       -0.1957
      7  CA       -28.9410    1.4440  -22.6860 C.3     2  GLY2        0.1869
      8  C        -27.5370    2.0070  -22.7690 C.2     2  GLY2        0.2309
      9  O        -27.1780    2.9010  -22.0030 O.2     2  GLY2       -0.2863
     10  N        -26.2840    3.7320  -25.2250 N.3     4  GLN4       -0.1231
     11  CA       -26.1820    4.8860  -26.1170 C.3     4  GLN4        0.1698
     12  C        -25.7160    6.1510  -25.3860 C.2     4  GLN4        0.2592
     13  O        -26.2200    6.4720  -24.3120 O.2     4  GLN4       -0.2718
     14  CB       -27.5290    5.1220  -26.7940 C.3     4  GLN4        0.0381
     15  CG       -27.5110    6.0700  -27.9690 C.3     4  GLN4        0.0905
     16  CD       -28.8700    6.1430  -28.6330 C.2     4  GLN4        0.2608
     17  OE1      -29.8780    6.3570  -27.9660 O.2     4  GLN4       -0.2717
     18  NE2      -28.9080    5.9350  -29.9430 N.am    4  GLN4       -0.0878
     19  N        -24.7370    6.8500  -25.9630 N.am    5  LEU5       -0.1966
     20  CA       -24.2250    8.0980  -25.4060 C.3     5  LEU5        0.1728
     21  C        -24.6300    9.2460  -26.3150 C.2     5  LEU5        0.2616
     22  O        -24.5480    9.1410  -27.5420 O.2     5  LEU5       -0.2715
     23  CB       -22.6910    8.0710  -25.3060 C.3     5  LEU5        0.0311
     24  CG       -22.0980    6.9820  -24.4040 C.3     5  LEU5        0.0022
     25  CD1      -20.5650    6.9710  -24.5520 C.3     5  LEU5        0.0001
     26  CD2      -22.5000    7.2060  -22.9570 C.3     5  LEU5        0.0001
     27  N        -25.0650   10.3440  -25.7120 N.am    6  ASN6       -0.1958
     28  CA       -25.3870   11.5380  -26.4810 C.3     6  ASN6        0.1819
     29  C        -24.3340   12.6280  -26.4140 C.2     6  ASN6        0.2621
     30  O        -24.5280   13.6990  -26.9880 O.2     6  ASN6       -0.2715
     31  CB       -26.7190   12.1230  -26.0170 C.3     6  ASN6        0.1195
     32  CG       -27.8950   11.2820  -26.4480 C.2     6  ASN6        0.2630
     33  OD1      -28.3060   11.3300  -27.6060 O.2     6  ASN6       -0.2716
     34  ND2      -28.4280   10.4810  -25.5240 N.am    6  ASN6       -0.0877
     35  N        -23.2270   12.3590  -25.7300 N.am    7  GLU7       -0.1977
     36  CA       -22.2820   13.4090  -25.3620 C.3     7  GLU7        0.1602
     37  C        -21.2930   13.8060  -26.4520 C.2     7  GLU7        0.2287
     38  O        -20.0890   13.6260  -26.2870 O.2     7  GLU7       -0.2864
     39  CB       -21.5290   13.0220  -24.0860 C.3     7  GLU7        0.0415
     40  CG       -22.4020   12.9970  -22.8320 C.3     7  GLU7        0.1163
     41  CD       -23.4740   11.9290  -22.8690 C.2     7  GLU7        0.3649
     42  OE1      -23.1680   10.7720  -23.2380 O.co2   7  GLU7       -0.2457
     43  OE2      -24.6390   12.2470  -22.5420 O.co2   7  GLU7       -0.2457
     44  N        -18.6790   12.0570  -16.9750 N.3    52  ILE52      -0.1245
     45  CA       -19.9140   11.4420  -16.5070 C.3    52  ILE52       0.1561
     46  C        -19.6550   10.7480  -15.1780 C.2    52  ILE52       0.2260
     47  O        -18.7570    9.9120  -15.0810 O.2    52  ILE52      -0.2867
     48  CB       -20.4410   10.3970  -17.5130 C.3    52  ILE52       0.0252
     49  CG1      -20.6240   11.0440  -18.8920 C.3    52  ILE52       0.0019
     50  CG2      -21.7450    9.7540  -17.0020 C.3    52  ILE52       0.0019
     51  CD1      -21.0470   10.0660  -19.9880 C.3    52  ILE52       0.0001
     52  N        -21.7530    8.4870  -12.8280 N.3    54  PRO54      -0.2116
     53  CA       -22.9790    7.7520  -12.5160 C.3    54  PRO54       0.1372
     54  C        -22.9560    7.1790  -11.1020 C.2    54  PRO54       0.2244
     55  O        -21.8950    7.0440  -10.4930 O.2    54  PRO54      -0.2868
     56  CB       -22.9760    6.6190  -13.5470 C.3    54  PRO54       0.0268
     57  CG       -21.5370    6.4060  -13.8730 C.3    54  PRO54       0.0207
     58  CD       -20.7900    7.6790  -13.6030 C.3    54  PRO54       0.0892
     59  N        -24.9050    3.8960   -9.7100 N.3    56  VAL56      -0.1245
     60  CA       -25.8290    2.8170   -9.9980 C.3    56  VAL56       0.1561
     61  C        -25.6570    1.7330   -8.9430 C.2    56  VAL56       0.2260
     62  O        -24.5420    1.2970   -8.6800 O.2    56  VAL56      -0.2867
     63  CB       -25.5650    2.2190  -11.3960 C.3    56  VAL56       0.0252
     64  CG1      -26.4990    1.0400  -11.6500 C.3    56  VAL56       0.0019
     65  CG2      -25.7300    3.2980  -12.4850 C.3    56  VAL56       0.0019
     66  N        -21.0540    1.3840  -11.5220 N.3    74  ALA74      -0.1245
     67  CA       -20.7460    2.0710  -12.7750 C.3    74  ALA74       0.1562
     68  C        -19.7050    3.1720  -12.5610 C.2    74  ALA74       0.2260
     69  O        -19.9930    4.1840  -11.9430 O.2    74  ALA74      -0.2867
     70  CB       -22.0410    2.6550  -13.3750 C.3    74  ALA74       0.0290
     71  N        -35.9360    9.8140  -21.7250 N.3   331  ASP331     -0.1239
     72  CA       -35.5220    8.7090  -22.5640 C.3   331  ASP331      0.1674
     73  C        -36.2390    7.4680  -22.0470 C.2   331  ASP331      0.2266
     74  O        -35.9730    7.0050  -20.9290 O.2   331  ASP331     -0.2867
     75  CB       -33.9970    8.5480  -22.4660 C.3   331  ASP331      0.1410
     76  CG       -33.4120    7.7550  -23.6180 C.2   331  ASP331      0.3668
     77  OD1      -32.2260    7.9840  -23.9670 O.co2 331  ASP331     -0.2456
     78  OD2      -34.1310    6.9010  -24.1730 O.co2 331  ASP331     -0.2456
     79  N        -26.6810   -0.8440  -17.4140 N.3   345  PRO345     -0.2116
     80  CA       -27.6890    0.0860  -16.8970 C.3   345  PRO345      0.1372
     81  C        -28.7130    0.4250  -17.9670 C.2   345  PRO345      0.2244
     82  O        -28.3560    0.8680  -19.0580 O.2   345  PRO345     -0.2868
     83  CB       -26.8610    1.3240  -16.5380 C.3   345  PRO345      0.0268
     84  CG       -25.5340    0.7490  -16.1370 C.3   345  PRO345      0.0207
     85  CD       -25.3100   -0.4180  -17.0760 C.3   345  PRO345      0.0892
     86  N        -32.8030    1.9700  -17.9680 N.3   347  GLN347     -0.1245
     87  CA       -33.9890    2.3870  -17.2480 C.3   347  GLN347      0.1566
     88  C        -34.4410    3.6810  -17.8840 C.2   347  GLN347      0.2260
     89  O        -33.6700    4.3290  -18.6010 O.2   347  GLN347     -0.2867
     90  CB       -33.6630    2.6350  -15.7730 C.3   347  GLN347      0.0367
     91  CG       -32.5760    3.7020  -15.5420 C.3   347  GLN347      0.0905
     92  CD       -31.1660    3.1680  -15.7390 C.2   347  GLN347      0.2608
     93  OE1      -30.6860    2.3290  -14.9660 O.2   347  GLN347     -0.2717
     94  NE2      -30.4990    3.6480  -16.7700 N.am  347  GLN347     -0.0878
     95  N        -34.8960    7.4430  -18.2340 N.3   349  ARG349     -0.1245
     96  CA       -33.9580    8.4680  -17.7970 C.3   349  ARG349      0.1563
     97  C        -34.5680    9.8370  -18.0010 C.2   349  ARG349      0.2260
     98  O        -35.0110   10.1650  -19.0970 O.2   349  ARG349     -0.2867
     99  CB       -32.6530    8.3670  -18.5930 C.3   349  ARG349      0.0307
    100  CG       -31.8570    7.0960  -18.2540 C.3   349  ARG349      0.0489
    101  CD       -30.7070    6.8300  -19.2220 C.3   349  ARG349      0.2205
    102  NE       -30.0900    5.5510  -18.8620 N.pl3 349  ARG349     -0.0865
    103  CZ       -29.1940    4.8990  -19.5920 C.cat 349  ARG349      0.5346
    104  NH1      -28.7720    5.3960  -20.7510 N.pl3 349  ARG349      0.1354
    105  NH2      -28.7230    3.7400  -19.1550 N.pl3 349  ARG349      0.1354
    106  N        -33.7670   13.9050  -17.7770 N.3   351  TRP351     -0.1241
    107  CA       -32.6640   14.8780  -17.7680 C.3   351  TRP351      0.1605
    108  C        -33.1170   16.2690  -17.3520 C.2   351  TRP351      0.2264
    109  O        -34.1740   16.7330  -17.7810 O.2   351  TRP351     -0.2867
    110  CB       -32.1140   15.0970  -19.1790 C.3   351  TRP351      0.0550
    111  CG       -31.4450   13.9730  -19.8390 C.ar  351  TRP351      0.0003
    112  CD1      -31.9740   12.7530  -20.1560 C.ar  351  TRP351      0.0946
    113  CD2      -30.1120   13.9840  -20.3510 C.ar  351  TRP351      0.0152
    114  NE1      -31.0330   11.9960  -20.8190 N.ar  351  TRP351     -0.2442
    115  CE2      -29.8800   12.7330  -20.9450 C.ar  351  TRP351      0.0810
    116  CE3      -29.0830   14.9370  -20.3550 C.ar  351  TRP351      0.0012
    117  CZ2      -28.6640   12.4050  -21.5410 C.ar  351  TRP351      0.0191
    118  CZ3      -27.8780   14.6100  -20.9420 C.ar  351  TRP351      0.0001
    119  CH2      -27.6770   13.3530  -21.5210 C.ar  351  TRP351      0.0015
    120  N        -29.1250   13.4960  -14.3450 N.3   373  MET373     -0.1230
    121  CA       -29.9600   12.4550  -14.9320 C.3   373  MET373      0.1702
    122  C        -30.5080   11.5220  -13.8600 C.2   373  MET373      0.2592
    123  O        -29.7510   10.8530  -13.1610 O.2   373  MET373     -0.2718
    124  CB       -29.1730   11.6560  -15.9690 C.3   373  MET373      0.0401
    125  CG       -28.7310   12.4770  -17.1660 C.3   373  MET373      0.0596
    126  SD       -27.7960   11.5050  -18.3570 S.3   373  MET373     -0.1393
    127  CE       -28.9430   10.1750  -18.7080 C.3   373  MET373      0.0692
    128  N        -31.8310   11.4940  -13.7370 N.am  374  HIS374     -0.1962
    129  CA       -32.5010   10.6490  -12.7640 C.3   374  HIS374      0.1787
    130  C        -32.9440    9.3820  -13.4690 C.2   374  HIS374      0.2620
    131  O        -33.6350    9.4390  -14.4880 O.2   374  HIS374     -0.2715
    132  CB       -33.7120   11.3800  -12.1900 C.3   374  HIS374      0.0785
    133  CG       -34.6070   10.5090  -11.3640 C.ar  374  HIS374      0.0821
    134  ND1      -34.3340   10.1930  -10.0500 N.ar  374  HIS374     -0.2267
    135  CD2      -35.7660    9.8770  -11.6700 C.ar  374  HIS374      0.1154
    136  CE1      -35.2880    9.4090   -9.5810 C.ar  374  HIS374      0.1986
    137  NE2      -36.1700    9.2040  -10.5430 N.ar  374  HIS374     -0.2212
    138  N        -32.5370    8.2370  -12.9320 N.am  375  GLY375     -0.1954
    139  CA       -32.9350    6.9670  -13.4940 C.3   375  GLY375      0.1869
    140  C        -34.0840    6.3620  -12.7130 C.2   375  GLY375      0.2309
    141  O        -34.1650    6.4910  -11.4920 O.2   375  GLY375     -0.2863
    142  N        -30.5290    4.1200  -10.2690 N.3   391  GLY391     -0.1210
    143  CA       -29.4210    4.8170  -10.9000 C.3   391  GLY391      0.1956
    144  C        -29.6690    6.2880  -11.1090 C.2   391  GLY391      0.2612
    145  O        -30.8150    6.7230  -11.2590 O.2   391  GLY391     -0.2717
    146  N        -28.5840    7.0530  -11.1040 N.am  392  LYS392     -0.1965
    147  CA       -28.6440    8.4710  -11.4450 C.3   392  LYS392      0.1728
    148  C        -27.2430    8.8570  -11.8830 C.2   392  LYS392      0.2616
    149  O        -26.3150    8.0690  -11.7380 O.2   392  LYS392     -0.2715
    150  CB       -29.0500    9.3010  -10.2310 C.3   392  LYS392      0.0311
    151  CG       -27.9690    9.4170   -9.1780 C.3   392  LYS392      0.0038
    152  CD       -28.4240   10.2350   -7.9810 C.3   392  LYS392      0.0206
    153  CE       -29.2400    9.3940   -7.0120 C.3   392  LYS392      0.1093
    154  NZ       -28.3980    8.3740   -6.3180 N.3   392  LYS392     -0.1314
    155  N        -27.0790   10.0650  -12.4100 N.am  393  ALA393     -0.1977
    156  CA       -25.7540   10.5060  -12.8290 C.3   393  ALA393      0.1597
    157  C        -25.6840   12.0160  -12.8850 C.2   393  ALA393      0.2287
    158  O        -26.6980   12.6850  -13.0570 O.2   393  ALA393     -0.2864
    159  CB       -25.4230    9.9360  -14.1990 C.3   393  ALA393      0.0319
    160  N        -23.3960   14.9530  -15.0880 N.3   395  LEU395     -0.1245
    161  CA       -22.5380   15.1270  -16.2540 C.3   395  LEU395      0.1561
    162  C        -22.0710   16.5640  -16.3050 C.2   395  LEU395      0.2260
    163  O        -22.8620   17.4730  -16.0770 O.2   395  LEU395     -0.2867
    164  CB       -23.3080   14.7930  -17.5440 C.3   395  LEU395      0.0270
    165  CG       -23.7200   13.3290  -17.7520 C.3   395  LEU395      0.0019
    166  CD1      -25.0160   13.0180  -16.9870 C.3   395  LEU395      0.0001
    167  CD2      -23.9130   13.0680  -19.2490 C.3   395  LEU395      0.0001
@<TRIPOS>BOND
     1    18    16   am
     2    16    15    1
     3    16    17    2
     4    15    14    1
     5    33    32    2
     6    22    21    2
     7    30    29    2
     8    14    11    1
     9    28    29    1
    10    28    31    1
    11    28    27    1
    12    37    38    2
    13    37    36    1
    14    32    31    1
    15    32    34   am
    16    29    35   am
    17    21    27   am
    18    21    20    1
    19    11    12    1
    20    11    10    1
    21    19    20    1
    22    19    12   am
    23    35    36    1
    24    20    23    1
    25    12    13    2
    26    36    39    1
    27    23    24    1
    28     4     3    2
    29    25    24    1
    30    24    26    1
    31     1     2    1
    32    78    76   ar
    33    39    40    1
    34    77    76   ar
    35     5     2    1
    36     3     2    1
    37     3     6   am
    38    76    75    1
    39    42    41   ar
    40    41    40    1
    41    41    43   ar
    42     8     7    1
    43     8     9    2
    44     6     7    1
    45    72    75    1
    46    72    73    1
    47    72    71    1
    48    73    74    2
    49   117   119   ar
    50   117   115   ar
    51   119   118   ar
    52   115   114   ar
    53   115   113   ar
    54   118   116   ar
    55   114   112   ar
    56   104   103    1
    57   116   113   ar
    58   113   111   ar
    59   112   111   ar
    60    51    49    1
    61   111   110    1
    62   103   105    1
    63   103   102    2
    64   167   165    1
    65   101   102    1
    66   101   100    1
    67   110   107    1
    68    98    97    2
    69    82    81    2
    70    49    48    1
    71   127   126    1
    72    89    88    2
    73    99   100    1
    74    99    96    1
    75   126   125    1
    76    95    96    1
    77    97    96    1
    78    86    87    1
    79    81    80    1
    80    88    87    1
    81   109   108    2
    82   106   107    1
    83   107   108    1
    84   165   164    1
    85   165   166    1
    86   164   161    1
    87    48    50    1
    88    48    45    1
    89    79    85    1
    90    79    80    1
    91    87    90    1
    92   125   124    1
    93    85    84    1
    94    44    45    1
    95    80    83    1
    96    94    92   am
    97    83    84    1
    98    45    46    1
    99   162   161    1
   100   162   163    2
   101   161   160    1
   102   124   121    1
   103    90    91    1
   104    92    91    1
   105    92    93    2
   106    46    47    2
   107   121   120    1
   108   121   122    1
   109   131   130    2
   110   159   156    1
   111    57    58    1
   112    57    56    1
   113   122   128   am
   114   122   123    2
   115   128   129    1
   116    58    52    1
   117    56    53    1
   118   139   138    1
   119   139   140    1
   120   130   138   am
   121   130   129    1
   122    70    67    1
   123   158   157    2
   124   157   156    1
   125   156   155    1
   126    52    53    1
   127    67    68    1
   128    67    66    1
   129   129   132    1
   130   140   141    2
   131    68    69    2
   132    53    54    1
   133    65    63    1
   134   155   148   am
   135   132   133    1
   136   148   149    2
   137   148   147    1
   138   135   133   ar
   139   135   137   ar
   140    64    63    1
   141   147   146    1
   142   147   150    1
   143    63    60    1
   144   133   134   ar
   145   145   144    2
   146   144   146   am
   147   144   143    1
   148    54    55    2
   149   143   142    1
   150   137   136   ar
   151   150   151    1
   152   134   136   ar
   153    60    59    1
   154    60    61    1
   155   151   152    1
   156    61    62    2
   157   152   153    1
   158   153   154    1
