@<TRIPOS>MOLECULE
tmp/3pguA09.pdb
 104 104 0 0 0
SMALL
GASTEIGER

@<TRIPOS>ATOM
      1  N        -15.1120    7.7520  -35.7260 N.3   128  LEU128     -0.1231
      2  CA       -14.5040    8.6980  -36.6510 C.3   128  LEU128      0.1693
      3  C        -15.4720    8.9380  -37.7830 C.2   128  LEU128      0.2592
      4  O        -15.9140    7.9930  -38.4420 O.2   128  LEU128     -0.2718
      5  CB       -13.1960    8.1340  -37.2170 C.3   128  LEU128      0.0284
      6  CG       -12.1660    7.7040  -36.1790 C.3   128  LEU128      0.0019
      7  CD1      -10.9390    7.1010  -36.8770 C.3   128  LEU128      0.0001
      8  CD2      -11.7790    8.8590  -35.2730 C.3   128  LEU128      0.0001
      9  N        -15.8220   10.2000  -38.0010 N.am  129  ASN129     -0.1960
     10  CA       -16.7710   10.5340  -39.0420 C.3   129  ASN129      0.1819
     11  C        -16.1810   11.4690  -40.0870 C.2   129  ASN129      0.2621
     12  O        -15.4770   12.4230  -39.7490 O.2   129  ASN129     -0.2715
     13  CB       -18.0120   11.1920  -38.4390 C.3   129  ASN129      0.1195
     14  CG       -19.0030   11.6240  -39.5000 C.2   129  ASN129      0.2630
     15  OD1      -19.9340   10.8890  -39.8420 O.2   129  ASN129     -0.2716
     16  ND2      -18.8030   12.8120  -40.0370 N.am  129  ASN129     -0.0877
     17  N        -16.4910   11.1950  -41.3530 N.am  130  LEU130     -0.1977
     18  CA       -16.2790   12.1580  -42.4370 C.3   130  LEU130      0.1596
     19  C        -17.6150   12.4020  -43.1210 C.2   130  LEU130      0.2287
     20  O        -18.3220   11.4440  -43.4810 O.2   130  LEU130     -0.2864
     21  CB       -15.2850   11.6250  -43.4640 C.3   130  LEU130      0.0297
     22  CG       -13.8160   11.5770  -43.0550 C.3   130  LEU130      0.0022
     23  CD1      -12.9930   10.9190  -44.1540 C.3   130  LEU130      0.0001
     24  CD2      -13.3080   12.9910  -42.7740 C.3   130  LEU130      0.0001
     25  N        -19.8510    9.0850  -43.3430 N.3   146  PHE146     -0.1227
     26  CA       -19.3740    7.7280  -43.1830 C.3   146  PHE146      0.1736
     27  C        -18.6240    7.6110  -41.8730 C.2   146  PHE146      0.2595
     28  O        -17.9110    8.5320  -41.4670 O.2   146  PHE146     -0.2718
     29  CB       -18.5180    7.3380  -44.3870 C.3   146  PHE146      0.0547
     30  CG       -19.3170    7.1780  -45.6490 C.ar  146  PHE146     -0.0202
     31  CD1      -19.4270    8.2210  -46.5560 C.ar  146  PHE146     -0.0042
     32  CD2      -19.9890    5.9940  -45.9080 C.ar  146  PHE146     -0.0042
     33  CE1      -20.1710    8.0740  -47.7140 C.ar  146  PHE146     -0.0003
     34  CE2      -20.7420    5.8430  -47.0610 C.ar  146  PHE146     -0.0003
     35  CZ       -20.8310    6.8820  -47.9640 C.ar  146  PHE146     -0.0000
     36  N        -18.8050    6.4740  -41.2100 N.am  147  ASN147     -0.1960
     37  CA       -18.3060    6.2840  -39.8620 C.3   147  ASN147      0.1819
     38  C        -17.4110    5.0760  -39.7520 C.2   147  ASN147      0.2621
     39  O        -17.7830    3.9890  -40.1750 O.2   147  ASN147     -0.2715
     40  CB       -19.4840    6.1150  -38.9080 C.3   147  ASN147      0.1195
     41  CG       -20.4260    7.2900  -38.9690 C.2   147  ASN147      0.2630
     42  OD1      -21.5150    7.2220  -39.5610 O.2   147  ASN147     -0.2716
     43  ND2      -19.9970    8.3940  -38.4010 N.am  147  ASN147     -0.0877
     44  N        -16.2350    5.2750  -39.1680 N.am  148  ALA148     -0.1977
     45  CA       -15.3650    4.1690  -38.7880 C.3   148  ALA148      0.1597
     46  C        -15.3470    4.1350  -37.2730 C.2   148  ALA148      0.2287
     47  O        -14.9800    5.1220  -36.6280 O.2   148  ALA148     -0.2864
     48  CB       -13.9610    4.3800  -39.3310 C.3   148  ALA148      0.0319
     49  N        -17.9540   -0.4180  -39.4970 N.3   207  PHE207     -0.1227
     50  CA       -18.2780    0.7440  -40.3110 C.3   207  PHE207      0.1736
     51  C        -19.7710    0.9760  -40.4230 C.2   207  PHE207      0.2596
     52  O        -20.5640    0.0420  -40.3480 O.2   207  PHE207     -0.2718
     53  CB       -17.6840    0.5770  -41.7060 C.3   207  PHE207      0.0547
     54  CG       -16.2210    0.3080  -41.6780 C.ar  207  PHE207     -0.0202
     55  CD1      -15.3240    1.3570  -41.5770 C.ar  207  PHE207     -0.0042
     56  CD2      -15.7410   -0.9870  -41.6840 C.ar  207  PHE207     -0.0042
     57  CE1      -13.9640    1.1140  -41.5170 C.ar  207  PHE207     -0.0003
     58  CE2      -14.3780   -1.2360  -41.6220 C.ar  207  PHE207     -0.0003
     59  CZ       -13.4950   -0.1840  -41.5410 C.ar  207  PHE207     -0.0000
     60  N        -20.1410    2.2340  -40.6240 N.am  208  GLY208     -0.1942
     61  CA       -21.5310    2.5860  -40.8270 C.3   208  GLY208      0.2014
     62  C        -21.6530    3.8880  -41.5900 C.2   208  GLY208      0.2638
     63  O        -20.6650    4.4580  -42.0450 O.2   208  GLY208     -0.2714
     64  N        -22.8840    4.3560  -41.7460 N.am  209  TRP209     -0.1973
     65  CA       -23.1110    5.6180  -42.4200 C.3   209  TRP209      0.1640
     66  C        -24.1980    6.3870  -41.7000 C.2   209  TRP209      0.2290
     67  O        -24.9250    5.8290  -40.8750 O.2   209  TRP209     -0.2864
     68  CB       -23.4790    5.3870  -43.8910 C.3   209  TRP209      0.0576
     69  CG       -24.7300    4.5740  -44.0870 C.ar  209  TRP209      0.0006
     70  CD1      -24.8360    3.2080  -44.0520 C.ar  209  TRP209      0.0946
     71  CD2      -26.0450    5.0710  -44.3570 C.ar  209  TRP209      0.0152
     72  NE1      -26.1400    2.8280  -44.2810 N.ar  209  TRP209     -0.2442
     73  CE2      -26.9030    3.9520  -44.4700 C.ar  209  TRP209      0.0810
     74  CE3      -26.5850    6.3530  -44.5150 C.ar  209  TRP209      0.0012
     75  CZ2      -28.2680    4.0740  -44.7290 C.ar  209  TRP209      0.0191
     76  CZ3      -27.9450    6.4730  -44.7790 C.ar  209  TRP209      0.0001
     77  CH2      -28.7700    5.3390  -44.8830 C.ar  209  TRP209      0.0015
     78  N        -30.7390   10.0610  -39.9090 N.3   227  TYR227     -0.1241
     79  CA       -30.6630    8.6170  -39.7100 C.3   227  TYR227      0.1605
     80  C        -29.2210    8.2000  -39.5030 C.2   227  TYR227      0.2264
     81  O        -28.3310    8.6730  -40.2050 O.2   227  TYR227     -0.2867
     82  CB       -31.1930    7.8710  -40.9320 C.3   227  TYR227      0.0534
     83  CG       -31.0430    6.3670  -40.8030 C.ar  227  TYR227     -0.0201
     84  CD1      -31.8180    5.6500  -39.9070 C.ar  227  TYR227     -0.0009
     85  CD2      -30.1020    5.6770  -41.5630 C.ar  227  TYR227     -0.0009
     86  CE1      -31.6770    4.2820  -39.7780 C.ar  227  TYR227      0.0417
     87  CE2      -29.9570    4.3040  -41.4390 C.ar  227  TYR227      0.0417
     88  CZ       -30.7450    3.6170  -40.5480 C.ar  227  TYR227      0.1957
     89  OH       -30.6140    2.2490  -40.4030 O.3   227  TYR227     -0.2866
     90  N        -27.0140    4.5780  -39.2590 N.3   229  SER229     -0.1202
     91  CA       -27.0870    3.1380  -39.4520 C.3   229  SER229      0.2020
     92  C        -26.5700    2.3430  -38.2670 C.2   229  SER229      0.2618
     93  O        -25.7950    2.8330  -37.4300 O.2   229  SER229     -0.2717
     94  CB       -26.3130    2.7120  -40.7030 C.3   229  SER229      0.2103
     95  OG       -24.9100    2.6440  -40.4440 O.3   229  SER229     -0.2182
     96  N        -26.9860    1.0860  -38.2200 N.am  230  GLU230     -0.1979
     97  CA       -26.3320    0.1260  -37.3550 C.3   230  GLU230      0.1602
     98  C        -24.8500    0.0270  -37.7130 C.2   230  GLU230      0.2287
     99  O        -24.4390    0.3020  -38.8470 O.2   230  GLU230     -0.2864
    100  CB       -26.9770   -1.2580  -37.5100 C.3   230  GLU230      0.0415
    101  CG       -28.3450   -1.4050  -36.8710 C.3   230  GLU230      0.1163
    102  CD       -28.7330   -2.8700  -36.7040 C.2   230  GLU230      0.3649
    103  OE1      -29.3520   -3.4330  -37.6330 O.co2 230  GLU230     -0.2457
    104  OE2      -28.4040   -3.4580  -35.6510 O.co2 230  GLU230     -0.2457
@<TRIPOS>BOND
     1    35    33   ar
     2    35    34   ar
     3    33    31   ar
     4    34    32   ar
     5    31    30   ar
     6    32    30   ar
     7    30    29    1
     8    77    76   ar
     9    77    75   ar
    10    76    74   ar
    11    75    73   ar
    12    74    71   ar
    13    73    71   ar
    14    73    72   ar
    15    29    26    1
    16    71    69   ar
    17    72    70   ar
    18    23    22    1
    19    69    70   ar
    20    69    68    1
    21    68    65    1
    22    20    19    2
    23    21    22    1
    24    21    18    1
    25    25    26    1
    26    26    27    1
    27    19    18    1
    28    22    24    1
    29    18    17    1
    30    65    64    1
    31    65    66    1
    32    63    62    2
    33    27    28    2
    34    27    36   am
    35    64    62   am
    36    53    54    1
    37    53    50    1
    38    66    67    2
    39    56    54   ar
    40    56    58   ar
    41    54    55   ar
    42    58    59   ar
    43    62    61    1
    44    55    57   ar
    45    85    87   ar
    46    85    83   ar
    47    59    57   ar
    48    87    88   ar
    49    17    11   am
    50    36    37    1
    51    82    83    1
    52    82    79    1
    53    61    60    1
    54    83    84   ar
    55    94    95    1
    56    94    91    1
    57    60    51   am
    58    88    89    1
    59    88    86   ar
    60    51    52    2
    61    51    50    1
    62    50    49    1
    63    81    80    2
    64    39    38    2
    65    11    12    2
    66    11    10    1
    67    16    14   am
    68    78    79    1
    69    84    86   ar
    70    37    38    1
    71    37    40    1
    72    15    14    2
    73    38    44   am
    74    79    80    1
    75    42    41    2
    76    14    13    1
    77    91    90    1
    78    91    92    1
    79    48    45    1
    80    44    45    1
    81    10    13    1
    82    10     9    1
    83    41    40    1
    84    41    43   am
    85    99    98    2
    86    45    46    1
    87     4     3    2
    88    92    96   am
    89    92    93    2
    90    96    97    1
    91     9     3   am
    92     3     2    1
    93    98    97    1
    94   103   102   ar
    95   100    97    1
    96   100   101    1
    97    46    47    2
    98     5     2    1
    99     5     6    1
   100     7     6    1
   101   101   102    1
   102   102   104   ar
   103     2     1    1
   104     6     8    1
