@<TRIPOS>MOLECULE
tmp/3pguA12.pdb
 123 120 0 0 0
SMALL
GASTEIGER

@<TRIPOS>ATOM
      1  N        -14.6930   17.9040  -23.7760 N.3    49  ALA49      -0.1245
      2  CA       -15.0320   16.6080  -23.1910 C.3    49  ALA49       0.1562
      3  C        -16.1400   16.7320  -22.1830 C.2    49  ALA49       0.2260
      4  O        -16.3800   17.8090  -21.6320 O.2    49  ALA49      -0.2867
      5  CB       -13.7990   15.9650  -22.5300 C.3    49  ALA49       0.0290
      6  N        -17.4870   14.8330  -18.6140 N.3    51  TYR51      -0.1241
      7  CA       -17.2140   13.9230  -17.5160 C.3    51  TYR51       0.1605
      8  C        -18.5440   13.3820  -17.0250 C.2    51  TYR51       0.2264
      9  O        -19.4490   14.1490  -16.7180 O.2    51  TYR51      -0.2867
     10  CB       -16.5020   14.6930  -16.4020 C.3    51  TYR51       0.0534
     11  CG       -16.1790   13.8840  -15.1670 C.ar   51  TYR51      -0.0201
     12  CD1      -15.2450   12.8550  -15.2150 C.ar   51  TYR51      -0.0009
     13  CD2      -16.7820   14.1680  -13.9500 C.ar   51  TYR51      -0.0009
     14  CE1      -14.9310   12.1110  -14.0840 C.ar   51  TYR51       0.0417
     15  CE2      -16.4710   13.4290  -12.8030 C.ar   51  TYR51       0.0417
     16  CZ       -15.5400   12.4060  -12.8840 C.ar   51  TYR51       0.1957
     17  OH       -15.2160   11.6660  -11.7620 O.3    51  TYR51      -0.2866
     18  N        -16.8320    6.2660  -13.2280 N.3    76  THR76      -0.1218
     19  CA       -16.8360    7.5420  -13.9320 C.3    76  THR76       0.1862
     20  C        -16.1620    7.3900  -15.2880 C.2    76  THR76       0.2287
     21  O        -15.4030    6.4420  -15.5280 O.2    76  THR76      -0.2866
     22  CB       -16.1270    8.6400  -13.1210 C.3    76  THR76       0.1770
     23  OG1      -14.7330    8.3160  -12.9990 O.3    76  THR76      -0.2211
     24  CG2      -16.7400    8.7430  -11.7290 C.3    76  THR76       0.0375
     25  N        -14.6700    9.8090  -18.9170 N.3    78  TRP78      -0.1241
     26  CA       -14.5230   11.0070  -19.7340 C.3    78  TRP78       0.1605
     27  C        -14.8610   10.6670  -21.1750 C.2    78  TRP78       0.2264
     28  O        -14.3870    9.6630  -21.7130 O.2    78  TRP78      -0.2867
     29  CB       -13.0780   11.4860  -19.6950 C.3    78  TRP78       0.0550
     30  CG       -12.6830   12.1740  -18.4320 C.ar   78  TRP78       0.0003
     31  CD1      -12.0910   11.6090  -17.3380 C.ar   78  TRP78       0.0946
     32  CD2      -12.8420   13.5640  -18.1320 C.ar   78  TRP78       0.0152
     33  NE1      -11.8710   12.5680  -16.3740 N.ar   78  TRP78      -0.2442
     34  CE2      -12.3210   13.7730  -16.8370 C.ar   78  TRP78       0.0810
     35  CE3      -13.3700   14.6560  -18.8350 C.ar   78  TRP78       0.0012
     36  CZ2      -12.3150   15.0300  -16.2280 C.ar   78  TRP78       0.0191
     37  CZ3      -13.3650   15.9000  -18.2260 C.ar   78  TRP78       0.0001
     38  CH2      -12.8380   16.0730  -16.9350 C.ar   78  TRP78       0.0015
     39  N        -27.0300   31.6870  -22.5220 N.3   324  PHE324     -0.1227
     40  CA       -27.4230   30.7420  -21.4790 C.3   324  PHE324      0.1736
     41  C        -28.3960   29.7340  -22.0670 C.2   324  PHE324      0.2595
     42  O        -29.0910   30.0280  -23.0320 O.2   324  PHE324     -0.2718
     43  CB       -28.0510   31.4910  -20.3000 C.3   324  PHE324      0.0547
     44  CG       -27.1550   32.5660  -19.7490 C.ar  324  PHE324     -0.0202
     45  CD1      -27.3280   33.8940  -20.1150 C.ar  324  PHE324     -0.0042
     46  CD2      -26.0970   32.2330  -18.9100 C.ar  324  PHE324     -0.0042
     47  CE1      -26.4760   34.8790  -19.6240 C.ar  324  PHE324     -0.0003
     48  CE2      -25.2500   33.2070  -18.4220 C.ar  324  PHE324     -0.0003
     49  CZ       -25.4370   34.5340  -18.7820 C.ar  324  PHE324     -0.0000
     50  N        -28.4300   28.5320  -21.5060 N.am  325  ARG325     -0.1966
     51  CA       -29.3090   27.5090  -22.0490 C.3   325  ARG325      0.1729
     52  C        -29.7890   26.5750  -20.9530 C.2   325  ARG325      0.2616
     53  O        -29.1640   26.4390  -19.8980 O.2   325  ARG325     -0.2715
     54  CB       -28.5880   26.7160  -23.1460 C.3   325  ARG325      0.0348
     55  CG       -27.3140   26.0150  -22.6410 C.3   325  ARG325      0.0492
     56  CD       -26.5820   25.2680  -23.7660 C.3   325  ARG325      0.2205
     57  NE       -26.2010   26.2050  -24.8260 N.pl3 325  ARG325     -0.0865
     58  CZ       -25.0370   26.8350  -24.8900 C.cat 325  ARG325      0.5346
     59  NH1      -24.1060   26.6230  -23.9640 N.pl3 325  ARG325      0.1354
     60  NH2      -24.8070   27.6840  -25.8900 N.pl3 325  ARG325      0.1354
     61  N        -30.9370   25.9570  -21.1870 N.am  326  THR326     -0.1951
     62  CA       -31.4160   24.9420  -20.2680 C.3   326  THR326      0.1897
     63  C        -32.2330   23.9410  -21.0550 C.2   326  THR326      0.2313
     64  O        -32.6490   24.2100  -22.1800 O.2   326  THR326     -0.2863
     65  CB       -32.2640   25.5730  -19.1420 C.3   326  THR326      0.1794
     66  OG1      -32.6000   24.5710  -18.1710 O.3   326  THR326     -0.2208
     67  CG2      -33.5500   26.1600  -19.7120 C.3   326  THR326      0.0378
     68  N        -28.3950   22.5690  -17.7330 N.3   354  ALA354     -0.1231
     69  CA       -28.1690   24.0080  -17.8470 C.3   354  ALA354      0.1694
     70  C        -26.7810   24.2470  -18.4150 C.2   354  ALA354      0.2593
     71  O        -25.8830   23.4150  -18.2630 O.2   354  ALA354     -0.2718
     72  CB       -28.3100   24.6920  -16.4910 C.3   354  ALA354      0.0304
     73  N        -26.5980   25.3900  -19.0630 N.am  355  GLY355     -0.1942
     74  CA       -25.3030   25.6810  -19.6470 C.3   355  GLY355      0.2014
     75  C        -25.1160   27.1450  -19.9680 C.2   355  GLY355      0.2639
     76  O        -26.0580   27.9350  -19.8910 O.2   355  GLY355     -0.2714
     77  N        -23.8840   27.4960  -20.3200 N.am  356  THR356     -0.1950
     78  CA       -23.5700   28.8530  -20.7340 C.3   356  THR356      0.1897
     79  C        -22.4290   28.8210  -21.7320 C.2   356  THR356      0.2313
     80  O        -21.6280   27.8800  -21.7520 O.2   356  THR356     -0.2863
     81  CB       -23.2050   29.7410  -19.5260 C.3   356  THR356      0.1794
     82  OG1      -22.9920   31.0960  -19.9670 O.3   356  THR356     -0.2208
     83  CG2      -21.9540   29.2170  -18.8400 C.3   356  THR356      0.0378
     84  N        -19.7640   25.7180  -21.3330 N.3   368  VAL368     -0.1231
     85  CA       -19.7620   24.8850  -20.1340 C.3   368  VAL368      0.1692
     86  C        -21.1810   24.3680  -19.9520 C.2   368  VAL368      0.2593
     87  O        -22.1420   25.1240  -20.0920 O.2   368  VAL368     -0.2718
     88  CB       -19.3360   25.6740  -18.8840 C.3   368  VAL368      0.0266
     89  CG1      -19.4550   24.8030  -17.6560 C.3   368  VAL368      0.0020
     90  CG2      -17.8930   26.1790  -19.0320 C.3   368  VAL368      0.0020
     91  N        -21.3130   23.0760  -19.6680 N.am  369  GLY369     -0.1942
     92  CA       -22.6250   22.4780  -19.4880 C.3   369  GLY369      0.2014
     93  C        -22.6790   21.5180  -18.3180 C.2   369  GLY369      0.2638
     94  O        -21.6770   20.9100  -17.9460 O.2   369  GLY369     -0.2714
     95  N        -23.8650   21.3940  -17.7320 N.am  370  VAL370     -0.1977
     96  CA       -24.0930   20.4460  -16.6560 C.3   370  VAL370      0.1596
     97  C        -25.4500   19.8100  -16.8470 C.2   370  VAL370      0.2287
     98  O        -26.3960   20.4620  -17.2940 O.2   370  VAL370     -0.2864
     99  CB       -24.0480   21.1280  -15.2630 C.3   370  VAL370      0.0276
    100  CG1      -25.0910   22.2240  -15.1660 C.3   370  VAL370      0.0022
    101  CG2      -24.2480   20.1060  -14.1510 C.3   370  VAL370      0.0022
    102  N        -20.7840   16.7600  -16.6000 N.3   396  PHE396     -0.1227
    103  CA       -20.1820   18.0900  -16.6750 C.3   396  PHE396      0.1736
    104  C        -19.3180   18.1630  -17.9230 C.2   396  PHE396      0.2596
    105  O        -18.5290   17.2610  -18.1950 O.2   396  PHE396     -0.2718
    106  CB       -19.2830   18.3350  -15.4610 C.3   396  PHE396      0.0547
    107  CG       -19.9260   17.9860  -14.1430 C.ar  396  PHE396     -0.0202
    108  CD1      -19.8000   16.7120  -13.6100 C.ar  396  PHE396     -0.0042
    109  CD2      -20.6560   18.9260  -13.4430 C.ar  396  PHE396     -0.0042
    110  CE1      -20.3910   16.3840  -12.3940 C.ar  396  PHE396     -0.0003
    111  CE2      -21.2490   18.6040  -12.2250 C.ar  396  PHE396     -0.0003
    112  CZ       -21.1170   17.3320  -11.7060 C.ar  396  PHE396     -0.0000
    113  N        -19.4320   19.2460  -18.6770 N.am  397  GLY397     -0.1942
    114  CA       -18.6540   19.3300  -19.8990 C.3   397  GLY397      0.2014
    115  C        -18.1780   20.7200  -20.2330 C.2   397  GLY397      0.2639
    116  O        -18.7950   21.7140  -19.8460 O.2   397  GLY397     -0.2714
    117  N        -17.0610   20.7920  -20.9510 N.am  398  THR398     -0.1950
    118  CA       -16.5960   22.0650  -21.4990 C.3   398  THR398      0.1897
    119  C        -15.9600   21.8750  -22.8750 C.2   398  THR398      0.2313
    120  O        -15.2320   20.9040  -23.1110 O.2   398  THR398     -0.2863
    121  CB       -15.6250   22.8020  -20.5460 C.3   398  THR398      0.1794
    122  OG1      -15.1950   24.0290  -21.1530 O.3   398  THR398     -0.2208
    123  CG2      -14.4140   21.9510  -20.2300 C.3   398  THR398      0.0378
@<TRIPOS>BOND
     1    60    58    1
     2    58    57    2
     3    58    59    1
     4    57    56    1
     5     1     2    1
     6    56    55    1
     7     2     5    1
     8     2     3    1
     9    54    55    1
    10    54    51    1
    11   120   119    2
    12    42    41    2
    13   119   118    1
    14    39    40    1
    15     3     4    2
    16    64    63    2
    17    41    50   am
    18    41    40    1
    19    51    50    1
    20    51    52    1
    21    80    79    2
    22    79    78    1
    23    28    27    2
    24   118   117    1
    25   118   121    1
    26    40    43    1
    27    84    85    1
    28    61    52   am
    29    61    62    1
    30    27    26    1
    31   122   121    1
    32    63    62    1
    33    52    53    2
    34   117   115   am
    35    78    77    1
    36    78    81    1
    37   121   123    1
    38    77    75   am
    39    43    44    1
    40    62    65    1
    41   115   114    1
    42   115   116    2
    43    85    86    1
    44    85    88    1
    45    45    44   ar
    46    45    47   ar
    47    87    86    2
    48    75    76    2
    49    75    74    1
    50    82    81    1
    51    86    91   am
    52   114   113    1
    53    44    46   ar
    54    26    29    1
    55    26    25    1
    56    67    65    1
    57    29    30    1
    58    91    92    1
    59    74    73    1
    60    47    49   ar
    61    81    83    1
    62    92    93    1
    63    65    66    1
    64    73    70   am
    65    90    88    1
    66    46    48   ar
    67    88    89    1
    68    35    37   ar
    69    35    32   ar
    70    49    48   ar
    71   113   104   am
    72     6     7    1
    73    30    32   ar
    74    30    31   ar
    75    70    71    2
    76    70    69    1
    77    93    94    2
    78    93    95   am
    79    37    38   ar
    80   105   104    2
    81    32    34   ar
    82   104   103    1
    83    69    68    1
    84    69    72    1
    85    95    96    1
    86     7     8    1
    87     7    10    1
    88    31    33   ar
    89    98    97    2
    90     8     9    2
    91    38    36   ar
    92    97    96    1
    93    34    33   ar
    94    34    36   ar
    95   103   102    1
    96   103   106    1
    97    96    99    1
    98    10    11    1
    99    21    20    2
   100   106   107    1
   101    20    19    1
   102    99   100    1
   103    99   101    1
   104    12    11   ar
   105    12    14   ar
   106    11    13   ar
   107   107   108   ar
   108   107   109   ar
   109    14    16   ar
   110    13    15   ar
   111    19    18    1
   112    19    22    1
   113   108   110   ar
   114   109   111   ar
   115    22    23    1
   116    22    24    1
   117    16    15   ar
   118    16    17    1
   119   110   112   ar
   120   111   112   ar
