@<TRIPOS>MOLECULE
tmp/3pgvB00.pdb
 109 99 0 0 0
SMALL
GASTEIGER

@<TRIPOS>ATOM
      1  N        -36.3140   49.1620   68.5670 N.3     7  ASP7       -0.1239
      2  CA       -36.1120   50.0800   67.4660 C.3     7  ASP7        0.1674
      3  C        -36.6790   51.4680   67.9210 C.2     7  ASP7        0.2266
      4  O        -37.4290   51.5340   68.9040 O.2     7  ASP7       -0.2867
      5  CB       -36.8480   49.5640   66.2120 C.3     7  ASP7        0.1410
      6  CG       -36.8750   50.5380   65.0380 C.2     7  ASP7        0.3668
      7  OD1      -35.8630   51.2460   64.8250 O.co2   7  ASP7       -0.2456
      8  OD2      -37.8990   50.5840   64.3360 O.co2   7  ASP7       -0.2456
      9  N        -37.5700   54.7880   65.5410 N.3     9  ASP9       -0.1239
     10  CA       -38.5650   55.3030   64.6010 C.3     9  ASP9        0.1674
     11  C        -39.6000   54.2540   64.2600 C.2     9  ASP9        0.2266
     12  O        -39.2420   53.1450   63.8540 O.2     9  ASP9       -0.2867
     13  CB       -37.8790   55.8200   63.3210 C.3     9  ASP9        0.1410
     14  CG       -36.8680   56.9080   63.6010 C.2     9  ASP9        0.3668
     15  OD1      -37.2860   58.0320   63.9120 O.co2   9  ASP9       -0.2456
     16  OD2      -35.6500   56.6050   63.5960 O.co2   9  ASP9       -0.2456
     17  N        -42.0640   61.2710   65.9940 N.3    17  HIS17      -0.1241
     18  CA       -40.6380   61.0560   66.2590 C.3    17  HIS17       0.1621
     19  C        -40.1770   61.5420   67.6390 C.2    17  HIS17       0.2264
     20  O        -38.9980   61.8740   67.8090 O.2    17  HIS17      -0.2867
     21  CB       -39.7640   61.6750   65.1440 C.3    17  HIS17       0.0745
     22  CG       -40.1920   61.3040   63.7600 C.ar   17  HIS17       0.0817
     23  ND1      -41.2060   62.0010   63.1060 N.ar   17  HIS17      -0.2268
     24  CD2      -39.7320   60.3310   62.9410 C.ar   17  HIS17       0.1154
     25  CE1      -41.3370   61.4210   61.9260 C.ar   17  HIS17       0.1986
     26  NE2      -40.4550   60.4240   61.7690 N.ar   17  HIS17      -0.2212
     27  N        -31.1450   51.3990   65.9340 N.3    41  THR41      -0.1203
     28  CA       -31.6800   52.2340   64.8580 C.3    41  THR41       0.1994
     29  C        -30.8340   52.1520   63.5980 C.2    41  THR41       0.2618
     30  O        -29.6610   51.7700   63.6520 O.2    41  THR41      -0.2717
     31  CB       -31.8300   53.7030   65.3570 C.3    41  THR41       0.1784
     32  OG1      -32.3440   54.5140   64.3030 O.3    41  THR41      -0.2211
     33  CG2      -30.4990   54.2940   65.8660 C.3    41  THR41       0.0376
     34  N        -31.4330   52.5390   62.4740 N.am   42  GLY42      -0.1942
     35  CA       -30.7320   52.6990   61.2200 C.3    42  GLY42       0.2014
     36  C        -30.0260   54.0400   61.1640 C.2    42  GLY42       0.2638
     37  O        -29.0730   54.2110   60.4120 O.2    42  GLY42      -0.2714
     38  N        -30.4410   54.9780   62.0290 N.am   43  ARG43      -0.1977
     39  CA       -29.8440   56.3250   62.0840 C.3    43  ARG43       0.1597
     40  C        -28.3600   56.3020   62.4200 C.2    43  ARG43       0.2287
     41  O        -27.8720   55.3650   63.0630 O.2    43  ARG43      -0.2864
     42  CB       -30.5500   57.1910   63.1160 C.3    43  ARG43       0.0334
     43  CG       -31.9960   57.5390   62.8060 C.3    43  ARG43       0.0492
     44  CD       -32.4030   58.6430   63.7470 C.3    43  ARG43       0.2205
     45  NE       -33.8390   58.8670   63.7900 N.pl3  43  ARG43      -0.0865
     46  CZ       -34.3980   59.8910   64.4200 C.cat  43  ARG43       0.5346
     47  NH1      -33.6420   60.8300   64.9740 N.pl3  43  ARG43       0.1354
     48  NH2      -35.7140   60.0210   64.4470 N.pl3  43  ARG43       0.1354
     49  N        -27.0650   61.4980   64.7450 N.3    47  ASP47      -0.1239
     50  CA       -28.4660   61.7800   64.4940 C.3    47  ASP47       0.1674
     51  C        -29.4080   61.3200   65.6350 C.2    47  ASP47       0.2266
     52  O        -30.5620   61.7190   65.6570 O.2    47  ASP47      -0.2867
     53  CB       -28.8900   61.1780   63.1480 C.3    47  ASP47       0.1410
     54  CG       -29.8470   62.0390   62.3670 C.2    47  ASP47       0.3668
     55  OD1      -29.9080   63.2660   62.6410 O.co2  47  ASP47      -0.2456
     56  OD2      -30.5050   61.5080   61.4540 O.co2  47  ASP47      -0.2456
     57  N        -35.4720   50.0470   54.9950 N.3   164  SER164     -0.1202
     58  CA       -35.9090   50.5930   56.2680 C.3   164  SER164      0.2020
     59  C        -37.3410   51.1190   56.0420 C.2   164  SER164      0.2619
     60  O        -38.3080   50.3950   56.3250 O.2   164  SER164     -0.2717
     61  CB       -34.9640   51.6890   56.7480 C.3   164  SER164      0.2103
     62  OG       -34.7800   52.7030   55.7770 O.3   164  SER164     -0.2182
     63  N        -37.4710   52.2510   55.3160 N.am  165  THR165     -0.1952
     64  CA       -38.7690   52.7000   54.7940 C.3   165  THR165      0.1897
     65  C        -38.9120   52.1000   53.3900 C.2   165  THR165      0.2313
     66  O        -37.9790   51.4610   52.9140 O.2   165  THR165     -0.2863
     67  CB       -38.8400   54.2400   54.7580 C.3   165  THR165      0.1794
     68  OG1      -37.8920   54.7510   53.8030 O.3   165  THR165     -0.2208
     69  CG2      -38.6090   54.8670   56.1290 C.3   165  THR165      0.0378
     70  N        -36.1530   53.7590   51.1180 N.3   168  CYS168     -0.1235
     71  CA       -34.7660   53.7270   51.5350 C.3   168  CYS168      0.1677
     72  C        -34.2330   52.2970   51.5930 C.2   168  CYS168      0.2270
     73  O        -34.6220   51.5230   52.4740 O.2   168  CYS168     -0.2867
     74  CB       -34.5810   54.4540   52.8600 C.3   168  CYS168      0.0956
     75  SG       -32.8520   54.6320   53.3650 S.3   168  CYS168     -0.0801
     76  N        -31.1350   49.9370   52.1440 N.3   170  GLU170     -0.1245
     77  CA       -29.8490   50.0330   52.8550 C.3   170  GLU170      0.1567
     78  C        -28.9670   48.8240   52.6770 C.2   170  GLU170      0.2260
     79  O        -29.4650   47.6970   52.5650 O.2   170  GLU170     -0.2867
     80  CB       -30.0770   50.3160   54.3330 C.3   170  GLU170      0.0388
     81  CG       -31.1450   51.3740   54.5560 C.3   170  GLU170      0.1160
     82  CD       -31.1400   52.0360   55.9120 C.2   170  GLU170      0.3649
     83  OE1      -30.1870   51.8040   56.6850 O.co2 170  GLU170     -0.2457
     84  OE2      -32.0270   52.8820   56.1520 O.co2 170  GLU170     -0.2457
     85  N        -29.2530   44.6470   63.2180 N.3   177  LYS177     -0.1245
     86  CA       -29.6470   45.0200   64.5940 C.3   177  LYS177      0.1561
     87  C        -29.6340   43.7810   65.5070 C.2   177  LYS177      0.2260
     88  O        -29.2360   43.8730   66.6700 O.2   177  LYS177     -0.2867
     89  CB       -31.0320   45.6760   64.6150 C.3   177  LYS177      0.0271
     90  CG       -31.1070   46.9890   63.8650 C.3   177  LYS177      0.0035
     91  CD       -32.4530   47.6320   64.0760 C.3   177  LYS177      0.0206
     92  CE       -32.6400   48.8790   63.2590 C.3   177  LYS177      0.1093
     93  NZ       -33.9550   49.5150   63.5460 N.3   177  LYS177     -0.1314
     94  N        -40.4770   47.5240   63.5670 N.3   199  ASP199     -0.1239
     95  CA       -41.5450   47.7270   62.5790 C.3   199  ASP199      0.1674
     96  C        -41.0500   47.6310   61.1060 C.2   199  ASP199      0.2266
     97  O        -41.8560   47.7780   60.1820 O.2   199  ASP199     -0.2867
     98  CB       -42.2210   49.0890   62.8050 C.3   199  ASP199      0.1410
     99  CG       -41.3630   50.2680   62.4040 C.2   199  ASP199      0.3668
    100  OD1      -40.1340   50.2080   62.6180 O.co2 199  ASP199     -0.2456
    101  OD2      -41.9200   51.2640   61.9230 O.co2 199  ASP199     -0.2456
    102  N        -35.2820   46.0430   58.4960 N.3   201  ASN201     -0.1240
    103  CA       -33.9970   46.1330   59.1970 C.3   201  ASN201      0.1653
    104  C        -34.1160   45.6840   60.7030 C.2   201  ASN201      0.2266
    105  O        -33.1080   45.6500   61.4220 O.2   201  ASN201     -0.2867
    106  CB       -33.3970   47.5470   59.0700 C.3   201  ASN201      0.1155
    107  CG       -34.3140   48.6640   59.5130 C.2   201  ASN201      0.2627
    108  OD1      -35.5330   48.5770   59.4070 O.2   201  ASN201     -0.2716
    109  ND2      -33.7350   49.7910   59.8910 N.am  201  ASN201     -0.0877
@<TRIPOS>BOND
     1    70    71    1
     2    71    72    1
     3    71    74    1
     4    72    73    2
     5    76    77    1
     6    79    78    2
     7    78    77    1
     8    77    80    1
     9    74    75    1
    10    66    65    2
    11    65    64    1
    12    68    67    1
    13    80    81    1
    14    81    82    1
    15    67    64    1
    16    67    69    1
    17    64    63    1
    18    57    58    1
    19    63    59   am
    20    62    61    1
    21    82    84   ar
    22    82    83   ar
    23    59    58    1
    24    59    60    2
    25    58    61    1
    26   102   103    1
    27   106   103    1
    28   106   107    1
    29   103   104    1
    30   108   107    2
    31   107   109   am
    32    97    96    2
    33    37    36    2
    34   104   105    2
    35    96    95    1
    36    36    35    1
    37    36    38   am
    38    35    34    1
    39    56    54   ar
    40    26    25   ar
    41    26    24   ar
    42   101    99   ar
    43    25    23   ar
    44    38    39    1
    45    39    40    1
    46    39    42    1
    47    54    55   ar
    48    54    53    1
    49    99   100   ar
    50    99    98    1
    51    40    41    2
    52    34    29   am
    53    95    98    1
    54    95    94    1
    55    43    42    1
    56    43    44    1
    57    24    22   ar
    58    23    22   ar
    59    53    50    1
    60    85    86    1
    61    92    93    1
    62    92    91    1
    63    13    14    1
    64    13    10    1
    65    16    14   ar
    66    29    30    2
    67    29    28    1
    68    14    15   ar
    69    44    45    1
    70    22    21    1
    71    45    46    2
    72    12    11    2
    73    90    91    1
    74    90    89    1
    75    11    10    1
    76    32    31    1
    77     8     6   ar
    78    46    48    1
    79    46    47    1
    80    50    49    1
    81    50    51    1
    82    86    89    1
    83    86    87    1
    84    10     9    1
    85     7     6   ar
    86    28    31    1
    87    28    27    1
    88     6     5    1
    89    21    18    1
    90    31    33    1
    91    87    88    2
    92    51    52    2
    93    17    18    1
    94     5     2    1
    95    18    19    1
    96     2     3    1
    97     2     1    1
    98    19    20    2
    99     3     4    2
