@<TRIPOS>MOLECULE
tmp/3pgvA00.pdb
 101 92 0 0 0
SMALL
GASTEIGER

@<TRIPOS>ATOM
      1  N        -12.9000   37.5000   18.3770 N.3     7  ASP7       -0.1239
      2  CA       -13.7530   38.5710   18.8450 C.3     7  ASP7        0.1674
      3  C        -14.7260   37.9590   19.8980 C.2     7  ASP7        0.2266
      4  O        -14.8730   36.7300   19.9590 O.2     7  ASP7       -0.2867
      5  CB       -14.5380   39.1770   17.6540 C.3     7  ASP7        0.1410
      6  CG       -15.6170   40.1800   18.0400 C.2     7  ASP7        0.3668
      7  OD1      -15.3900   40.9660   18.9920 O.co2   7  ASP7       -0.2456
      8  OD2      -16.6790   40.1940   17.3730 O.co2   7  ASP7       -0.2456
      9  N        -18.2380   39.6390   21.4240 N.3     9  ASP9       -0.1239
     10  CA       -19.6420   39.8750   21.1120 C.3     9  ASP9        0.1674
     11  C        -19.9580   39.5040   19.6800 C.2     9  ASP9        0.2266
     12  O        -19.2970   39.9800   18.7610 O.2     9  ASP9       -0.2867
     13  CB       -20.0260   41.3340   21.3910 C.3     9  ASP9        0.1410
     14  CG       -19.7810   41.7400   22.8200 C.2     9  ASP9        0.3668
     15  OD1      -20.5620   41.3210   23.6940 O.co2   9  ASP9       -0.2456
     16  OD2      -18.7660   42.4170   23.0750 O.co2   9  ASP9       -0.2456
     17  N        -24.8700   37.0290   25.0990 N.3    17  HIS17      -0.1241
     18  CA       -23.6240   37.6120   25.6330 C.3    17  HIS17       0.1621
     19  C        -22.9530   36.7630   26.7100 C.2    17  HIS17       0.2264
     20  O        -22.2350   37.3030   27.5590 O.2    17  HIS17      -0.2867
     21  CB       -23.8480   39.0500   26.1260 C.3    17  HIS17       0.0745
     22  CG       -24.5580   39.9200   25.1410 C.ar   17  HIS17       0.0817
     23  ND1      -25.9530   39.9350   25.0610 N.ar   17  HIS17      -0.2268
     24  CD2      -24.0550   40.7740   24.2160 C.ar   17  HIS17       0.1154
     25  CE1      -26.2490   40.7860   24.0980 C.ar   17  HIS17       0.1986
     26  NE2      -25.1410   41.3330   23.5650 N.ar   17  HIS17      -0.2212
     27  N        -11.6140   42.6640   21.5640 N.3    41  THR41      -0.1203
     28  CA       -12.9110   43.3150   21.6380 C.3    41  THR41       0.1994
     29  C        -12.8070   44.8240   21.4900 C.2    41  THR41       0.2618
     30  O        -11.7330   45.4050   21.7080 O.2    41  THR41      -0.2717
     31  CB       -13.6240   42.9150   22.9460 C.3    41  THR41       0.1784
     32  OG1      -14.9090   43.5600   23.0060 O.3    41  THR41      -0.2211
     33  CG2      -12.7980   43.2510   24.1910 C.3    41  THR41       0.0376
     34  N        -13.9340   45.4490   21.1580 N.am   42  GLY42      -0.1942
     35  CA       -14.0700   46.8900   21.1590 C.3    42  GLY42       0.2014
     36  C        -14.3690   47.4130   22.5510 C.2    42  GLY42       0.2638
     37  O        -14.1510   48.5930   22.8400 O.2    42  GLY42      -0.2714
     38  N        -14.7940   46.5120   23.4550 N.am   43  ARG43      -0.1977
     39  CA       -15.1040   46.8670   24.8370 C.3    43  ARG43       0.1597
     40  C        -13.9090   47.4450   25.5650 C.2    43  ARG43       0.2287
     41  O        -12.7690   47.1310   25.2280 O.2    43  ARG43      -0.2864
     42  CB       -15.6050   45.6490   25.6080 C.3    43  ARG43       0.0334
     43  CG       -16.9700   45.1180   25.1880 C.3    43  ARG43       0.0492
     44  CD       -17.4260   44.1360   26.2320 C.3    43  ARG43       0.2205
     45  NE       -18.5850   43.3560   25.8280 N.pl3  43  ARG43      -0.0865
     46  CZ       -19.2440   42.5460   26.6530 C.cat  43  ARG43       0.5346
     47  NH1      -18.8750   42.4410   27.9250 N.pl3  43  ARG43       0.1354
     48  NH2      -20.2900   41.8500   26.2170 N.pl3  43  ARG43       0.1354
     49  N        -18.7050   49.2060   14.6620 N.3   168  SER168     -0.1202
     50  CA       -18.7820   47.9390   15.3850 C.3   168  SER168      0.2020
     51  C        -20.1880   47.3810   15.1140 C.2   168  SER168      0.2619
     52  O        -20.3500   46.5720   14.2000 O.2   168  SER168     -0.2717
     53  CB       -18.5230   48.1390   16.8820 C.3   168  SER168      0.2103
     54  OG       -19.3480   49.1500   17.4320 O.3   168  SER168     -0.2182
     55  N        -21.2180   47.9950   15.7180 N.am  169  THR169     -0.1952
     56  CA       -22.5990   47.7280   15.3440 C.3   169  THR169      0.1897
     57  C        -22.9830   48.7520   14.2660 C.2   169  THR169      0.2313
     58  O        -22.1740   49.6180   13.9480 O.2   169  THR169     -0.2863
     59  CB       -23.5250   47.8230   16.5720 C.3   169  THR169      0.1794
     60  OG1      -23.5450   49.1750   17.0470 O.3   169  THR169     -0.2208
     61  CG2      -23.1240   46.8570   17.6910 C.3   169  THR169      0.0378
     62  N        -22.9380   52.2720   15.9980 N.3   172  CYS172     -0.1235
     63  CA       -21.7510   52.7110   16.7210 C.3   172  CYS172      0.1677
     64  C        -20.5540   52.8590   15.7960 C.2   172  CYS172      0.2270
     65  O        -20.0070   51.8640   15.3280 O.2   172  CYS172     -0.2867
     66  CB       -21.4540   51.7720   17.8830 C.3   172  CYS172      0.0956
     67  SG       -20.1150   52.3320   18.9570 S.3   172  CYS172     -0.0801
     68  N        -16.7830   53.9870   15.4020 N.3   174  GLU174     -0.1245
     69  CA       -15.6320   54.1290   16.2960 C.3   174  GLU174      0.1567
     70  C        -14.4050   54.6880   15.6280 C.2   174  GLU174      0.2260
     71  O        -14.1650   54.4380   14.4330 O.2   174  GLU174     -0.2867
     72  CB       -15.3120   52.7910   16.9750 C.3   174  GLU174      0.0388
     73  CG       -16.5630   52.0830   17.4770 C.3   174  GLU174      0.1160
     74  CD       -16.3440   51.0000   18.5050 C.2   174  GLU174      0.3649
     75  OE1      -15.2090   50.8800   19.0170 O.co2 174  GLU174     -0.2457
     76  OE2      -17.3400   50.3610   18.8950 O.co2 174  GLU174     -0.2457
     77  N         -7.7330   45.5600   15.8360 N.3   181  LYS181     -0.1245
     78  CA        -7.6080   44.2410   16.4530 C.3   181  LYS181      0.1561
     79  C         -6.5090   43.4140   15.7590 C.2   181  LYS181      0.2260
     80  O         -5.7830   42.6680   16.4290 O.2   181  LYS181     -0.2867
     81  CB        -8.9370   43.4860   16.4190 C.3   181  LYS181      0.0271
     82  CG       -10.0450   44.1360   17.2230 C.3   181  LYS181      0.0035
     83  CD       -11.2640   43.2530   17.2260 C.3   181  LYS181      0.0206
     84  CE       -12.4530   43.8880   17.8780 C.3   181  LYS181      0.1093
     85  NZ       -13.5930   42.9560   17.9260 N.3   181  LYS181     -0.1314
     86  N        -17.1400   39.2280   13.4650 N.3   203  ASP203     -0.1239
     87  CA       -18.4460   39.4710   12.8230 C.3   203  ASP203      0.1674
     88  C        -18.6800   40.9560   12.4400 C.2   203  ASP203      0.2266
     89  O        -19.7360   41.2890   11.8890 O.2   203  ASP203     -0.2867
     90  CB       -19.5930   38.9840   13.7390 C.3   203  ASP203      0.1410
     91  CG       -19.8200   39.8600   14.9510 C.2   203  ASP203      0.3668
     92  OD1      -18.8230   40.3750   15.5090 O.co2 203  ASP203     -0.2456
     93  OD2      -20.9800   39.9830   15.3790 O.co2 203  ASP203     -0.2456
     94  N        -14.8270   46.1910   12.7180 N.3   205  ASN205     -0.1240
     95  CA       -13.6560   46.3230   13.6000 C.3   205  ASN205      0.1653
     96  C        -12.8550   44.9960   13.7120 C.2   205  ASN205      0.2266
     97  O        -11.7970   44.9650   14.3590 O.2   205  ASN205     -0.2867
     98  CB       -14.0560   46.8600   14.9740 C.3   205  ASN205      0.1155
     99  CG       -15.1540   46.0650   15.6710 C.2   205  ASN205      0.2627
    100  OD1      -16.0230   45.4570   15.0420 O.2   205  ASN205     -0.2716
    101  ND2      -15.1760   46.1260   16.9770 N.am  205  ASN205     -0.0877
@<TRIPOS>BOND
     1    89    88    2
     2    88    87    1
     3    94    95    1
     4    87    86    1
     5    87    90    1
     6    95    96    1
     7    95    98    1
     8    96    97    2
     9    90    91    1
    10    58    57    2
    11    52    51    2
    12    57    56    1
    13    71    70    2
    14    49    50    1
    15    91    93   ar
    16    91    92   ar
    17    98    99    1
    18   100    99    2
    19    51    50    1
    20    51    55   am
    21    65    64    2
    22    56    55    1
    23    56    59    1
    24    50    53    1
    25    68    69    1
    26    70    69    1
    27    99   101   am
    28    79    80    2
    29    79    78    1
    30    64    63    1
    31    77    78    1
    32    62    63    1
    33    69    72    1
    34    81    78    1
    35    81    82    1
    36    59    60    1
    37    59    61    1
    38    63    66    1
    39    53    54    1
    40    72    73    1
    41    82    83    1
    42    83    84    1
    43     8     6   ar
    44    73    74    1
    45     5     6    1
    46     5     2    1
    47    84    85    1
    48    66    67    1
    49     6     7   ar
    50     1     2    1
    51    74    76   ar
    52    74    75   ar
    53    12    11    2
    54     2     3    1
    55    11    10    1
    56     3     4    2
    57    10    13    1
    58    10     9    1
    59    34    35    1
    60    34    29   am
    61    35    36    1
    62    13    14    1
    63    29    28    1
    64    29    30    2
    65    27    28    1
    66    28    31    1
    67    36    37    2
    68    36    38   am
    69    14    16   ar
    70    14    15   ar
    71    31    32    1
    72    31    33    1
    73    38    39    1
    74    26    25   ar
    75    26    24   ar
    76    25    23   ar
    77    24    22   ar
    78    39    40    1
    79    39    42    1
    80    23    22   ar
    81    17    18    1
    82    22    21    1
    83    43    42    1
    84    43    44    1
    85    41    40    2
    86    18    21    1
    87    18    19    1
    88    45    44    1
    89    45    46    2
    90    48    46    1
    91    46    47    1
    92    19    20    2
