@<TRIPOS>MOLECULE
tmp/3pgyB00.pdb
 83 79 0 0 0
SMALL
GASTEIGER

@<TRIPOS>ATOM
      1  N        -23.1510   -2.6610   30.2500 N.3    32  GLU32      -0.1245
      2  CA       -22.5600   -3.5560   31.2790 C.3    32  GLU32       0.1567
      3  C        -21.5410   -4.5920   30.7190 C.2    32  GLU32       0.2260
      4  O        -21.4230   -4.7590   29.5210 O.2    32  GLU32      -0.2867
      5  CB       -23.6540   -4.2320   32.0570 C.3    32  GLU32       0.0388
      6  CG       -24.6320   -3.2300   32.7520 C.3    32  GLU32       0.1160
      7  CD       -23.9210   -2.1120   33.4980 C.2    32  GLU32       0.3649
      8  OE1      -24.2420   -0.9130   33.1710 O.co2  32  GLU32      -0.2457
      9  OE2      -23.0570   -2.4560   34.3920 O.co2  32  GLU32      -0.2457
     10  N        -18.7080    6.1770   42.9170 N.3    93  SER93      -0.1202
     11  CA       -19.6370    5.8210   41.8460 C.3    93  SER93       0.2020
     12  C        -19.6990    6.9830   40.8580 C.2    93  SER93       0.2619
     13  O        -19.2280    8.0960   41.1030 O.2    93  SER93      -0.2717
     14  CB       -21.0530    5.5660   42.3710 C.3    93  SER93       0.2103
     15  OG       -21.6290    6.7940   42.8870 O.3    93  SER93      -0.2182
     16  N        -20.2650    6.7010   39.7180 N.am   94  GLY94      -0.1942
     17  CA       -20.5400    7.7290   38.7400 C.3    94  GLY94       0.1998
     18  C        -21.3020    8.8870   39.3220 C.2    94  GLY94       0.2480
     19  O        -20.9030   10.0190   39.1220 O.2    94  GLY94      -0.2729
     20  N        -22.3850    8.6180   40.0800 N.am   95  PRO95      -0.2726
     21  CA       -23.1430    9.7260   40.6710 C.3    95  PRO95       0.1402
     22  C        -22.3860   10.5670   41.6900 C.2    95  PRO95       0.2269
     23  O        -22.6220   11.7690   41.7760 O.2    95  PRO95      -0.2865
     24  CB       -24.3080    9.0160   41.3540 C.3    95  PRO95       0.0296
     25  CG       -24.5460    7.8390   40.4800 C.3    95  PRO95       0.0237
     26  CD       -23.1980    7.3810   40.0020 C.3    95  PRO95       0.0939
     27  N        -24.0160   11.3330   29.3590 N.3   164  ALA164     -0.1245
     28  CA       -24.8970   10.8350   30.4300 C.3   164  ALA164      0.1562
     29  C        -25.9590    9.8400   29.9440 C.2   164  ALA164      0.2260
     30  O        -26.0670    8.7370   30.4730 O.2   164  ALA164     -0.2867
     31  CB       -25.5380   12.0180   31.2240 C.3   164  ALA164      0.0290
     32  N        -19.7340    7.9380   30.7860 N.3   192  ALA192     -0.1231
     33  CA       -19.8080    6.6040   31.3750 C.3   192  ALA192      0.1694
     34  C        -20.0920    5.5380   30.3470 C.2   192  ALA192      0.2592
     35  O        -19.4280    4.4760   30.3400 O.2   192  ALA192     -0.2718
     36  CB       -20.8560    6.5300   32.5290 C.3   192  ALA192      0.0304
     37  N        -21.0690    5.7780   29.4860 N.am  193  HIS193     -0.1976
     38  CA       -21.3910    4.7730   28.4430 C.3   193  HIS193      0.1656
     39  C        -20.2730    4.5030   27.4220 C.2   193  HIS193      0.2291
     40  O        -20.1010    3.3590   27.0030 O.2   193  HIS193     -0.2864
     41  CB       -22.6490    5.1710   27.7260 C.3   193  HIS193      0.0771
     42  CG       -23.8620    5.0190   28.5850 C.ar  193  HIS193      0.0820
     43  ND1      -24.3470    3.7830   28.9370 N.ar  193  HIS193     -0.2267
     44  CD2      -24.6460    5.9310   29.2130 C.ar  193  HIS193      0.1154
     45  CE1      -25.3940    3.9360   29.7260 C.ar  193  HIS193      0.1986
     46  NE2      -25.6170    5.2290   29.8870 N.ar  193  HIS193     -0.2212
     47  N        -17.9540    6.3560   34.8310 N.3   216  THR216     -0.1218
     48  CA       -17.8560    5.1730   35.6310 C.3   216  THR216      0.1862
     49  C        -16.5800    4.4660   35.1600 C.2   216  THR216      0.2287
     50  O        -16.1300    4.6650   34.0300 O.2   216  THR216     -0.2866
     51  CB       -19.0420    4.2220   35.4550 C.3   216  THR216      0.1770
     52  OG1      -19.2820    3.9960   34.0660 O.3   216  THR216     -0.2211
     53  CG2      -20.3260    4.8240   36.1210 C.3   216  THR216      0.0375
     54  N        -16.5830    1.0750   35.3580 N.3   218  HIS218     -0.1226
     55  CA       -17.1780   -0.1060   34.7780 C.3   218  HIS218      0.1752
     56  C        -17.8850    0.3090   33.4860 C.2   218  HIS218      0.2595
     57  O        -17.8580    1.4940   33.1250 O.2   218  HIS218     -0.2718
     58  CB       -18.1530   -0.8050   35.7800 C.3   218  HIS218      0.0759
     59  CG       -19.2900    0.0520   36.2530 C.ar  218  HIS218      0.0818
     60  ND1      -19.1250    1.2000   37.0140 N.ar  218  HIS218     -0.2268
     61  CD2      -20.6280   -0.1010   36.0960 C.ar  218  HIS218      0.1154
     62  CE1      -20.3100    1.7150   37.2870 C.ar  218  HIS218      0.1986
     63  NE2      -21.2350    0.9480   36.7390 N.ar  218  HIS218     -0.2212
     64  N        -18.5550   -0.6510   32.8390 N.am  219  LYS219     -0.1980
     65  CA       -19.2420   -0.4690   31.5590 C.3   219  LYS219      0.1596
     66  C        -18.2660   -0.7350   30.3950 C.2   219  LYS219      0.2287
     67  O        -17.5170   -1.7320   30.4230 O.2   219  LYS219     -0.2864
     68  CB       -20.0380    0.8700   31.4630 C.3   219  LYS219      0.0298
     69  CG       -21.0510    1.0960   32.5780 C.3   219  LYS219      0.0038
     70  CD       -21.9950    2.2580   32.2620 C.3   219  LYS219      0.0206
     71  CE       -22.7150    2.8450   33.5010 C.3   219  LYS219      0.1093
     72  NZ       -23.7700    1.8910   34.0480 N.3   219  LYS219     -0.1314
     73  N        -16.7410   -1.4190   39.4660 N.3   225  ARG225     -0.1245
     74  CA       -17.7680   -0.3940   39.6220 C.3   225  ARG225      0.1563
     75  C        -17.2590    0.7200   40.4930 C.2   225  ARG225      0.2260
     76  O        -16.7880    0.4940   41.6170 O.2   225  ARG225     -0.2867
     77  CB       -19.0280   -0.9610   40.2860 C.3   225  ARG225      0.0307
     78  CG       -19.6290   -2.0850   39.5310 C.3   225  ARG225      0.0489
     79  CD       -21.0720   -2.4040   40.0250 C.3   225  ARG225      0.2205
     80  NE       -22.0810   -1.7500   39.2140 N.pl3 225  ARG225     -0.0865
     81  CZ       -22.4400   -2.1540   37.9910 C.cat 225  ARG225      0.5346
     82  NH1      -21.8730   -3.2110   37.3890 N.pl3 225  ARG225      0.1354
     83  NH2      -23.3890   -1.5110   37.3620 N.pl3 225  ARG225      0.1354
@<TRIPOS>BOND
     1    40    39    2
     2    39    38    1
     3    41    38    1
     4    41    42    1
     5    38    37    1
     6    42    43   ar
     7    42    44   ar
     8    43    45   ar
     9    44    46   ar
    10    27    28    1
    11    37    34   am
    12     4     3    2
    13    45    46   ar
    14    29    28    1
    15    29    30    2
    16     1     2    1
    17    35    34    2
    18    34    33    1
    19    66    67    2
    20    66    65    1
    21    28    31    1
    22     3     2    1
    23    32    33    1
    24     2     5    1
    25    33    36    1
    26    68    65    1
    27    68    69    1
    28    65    64    1
    29     5     6    1
    30    70    69    1
    31    70    71    1
    32     6     7    1
    33    64    56   am
    34    57    56    2
    35     8     7   ar
    36    56    55    1
    37     7     9   ar
    38    71    72    1
    39    50    49    2
    40    52    51    1
    41    55    54    1
    42    55    58    1
    43    47    48    1
    44    49    48    1
    45    51    48    1
    46    51    53    1
    47    58    59    1
    48    61    59   ar
    49    61    63   ar
    50    59    60   ar
    51    63    62   ar
    52    60    62   ar
    53    83    81    1
    54    82    81    1
    55    81    80    2
    56    17    18    1
    57    17    16    1
    58    19    18    2
    59    80    79    1
    60    18    20   am
    61    73    74    1
    62    78    79    1
    63    78    77    1
    64    74    77    1
    65    74    75    1
    66    16    12   am
    67    26    20    1
    68    26    25    1
    69    20    21    1
    70    25    24    1
    71    75    76    2
    72    21    24    1
    73    21    22    1
    74    12    13    2
    75    12    11    1
    76    22    23    2
    77    11    14    1
    78    11    10    1
    79    14    15    1
