@<TRIPOS>MOLECULE
tmp/3ph2A00.pdb
 213 201 0 0 0
SMALL
GASTEIGER

@<TRIPOS>ATOM
      1  N         23.2710   -2.7330   -3.3540 N.3     9  VAL9       -0.1231
      2  CA        23.5530   -4.0490   -2.8130 C.3     9  VAL9        0.1692
      3  C         22.3090   -4.5670   -2.0830 C.2     9  VAL9        0.2592
      4  O         21.9280   -5.7150   -2.2470 O.2     9  VAL9       -0.2718
      5  CB        24.7850   -4.0350   -1.8740 C.3     9  VAL9        0.0266
      6  CG1       24.9040   -5.3520   -1.1150 C.3     9  VAL9        0.0020
      7  CG2       26.0590   -3.7280   -2.6700 C.3     9  VAL9        0.0020
      8  N         21.6430   -3.7170   -1.3100 N.am   10  PHE10      -0.1976
      9  CA        20.4410   -4.1480   -0.6020 C.3    10  PHE10       0.1639
     10  C         19.3460   -4.6230   -1.5590 C.2    10  PHE10       0.2290
     11  O         18.7590   -5.6920   -1.3690 O.2    10  PHE10      -0.2864
     12  CB        19.9070   -3.0460    0.3130 C.3    10  PHE10       0.0560
     13  CG        18.8460   -3.5220    1.2520 C.ar   10  PHE10      -0.0200
     14  CD1       19.1830   -4.0130    2.5040 C.ar   10  PHE10      -0.0042
     15  CD2       17.5230   -3.5290    0.8660 C.ar   10  PHE10      -0.0042
     16  CE1       18.2160   -4.4710    3.3680 C.ar   10  PHE10      -0.0003
     17  CE2       16.5560   -3.9830    1.7310 C.ar   10  PHE10      -0.0003
     18  CZ        16.9030   -4.4480    2.9860 C.ar   10  PHE10      -0.0000
     19  N         20.5000   -8.0730   -3.1830 N.3    13  ASN13      -0.1225
     20  CA        20.8990   -9.1830   -2.3160 C.3    13  ASN13       0.1785
     21  C         20.0660   -9.3950   -1.0600 C.2    13  ASN13       0.2597
     22  O         20.1180  -10.4790   -0.4780 O.2    13  ASN13      -0.2718
     23  CB        22.3490   -8.9870   -1.8700 C.3    13  ASN13       0.1169
     24  CG        23.3260   -8.9980   -3.0190 C.2    13  ASN13       0.2627
     25  OD1       23.8120  -10.0540   -3.4160 O.2    13  ASN13      -0.2716
     26  ND2       23.6130   -7.8240   -3.5630 N.am   13  ASN13      -0.0877
     27  N         19.3430   -8.3730   -0.6020 N.am   14  CYS14      -0.1970
     28  CA        18.7050   -8.4330    0.7200 C.3    14  CYS14       0.1712
     29  C         17.1980   -8.2740    0.6800 C.2    14  CYS14       0.2296
     30  O         16.4990   -8.8330    1.5150 O.2    14  CYS14      -0.2864
     31  CB        19.2720   -7.3430    1.6390 C.3    14  CYS14       0.0983
     32  SG        21.0540   -7.1190    1.5320 S.3    14  CYS14      -0.0798
     33  N         15.0060   -9.4330   -1.2140 N.3    16  ALA16      -0.1231
     34  CA        14.3620  -10.7270   -1.4500 C.3    16  ALA16       0.1694
     35  C         13.8270  -11.3890   -0.1820 C.2    16  ALA16       0.2592
     36  O         12.9120  -12.2060   -0.2660 O.2    16  ALA16      -0.2718
     37  CB        15.3280  -11.6770   -2.1510 C.3    16  ALA16       0.0304
     38  N         14.4240  -11.0730    0.9700 N.am   17  CYS17      -0.1956
     39  CA        13.9560  -11.5740    2.2630 C.3    17  CYS17       0.1843
     40  C         13.5990  -10.5050    3.3070 C.2    17  CYS17       0.2625
     41  O         12.9300  -10.8150    4.2950 O.2    17  CYS17      -0.2714
     42  CB        15.0080  -12.5040    2.8630 C.3    17  CYS17       0.0997
     43  SG        15.3910  -13.9230    1.8370 S.3    17  CYS17      -0.0797
     44  N         14.0380   -9.2630    3.1100 N.am   18  HIS18      -0.1973
     45  CA        13.8600   -8.2020    4.1090 C.3    18  HIS18       0.1656
     46  C         13.0490   -6.9860    3.5980 C.2    18  HIS18       0.2291
     47  O         12.9360   -5.9850    4.3100 O.2    18  HIS18      -0.2864
     48  CB        15.2410   -7.7130    4.5850 C.3    18  HIS18       0.0771
     49  CG        16.0030   -8.7150    5.4000 C.ar   18  HIS18       0.0820
     50  ND1       15.6250   -9.0830    6.6690 N.ar   18  HIS18      -0.2267
     51  CD2       17.1530   -9.3830    5.1430 C.ar   18  HIS18       0.1154
     52  CE1       16.4960   -9.9550    7.1520 C.ar   18  HIS18       0.1986
     53  NE2       17.4360  -10.1540    6.2450 N.ar   18  HIS18      -0.2212
     54  N          9.7220   -7.6520    6.9410 N.3    23  ASN23      -0.1240
     55  CA        10.1310   -8.8040    6.1380 C.3    23  ASN23       0.1653
     56  C          8.8970   -9.5800    5.6880 C.2    23  ASN23       0.2266
     57  O          7.8620   -9.5530    6.3600 O.2    23  ASN23      -0.2867
     58  CB        11.0600   -9.7060    6.9370 C.3    23  ASN23       0.1155
     59  CG        12.4330   -9.0830    7.1120 C.2    23  ASN23       0.2627
     60  OD1       13.4140   -9.7960    7.3540 O.2    23  ASN23      -0.2716
     61  ND2       12.5090   -7.7320    7.0680 N.am   23  ASN23      -0.0877
     62  N          8.1340  -12.4610    8.2490 N.3    26  ASN26      -0.1240
     63  CA         8.4990  -12.0060    9.5920 C.3    26  ASN26       0.1653
     64  C          7.7730  -10.7470   10.0740 C.2    26  ASN26       0.2266
     65  O          7.0860  -10.0690    9.3050 O.2    26  ASN26      -0.2867
     66  CB         9.9880  -11.7770    9.6430 C.3    26  ASN26       0.1155
     67  CG        10.7470  -12.8940    9.0150 C.2    26  ASN26       0.2627
     68  OD1       11.3850  -12.7210    7.9510 O.2    26  ASN26      -0.2716
     69  ND2       10.6180  -14.0950    9.5890 N.am   26  ASN26      -0.0877
     70  N          9.1380   -9.0830   13.7010 N.3    28  GLU28      -0.1231
     71  CA        10.3680   -8.5510   14.3080 C.3    28  GLU28       0.1699
     72  C         11.5930   -9.2320   13.7070 C.2    28  GLU28       0.2592
     73  O         12.7040   -9.1160   14.2350 O.2    28  GLU28      -0.2718
     74  CB        10.3590   -8.7400   15.8100 C.3    28  GLU28       0.0402
     75  CG         9.0790   -8.1650   16.4040 C.3    28  GLU28       0.1161
     76  CD         9.0520   -6.6640   16.5130 C.2    28  GLU28       0.3649
     77  OE1       10.0490   -6.0440   16.1360 O.co2  28  GLU28      -0.2457
     78  OE2        8.0200   -6.0950   16.9840 O.co2  28  GLU28      -0.2457
     79  N         11.3770   -9.9700   12.6190 N.am   29  LYS29      -0.1966
     80  CA        12.4660  -10.4840   11.8150 C.3    29  LYS29       0.1728
     81  C         12.8680   -9.4500   10.7600 C.2    29  LYS29       0.2617
     82  O         13.7750   -9.6810    9.9660 O.2    29  LYS29      -0.2715
     83  CB        12.0720  -11.7970   11.1640 C.3    29  LYS29       0.0311
     84  CG        12.2020  -12.8870   12.2590 C.3    29  LYS29       0.0038
     85  CD        13.4800  -12.8630   13.2050 C.3    29  LYS29       0.0206
     86  CE        14.8890  -13.2760   12.6500 C.3    29  LYS29       0.1093
     87  NZ        15.5050  -12.3710   11.6810 N.3    29  LYS29      -0.1314
     88  N         12.1970   -8.3040   10.7460 N.am   30  THR30      -0.1937
     89  CA        12.6380   -7.2010    9.9170 C.3    30  THR30       0.2028
     90  C         13.8990   -6.6030   10.5460 C.2    30  THR30       0.2642
     91  O         14.4130   -7.1140   11.5490 O.2    30  THR30      -0.2714
     92  CB        11.5390   -6.1640    9.7780 C.3    30  THR30       0.1808
     93  OG1       12.0290   -5.0850    8.9910 O.3    30  THR30      -0.2208
     94  CG2       11.0680   -5.5880   11.1030 C.3    30  THR30       0.0379
     95  N         14.3940   -5.5290    9.9540 N.am   31  LEU31      -0.1977
     96  CA        15.6330   -4.9110   10.3920 C.3    31  LEU31       0.1596
     97  C         15.3280   -3.6230   11.1620 C.2    31  LEU31       0.2287
     98  O         16.0080   -2.6130   11.0100 O.2    31  LEU31      -0.2864
     99  CB        16.5220   -4.6550    9.1740 C.3    31  LEU31       0.0297
    100  CG        16.7830   -5.9070    8.3220 C.3    31  LEU31       0.0022
    101  CD1       17.4140   -5.5130    6.9900 C.3    31  LEU31       0.0001
    102  CD2       17.6550   -6.9000    9.0850 C.3    31  LEU31       0.0001
    103  N         14.8870   -4.4450   17.2110 N.3    35  ALA35      -0.1231
    104  CA        15.2250   -5.8580   16.9960 C.3    35  ALA35       0.1694
    105  C         16.7310   -6.0550   16.8960 C.2    35  ALA35       0.2591
    106  O         17.2800   -6.9910   17.4710 O.2    35  ALA35      -0.2718
    107  CB        14.5350   -6.3910   15.7460 C.3    35  ALA35       0.0304
    108  N         17.3890   -5.1690   16.1510 N.am   36  LEU36      -0.1980
    109  CA        18.8440   -5.1940   16.0340 C.3    36  LEU36       0.1596
    110  C         19.5170   -4.9800   17.3940 C.2    36  LEU36       0.2287
    111  O         20.4770   -5.6530   17.7380 O.2    36  LEU36      -0.2864
    112  CB        19.3240   -4.1420   15.0260 C.3    36  LEU36       0.0297
    113  CG        18.9090   -4.3540   13.5700 C.3    36  LEU36       0.0022
    114  CD1       19.2900   -3.1590   12.7160 C.3    36  LEU36       0.0001
    115  CD2       19.5230   -5.6370   13.0320 C.3    36  LEU36       0.0001
    116  N         20.1280   -8.0680   20.3000 N.3    39  PHE39      -0.1241
    117  CA        21.3190   -8.9120   20.2470 C.3    39  PHE39       0.1605
    118  C         22.6020   -8.1550   19.9020 C.2    39  PHE39       0.2264
    119  O         23.5940   -8.7420   19.4830 O.2    39  PHE39      -0.2867
    120  CB        21.0680  -10.1020   19.3090 C.3    39  PHE39       0.0534
    121  CG        20.1370  -11.1260   19.8900 C.ar   39  PHE39      -0.0203
    122  CD1       20.6070  -12.0350   20.8210 C.ar   39  PHE39      -0.0042
    123  CD2       18.7930  -11.1660   19.5330 C.ar   39  PHE39      -0.0042
    124  CE1       19.7610  -12.9830   21.3840 C.ar   39  PHE39      -0.0003
    125  CE2       17.9380  -12.1110   20.0940 C.ar   39  PHE39      -0.0003
    126  CZ        18.4240  -13.0210   21.0220 C.ar   39  PHE39      -0.0000
    127  N         23.2680   -6.0260   17.5510 N.3    41  MET41      -0.1245
    128  CA        23.5500   -6.0580   16.1220 C.3    41  MET41       0.1570
    129  C         23.5220   -4.6880   15.4540 C.2    41  MET41       0.2261
    130  O         23.8100   -4.6020   14.2780 O.2    41  MET41      -0.2867
    131  CB        22.5770   -7.0110   15.4320 C.3    41  MET41       0.0387
    132  CG        22.7660   -8.4640   15.8730 C.3    41  MET41       0.0595
    133  SD        24.3870   -9.1340   15.4940 S.3    41  MET41      -0.1393
    134  CE        24.3660   -9.0130   13.7290 C.3    41  MET41       0.0692
    135  N         26.9220   -5.9120   11.8530 N.3    47  ILE47      -0.1245
    136  CA        26.2390   -6.2350   10.6000 C.3    47  ILE47       0.1561
    137  C         27.2340   -6.7680    9.5660 C.2    47  ILE47       0.2260
    138  O         26.9250   -7.7100    8.8490 O.2    47  ILE47      -0.2867
    139  CB        25.4320   -5.0420   10.0430 C.3    47  ILE47       0.0252
    140  CG1       24.2660   -4.7150   10.9810 C.3    47  ILE47       0.0019
    141  CG2       24.8930   -5.3570    8.6470 C.3    47  ILE47       0.0019
    142  CD1       23.4960   -3.4660   10.6120 C.3    47  ILE47       0.0001
    143  N         27.8810  -10.5040   10.4430 N.3    50  VAL50      -0.1231
    144  CA        26.7770  -11.4380   10.1930 C.3    50  VAL50       0.1692
    145  C         26.5330  -11.6030    8.6880 C.2    50  VAL50       0.2591
    146  O         26.2930  -12.7090    8.2230 O.2    50  VAL50      -0.2718
    147  CB        25.4900  -11.0470   10.9600 C.3    50  VAL50       0.0266
    148  CG1       24.7750   -9.8630   10.3180 C.3    50  VAL50       0.0020
    149  CG2       24.5730  -12.2550   11.1070 C.3    50  VAL50       0.0020
    150  N         26.6640  -10.5320    7.9200 N.am   51  VAL51      -0.1980
    151  CA        26.4670  -10.6130    6.4810 C.3    51  VAL51       0.1595
    152  C         27.6130  -11.4040    5.8220 C.2    51  VAL51       0.2287
    153  O         27.3830  -12.2210    4.9330 O.2    51  VAL51      -0.2864
    154  CB        26.3170   -9.2050    5.8520 C.3    51  VAL51       0.0276
    155  CG1       26.3820   -9.2650    4.3240 C.3    51  VAL51       0.0022
    156  CG2       24.9880   -8.5760    6.3110 C.3    51  VAL51       0.0022
    157  N         25.1480  -16.6250    9.9510 N.3    55  LYS55      -0.1245
    158  CA        24.7760  -17.1540   11.2980 C.3    55  LYS55       0.1561
    159  C         23.4250  -17.8500   11.4100 C.2    55  LYS55       0.2260
    160  O         22.4480  -17.3370   10.9090 O.2    55  LYS55      -0.2867
    161  CB        24.7180  -15.9590   12.2600 C.3    55  LYS55       0.0271
    162  CG        24.4420  -16.2630   13.7120 C.3    55  LYS55       0.0035
    163  CD        24.7530  -15.0310   14.5830 C.3    55  LYS55       0.0206
    164  CE        23.7140  -13.9330   14.4110 C.3    55  LYS55       0.1093
    165  NZ        24.1210  -12.6210   15.0130 N.3    55  LYS55      -0.1314
    166  N         21.1520  -18.0380    8.4710 N.3    58  MET58      -0.1231
    167  CA        21.1570  -16.8050    7.6690 C.3    58  MET58       0.1687
    168  C         22.3370  -16.9270    6.6970 C.2    58  MET58       0.2434
    169  O         23.4500  -17.2210    7.1250 O.2    58  MET58      -0.2733
    170  CB        21.3470  -15.5490    8.5390 C.3    58  MET58       0.0400
    171  CG        20.4140  -15.3540    9.7440 C.3    58  MET58       0.0596
    172  SD        20.9780  -14.0800   10.9110 S.3    58  MET58      -0.1393
    173  CE        20.3700  -14.7690   12.4470 C.3    58  MET58       0.0692
    174  N         22.1030  -16.7400    5.3870 N.am   59  PRO59      -0.2729
    175  CA        23.1850  -17.0300    4.4210 C.3    59  PRO59       0.1401
    176  C         24.4180  -16.1190    4.5010 C.2    59  PRO59       0.2269
    177  O         24.3050  -14.9140    4.7320 O.2    59  PRO59      -0.2865
    178  CB        22.4860  -16.9070    3.0570 C.3    59  PRO59       0.0296
    179  CG        21.3150  -16.0410    3.3140 C.3    59  PRO59       0.0237
    180  CD        20.8530  -16.3580    4.7080 C.3    59  PRO59       0.0939
    181  N         27.4950  -14.1330    2.8070 N.3    61  PHE61      -0.1241
    182  CA        27.7220  -13.4020    1.5450 C.3    61  PHE61       0.1605
    183  C         29.2070  -13.2420    1.1640 C.2    61  PHE61       0.2264
    184  O         29.5170  -12.6080    0.1520 O.2    61  PHE61      -0.2867
    185  CB        27.0160  -12.0370    1.5970 C.3    61  PHE61       0.0534
    186  CG        25.5200  -12.1300    1.4660 C.ar   61  PHE61      -0.0203
    187  CD1       24.7280  -12.3910    2.5740 C.ar   61  PHE61      -0.0042
    188  CD2       24.9000  -11.9970    0.2210 C.ar   61  PHE61      -0.0042
    189  CE1       23.3440  -12.5040    2.4440 C.ar   61  PHE61      -0.0003
    190  CE2       23.5220  -12.1210    0.0870 C.ar   61  PHE61      -0.0003
    191  CZ        22.7420  -12.3730    1.2010 C.ar   61  PHE61      -0.0000
    192  N         29.7450  -11.1220   -2.3340 N.3    65  LEU65      -0.1245
    193  CA        29.9340   -9.6840   -2.1030 C.3    65  LEU65       0.1561
    194  C         31.3620   -9.4160   -1.6320 C.2    65  LEU65       0.2260
    195  O         31.9020  -10.1680   -0.8410 O.2    65  LEU65      -0.2867
    196  CB        28.9530   -9.1610   -1.0400 C.3    65  LEU65       0.0270
    197  CG        27.4670   -9.1260   -1.4150 C.3    65  LEU65       0.0019
    198  CD1       26.5940   -8.6440   -0.2400 C.3    65  LEU65       0.0001
    199  CD2       27.2260   -8.2650   -2.6610 C.3    65  LEU65       0.0001
    200  N         26.4980   -2.0410    2.4590 N.3    73  VAL73      -0.1245
    201  CA        25.1390   -2.4470    2.8020 C.3    73  VAL73       0.1561
    202  C         24.9170   -2.3720    4.3200 C.2    73  VAL73       0.2260
    203  O         23.8000   -2.0920    4.7700 O.2    73  VAL73      -0.2867
    204  CB        24.7750   -3.8420    2.2310 C.3    73  VAL73       0.0252
    205  CG1       25.4310   -5.0240    3.0170 C.3    73  VAL73       0.0019
    206  CG2       23.2670   -3.9890    2.1720 C.3    73  VAL73       0.0019
    207  N         21.7570   -0.4040    5.9240 N.3    77  VAL77      -0.1245
    208  CA        20.8260   -1.0030    6.8810 C.3    77  VAL77       0.1561
    209  C         20.7290   -0.1550    8.1450 C.2    77  VAL77       0.2260
    210  O         19.6320    0.1130    8.6330 O.2    77  VAL77      -0.2867
    211  CB        21.2320   -2.4440    7.2460 C.3    77  VAL77       0.0252
    212  CG1       20.4120   -2.9520    8.4060 C.3    77  VAL77       0.0019
    213  CG2       21.0700   -3.3400    6.0300 C.3    77  VAL77       0.0019
@<TRIPOS>BOND
     1    26    24   am
     2    25    24    2
     3     1     2    1
     4    19    20    1
     5    24    23    1
     6     2     3    1
     7     2     5    1
     8     7     5    1
     9   199   197    1
    10   192   193    1
    11    20    23    1
    12    20    21    1
    13     4     3    2
    14    37    34    1
    15   193   194    1
    16   193   196    1
    17     3     8   am
    18     5     6    1
    19   194   195    2
    20    10    11    2
    21    10     9    1
    22    34    33    1
    23    34    35    1
    24   197   196    1
    25   197   198    1
    26     8     9    1
    27    21    27   am
    28    21    22    2
    29    27    28    1
    30     9    12    1
    31    36    35    2
    32    35    38   am
    33   190   188   ar
    34   190   191   ar
    35   184   183    2
    36   188   186   ar
    37    12    13    1
    38    29    28    1
    39    29    30    2
    40    28    31    1
    41    15    13   ar
    42    15    17   ar
    43    38    39    1
    44   183   182    1
    45   191   189   ar
    46    13    14   ar
    47   186   185    1
    48   186   187   ar
    49    32    31    1
    50   182   185    1
    51   182   181    1
    52    17    18   ar
    53    43    42    1
    54   206   204    1
    55   204   201    1
    56   204   205    1
    57    39    42    1
    58    39    40    1
    59   189   187   ar
    60   200   201    1
    61    14    16   ar
    62   201   202    1
    63    18    16   ar
    64   178   179    1
    65   178   175    1
    66    44    40   am
    67    44    45    1
    68    40    41    2
    69   179   180    1
    70    46    45    1
    71    46    47    2
    72    45    48    1
    73   202   203    2
    74   155   154    1
    75   175   176    1
    76   175   174    1
    77   176   177    2
    78    48    49    1
    79   180   174    1
    80   153   152    2
    81    51    49   ar
    82    51    53   ar
    83   174   168   am
    84    49    50   ar
    85    56    55    1
    86    56    57    2
    87   152   151    1
    88   154   156    1
    89   154   151    1
    90   207   208    1
    91   213   211    1
    92    55    58    1
    93    55    54    1
    94    53    52   ar
    95   151   150    1
    96    50    52   ar
    97   168   169    2
    98   168   167    1
    99   208   211    1
   100   208   209    1
   101    58    59    1
   102   101   100    1
   103    61    59   am
   104    59    60    2
   105   211   212    1
   106   167   166    1
   107   167   170    1
   108   150   145   am
   109    68    67    2
   110   209   210    2
   111   146   145    2
   112    62    63    1
   113   100   102    1
   114   100    99    1
   115   170   171    1
   116   141   139    1
   117   145   144    1
   118   138   137    2
   119    93    92    1
   120    67    69   am
   121    67    66    1
   122    99    96    1
   123    65    64    2
   124   137   136    1
   125    63    66    1
   126    63    64    1
   127   171   172    1
   128    92    89    1
   129    92    94    1
   130    89    90    1
   131    89    88    1
   132   157   158    1
   133    95    96    1
   134    95    90   am
   135    82    81    2
   136   139   136    1
   137   139   140    1
   138   144   143    1
   139   144   147    1
   140   148   147    1
   141    96    97    1
   142    90    91    2
   143   136   135    1
   144   142   140    1
   145    88    81   am
   146    81    80    1
   147   160   159    2
   148   172   173    1
   149   147   149    1
   150    98    97    2
   151    83    80    1
   152    83    84    1
   153   158   159    1
   154   158   161    1
   155    87    86    1
   156    80    79    1
   157    84    85    1
   158   161   162    1
   159    79    72   am
   160    86    85    1
   161   114   113    1
   162   115   113    1
   163   113   112    1
   164    70    71    1
   165    72    73    2
   166    72    71    1
   167   162   163    1
   168   134   133    1
   169   130   129    2
   170    71    74    1
   171   164   163    1
   172   164   165    1
   173   112   109    1
   174   131   132    1
   175   131   128    1
   176   129   128    1
   177   133   132    1
   178   107   104    1
   179    74    75    1
   180   109   108    1
   181   109   110    1
   182   128   127    1
   183    77    76   ar
   184   108   105   am
   185    75    76    1
   186    76    78   ar
   187   105   104    1
   188   105   106    2
   189   104   103    1
   190   110   111    2
   191   120   121    1
   192   120   117    1
   193   119   118    2
   194   123   121   ar
   195   123   125   ar
   196   121   122   ar
   197   118   117    1
   198   125   126   ar
   199   117   116    1
   200   122   124   ar
   201   126   124   ar
