@<TRIPOS>MOLECULE
tmp/3ph3A00.pdb
 74 71 0 0 0
SMALL
GASTEIGER

@<TRIPOS>ATOM
      1  N         10.1650  -16.0630  -10.7580 N.3     8  ASP8       -0.1225
      2  CA        10.7660  -14.7260  -10.6150 C.3     8  ASP8        0.1805
      3  C         10.4220  -13.9380  -11.8940 C.2     8  ASP8        0.2598
      4  O          9.5900  -14.4170  -12.6780 O.2     8  ASP8       -0.2718
      5  CB        12.2550  -14.7600  -10.2200 C.3     8  ASP8        0.1424
      6  CG        13.1550  -15.2730  -11.3210 C.2     8  ASP8        0.3668
      7  OD1       12.6520  -15.5590  -12.4310 O.co2   8  ASP8       -0.2456
      8  OD2       14.3890  -15.3880  -11.0740 O.co2   8  ASP8       -0.2456
      9  N         10.9660  -12.7180  -12.0570 N.am    9  HIS9       -0.1961
     10  CA        10.7440  -11.8640  -13.2450 C.3     9  HIS9        0.1787
     11  C         11.2160  -12.6130  -14.5340 C.2     9  HIS9        0.2620
     12  O         10.5760  -12.5090  -15.5830 O.2     9  HIS9       -0.2715
     13  CB        11.5180  -10.5500  -13.0620 C.3     9  HIS9        0.0785
     14  CG        12.9780  -10.7580  -12.7480 C.ar    9  HIS9        0.0821
     15  ND1       13.4200  -11.3420  -11.5680 N.ar    9  HIS9       -0.2267
     16  CD2       14.0940  -10.4490  -13.4540 C.ar    9  HIS9        0.1154
     17  CE1       14.7400  -11.3980  -11.5790 C.ar    9  HIS9        0.1986
     18  NE2       15.1750  -10.8660  -12.7110 N.ar    9  HIS9       -0.2212
     19  N         12.2900  -13.4240  -14.4260 N.am   10  GLY10      -0.1954
     20  CA        12.8040  -14.2780  -15.5440 C.3    10  GLY10       0.1869
     21  C         11.8080  -15.3700  -16.0250 C.2    10  GLY10       0.2309
     22  O         11.9520  -15.8800  -17.1560 O.2    10  GLY10      -0.2863
     23  N         14.4370  -15.4370   -6.9690 N.3    42  TYR42      -0.1241
     24  CA        13.7630  -16.7590   -7.1790 C.3    42  TYR42       0.1605
     25  C         13.5480  -17.6520   -5.8940 C.2    42  TYR42       0.2264
     26  O         12.5670  -18.3820   -5.8310 O.2    42  TYR42      -0.2867
     27  CB        14.4150  -17.5560   -8.3360 C.3    42  TYR42       0.0534
     28  CG        15.8450  -17.9310   -8.0200 C.ar   42  TYR42      -0.0201
     29  CD1       16.1460  -19.0090   -7.1880 C.ar   42  TYR42      -0.0009
     30  CD2       16.9220  -17.1290   -8.4930 C.ar   42  TYR42      -0.0009
     31  CE1       17.5190  -19.3330   -6.8280 C.ar   42  TYR42       0.0417
     32  CE2       18.2440  -17.4470   -8.1780 C.ar   42  TYR42       0.0417
     33  CZ        18.5280  -18.5380   -7.3150 C.ar   42  TYR42       0.1957
     34  OH        19.8290  -18.8630   -7.0470 O.3    42  TYR42      -0.2866
     35  N         11.8340  -19.9300  -13.7610 N.3    65  CYS65      -0.1221
     36  CA        12.7860  -18.8000  -13.8310 C.3    65  CYS65       0.1808
     37  C         13.4920  -18.8300  -15.1820 C.2    65  CYS65       0.2602
     38  O         13.0020  -19.4830  -16.1110 O.2    65  CYS65      -0.2717
     39  CB        13.7480  -18.7350  -12.6290 C.3    65  CYS65       0.0970
     40  SG        14.9980  -20.0540  -12.2940 S.3    65  CYS65      -0.0800
     41  N         14.5870  -18.0930  -15.3420 N.am   66  GLY66      -0.1942
     42  CA        15.2880  -18.0710  -16.6250 C.3    66  GLY66       0.2014
     43  C         15.6560  -19.4730  -17.0790 C.2    66  GLY66       0.2639
     44  O         15.3550  -19.8470  -18.2520 O.2    66  GLY66      -0.2714
     45  N         16.3020  -20.2390  -16.1900 N.am   67  THR67      -0.1950
     46  CA        16.6640  -21.6260  -16.5330 C.3    67  THR67       0.1897
     47  C         15.8700  -22.7150  -15.8600 C.2    67  THR67       0.2313
     48  O         15.8960  -23.8150  -16.3050 O.2    67  THR67      -0.2863
     49  CB        18.1210  -21.8540  -16.2120 C.3    67  THR67       0.1794
     50  OG1       18.3180  -21.6080  -14.8170 O.3    67  THR67      -0.2208
     51  CG2       18.9680  -20.8730  -17.0360 C.3    67  THR67       0.0378
     52  N         16.7400  -23.3790  -12.8200 N.3    69  LEU69      -0.1231
     53  CA        17.7120  -23.9790  -11.9110 C.3    69  LEU69       0.1693
     54  C         17.6180  -23.4610  -10.5040 C.2    69  LEU69       0.2592
     55  O         17.4510  -24.2410   -9.5710 O.2    69  LEU69      -0.2718
     56  CB        19.1610  -23.8710  -12.4050 C.3    69  LEU69       0.0284
     57  CG        19.3760  -24.6540  -13.6920 C.3    69  LEU69       0.0019
     58  CD1       20.7110  -24.2740  -14.3720 C.3    69  LEU69       0.0001
     59  CD2       19.2730  -26.1410  -13.4480 C.3    69  LEU69       0.0001
     60  N         17.6770  -22.1470  -10.3320 N.am   70  GLY70      -0.1957
     61  CA        17.7280  -21.5880   -9.0050 C.3    70  GLY70       0.1869
     62  C         16.4940  -21.9650   -8.1950 C.2    70  GLY70       0.2309
     63  O         16.6290  -22.4170   -7.0320 O.2    70  GLY70      -0.2863
     64  N         13.8920  -18.9460  -20.5130 N.3   109  ARG109     -0.1245
     65  CA        14.9490  -18.5220  -21.4600 C.3   109  ARG109      0.1563
     66  C         15.5750  -19.7150  -22.1950 C.2   109  ARG109      0.2260
     67  O         16.4610  -19.5710  -23.1020 O.2   109  ARG109     -0.2867
     68  CB        15.9560  -17.6440  -20.6970 C.3   109  ARG109      0.0307
     69  CG        15.1130  -16.4140  -20.3300 C.3   109  ARG109      0.0489
     70  CD        15.6320  -15.1630  -19.4890 C.3   109  ARG109      0.2205
     71  NE        16.7460  -15.3380  -18.5940 N.pl3 109  ARG109     -0.0865
     72  CZ        17.0580  -14.5140  -17.5650 C.cat 109  ARG109      0.5346
     73  NH1       16.2970  -13.4490  -17.2250 N.pl3 109  ARG109      0.1354
     74  NH2       18.1500  -14.7850  -16.8390 N.pl3 109  ARG109      0.1354
@<TRIPOS>BOND
     1    67    66    2
     2    66    65    1
     3    65    68    1
     4    65    64    1
     5    68    69    1
     6    69    70    1
     7    70    71    1
     8    71    72    2
     9    44    43    2
    10    72    73    1
    11    72    74    1
    12    22    21    2
    13    43    42    1
    14    43    45   am
    15    51    49    1
    16    42    41    1
    17    46    49    1
    18    46    45    1
    19    46    47    1
    20    48    47    2
    21    49    50    1
    22    38    37    2
    23    21    20    1
    24    12    11    2
    25    20    19    1
    26    41    37   am
    27    37    36    1
    28    11    19   am
    29    11    10    1
    30    58    57    1
    31    36    35    1
    32    36    39    1
    33    57    59    1
    34    57    56    1
    35    16    14   ar
    36    16    18   ar
    37    10    13    1
    38    10     9    1
    39    13    14    1
    40    52    53    1
    41    14    15   ar
    42    18    17   ar
    43     4     3    2
    44    39    40    1
    45     7     6   ar
    46    56    53    1
    47     9     3   am
    48    53    54    1
    49     3     2    1
    50    17    15   ar
    51     6     8   ar
    52     6     5    1
    53     1     2    1
    54     2     5    1
    55    54    60   am
    56    54    55    2
    57    60    61    1
    58    61    62    1
    59    30    32   ar
    60    30    28   ar
    61    27    28    1
    62    27    24    1
    63    62    63    2
    64    32    33   ar
    65    28    29   ar
    66    33    34    1
    67    33    31   ar
    68    29    31   ar
    69    24    23    1
    70    24    25    1
    71    25    26    2
