@<TRIPOS>MOLECULE
tmp/3ph4B01.pdb
 72 68 0 0 0
SMALL
GASTEIGER

@<TRIPOS>ATOM
      1  N         -8.8450   16.9000   36.3900 N.3     8  ASP8       -0.1225
      2  CA        -7.3910   16.7050   36.2890 C.3     8  ASP8        0.1805
      3  C         -6.8740   15.9580   37.5470 C.2     8  ASP8        0.2598
      4  O         -7.6870   15.4280   38.3140 O.2     8  ASP8       -0.2718
      5  CB        -6.6580   17.9950   35.9350 C.3     8  ASP8        0.1424
      6  CG        -6.6570   19.0020   37.0710 C.2     8  ASP8        0.3668
      7  OD1       -7.1520   18.6880   38.1550 O.co2   8  ASP8       -0.2456
      8  OD2       -6.1330   20.1180   36.8780 O.co2   8  ASP8       -0.2456
      9  N         -5.5470   15.8580   37.7130 N.am    9  HIS9       -0.1961
     10  CA        -4.9100   15.2650   38.9130 C.3     9  HIS9        0.1787
     11  C         -5.2990   16.0970   40.1720 C.2     9  HIS9        0.2620
     12  O         -5.5310   15.5140   41.1880 O.2     9  HIS9       -0.2715
     13  CB        -3.3870   15.3230   38.7300 C.3     9  HIS9        0.0785
     14  CG        -2.9120   16.6790   38.2690 C.ar    9  HIS9        0.0821
     15  ND1       -2.2630   17.5770   39.1010 N.ar    9  HIS9       -0.2267
     16  CD2       -3.0210   17.3020   37.0650 C.ar    9  HIS9        0.1154
     17  CE1       -1.9650   18.6810   38.4270 C.ar    9  HIS9        0.1986
     18  NE2       -2.4220   18.5410   37.1900 N.ar    9  HIS9       -0.2212
     19  N         -5.4160   17.4330   40.0780 N.am   10  GLY10      -0.1954
     20  CA        -6.0070   18.3090   41.1520 C.3    10  GLY10       0.1869
     21  C         -7.4400   17.9410   41.6760 C.2    10  GLY10       0.2309
     22  O         -7.7810   18.2480   42.8350 O.2    10  GLY10      -0.2863
     23  N          0.3340   14.3380   36.5950 N.3    39  SER39      -0.1217
     24  CA        -0.0020   15.6620   36.1560 C.3    39  SER39       0.1889
     25  C         -0.6130   15.6440   34.7200 C.2    39  SER39       0.2288
     26  O         -0.0800   15.0320   33.8340 O.2    39  SER39      -0.2866
     27  CB         1.2450   16.5500   36.3160 C.3    39  SER39       0.2089
     28  OG         1.0550   17.7930   35.6970 O.3    39  SER39      -0.2183
     29  N         -6.1910   20.2040   32.6580 N.3    42  TYR42      -0.1241
     30  CA        -7.6590   20.3210   32.8870 C.3    42  TYR42       0.1605
     31  C         -8.5110   20.6000   31.6040 C.2    42  TYR42       0.2264
     32  O         -9.5670   20.0720   31.5000 O.2    42  TYR42      -0.2867
     33  CB        -8.0020   21.2900   34.0340 C.3    42  TYR42       0.0534
     34  CG        -7.6210   22.7150   33.7040 C.ar   42  TYR42      -0.0201
     35  CD1       -8.4280   23.5250   32.8880 C.ar   42  TYR42      -0.0009
     36  CD2       -6.3950   23.2570   34.1740 C.ar   42  TYR42      -0.0009
     37  CE1       -8.0170   24.8820   32.5190 C.ar   42  TYR42       0.0417
     38  CE2       -6.0150   24.5430   33.8350 C.ar   42  TYR42       0.0417
     39  CZ        -6.8230   25.3580   33.0040 C.ar   42  TYR42       0.1957
     40  OH        -6.4350   26.6580   32.7280 O.3    42  TYR42      -0.2866
     41  N        -11.2880   20.2750   39.4420 N.3    65  CYS65      -0.1221
     42  CA        -9.8250   20.5070   39.4650 C.3    65  CYS65       0.1808
     43  C         -9.5240   21.1380   40.8100 C.2    65  CYS65       0.2602
     44  O        -10.3730   21.0760   41.7230 O.2    65  CYS65      -0.2717
     45  CB        -9.3140   21.3190   38.2460 C.3    65  CYS65       0.0970
     46  SG        -9.8880   23.0710   37.9230 S.3    65  CYS65      -0.0800
     47  N         -8.3460   21.7210   40.9610 N.am   66  GLY66      -0.1942
     48  CA        -7.9700   22.2850   42.2310 C.3    66  GLY66       0.2014
     49  C         -9.0240   23.2730   42.7020 C.2    66  GLY66       0.2639
     50  O         -9.4500   23.2050   43.8880 O.2    66  GLY66      -0.2714
     51  N         -9.3880   24.2220   41.8340 N.am   67  THR67      -0.1950
     52  CA       -10.3620   25.2440   42.2200 C.3    67  THR67       0.1897
     53  C        -11.7100   25.1130   41.5310 C.2    67  THR67       0.2313
     54  O        -12.6480   25.7930   41.9070 O.2    67  THR67      -0.2863
     55  CB        -9.8860   26.6280   41.8780 C.3    67  THR67       0.1794
     56  OG1       -9.6560   26.6770   40.4660 O.3    67  THR67      -0.2208
     57  CG2       -8.5700   26.9740   42.6380 C.3    67  THR67       0.0378
     58  N        -10.4800   26.3810   36.0570 N.3    70  GLY70      -0.1225
     59  CA        -9.8260   26.1930   34.7480 C.3    70  GLY70       0.1811
     60  C        -10.7820   25.2850   33.9480 C.2    70  GLY70       0.2280
     61  O        -11.0990   25.5590   32.7890 O.2    70  GLY70      -0.2866
     62  N         -9.3730   21.5100   46.1410 N.3   109  ARG109     -0.1245
     63  CA        -8.5480   22.2220   47.1400 C.3   109  ARG109      0.1563
     64  C         -9.2800   23.3430   47.8850 C.2   109  ARG109      0.2260
     65  O         -8.6930   24.0040   48.7560 O.2   109  ARG109     -0.2867
     66  CB        -7.3660   22.8520   46.4040 C.3   109  ARG109      0.0307
     67  CG        -6.4880   21.7730   45.8070 C.3   109  ARG109      0.0489
     68  CD        -5.4850   22.4120   44.7960 C.3   109  ARG109      0.2205
     69  NE        -4.6580   21.3770   44.1760 N.pl3 109  ARG109     -0.0865
     70  CZ        -3.8430   21.5810   43.1250 C.cat 109  ARG109      0.5346
     71  NH1       -3.7210   22.8020   42.5840 N.pl3 109  ARG109      0.1354
     72  NH2       -3.1320   20.5650   42.6300 N.pl3 109  ARG109      0.1354
@<TRIPOS>BOND
     1    32    31    2
     2    31    30    1
     3    37    35   ar
     4    37    39   ar
     5    29    30    1
     6    40    39    1
     7    61    60    2
     8    30    33    1
     9    35    34   ar
    10    39    38   ar
    11    34    33    1
    12    34    36   ar
    13    26    25    2
    14    38    36   ar
    15    60    59    1
    16    25    24    1
    17    59    58    1
    18    28    27    1
    19     5     2    1
    20     5     6    1
    21    24    27    1
    22    24    23    1
    23     2     1    1
    24     2     3    1
    25     8     6   ar
    26    16    18   ar
    27    16    14   ar
    28     6     7   ar
    29    18    17   ar
    30     3     9   am
    31     3     4    2
    32     9    10    1
    33    46    45    1
    34    45    42    1
    35    14    13    1
    36    14    15   ar
    37    17    15   ar
    38    13    10    1
    39    10    11    1
    40    41    42    1
    41    42    43    1
    42    19    11   am
    43    19    20    1
    44    11    12    2
    45    56    55    1
    46    43    47   am
    47    43    44    2
    48    47    48    1
    49    20    21    1
    50    53    54    2
    51    53    52    1
    52    21    22    2
    53    51    52    1
    54    51    49   am
    55    55    52    1
    56    55    57    1
    57    48    49    1
    58    71    70    1
    59    72    70    1
    60    49    50    2
    61    70    69    2
    62    69    68    1
    63    68    67    1
    64    67    66    1
    65    62    63    1
    66    66    63    1
    67    63    64    1
    68    64    65    2
