@<TRIPOS>MOLECULE
tmp/3ph7D00.pdb
 215 203 0 0 0
SMALL
GASTEIGER

@<TRIPOS>ATOM
      1  N         68.3670  -22.1110  -16.5610 N.3    46  GLY46      -0.1210
      2  CA        68.9670  -21.2380  -17.5620 C.3    46  GLY46       0.1956
      3  C         69.5670  -21.9730  -18.7420 C.2    46  GLY46       0.2612
      4  O         69.5980  -23.2050  -18.7560 O.2    46  GLY46      -0.2717
      5  N         70.0690  -21.2110  -19.7250 N.am   47  LYS47      -0.1965
      6  CA        70.7070  -21.7540  -20.9330 C.3    47  LYS47       0.1728
      7  C         72.0780  -22.3990  -20.6350 C.2    47  LYS47       0.2616
      8  O         72.5190  -23.2680  -21.3910 O.2    47  LYS47      -0.2715
      9  CB        70.8400  -20.6820  -22.0280 C.3    47  LYS47       0.0311
     10  CG        69.4930  -20.1330  -22.5210 C.3    47  LYS47       0.0038
     11  CD        69.6470  -18.9690  -23.5300 C.3    47  LYS47       0.0206
     12  CE        70.2990  -17.6870  -23.0130 C.3    47  LYS47       0.1093
     13  NZ        69.4370  -16.9660  -22.0390 N.3    47  LYS47      -0.1314
     14  N         72.7350  -21.9770  -19.5330 N.am   48  ASN48      -0.1958
     15  CA        74.0340  -22.4550  -19.0360 C.3    48  ASN48       0.1819
     16  C         75.1790  -22.2160  -20.0230 C.2    48  ASN48       0.2621
     17  O         76.1680  -22.9510  -20.0050 O.2    48  ASN48      -0.2715
     18  CB        73.9920  -23.9340  -18.5980 C.3    48  ASN48       0.1195
     19  CG        72.9490  -24.2870  -17.5720 C.2    48  ASN48       0.2630
     20  OD1       72.2870  -25.3260  -17.6820 O.2    48  ASN48      -0.2716
     21  ND2       72.8030  -23.4660  -16.5280 N.am   48  ASN48      -0.0877
     22  N         75.0750  -21.1480  -20.8240 N.am   49  ASN49      -0.1958
     23  CA        76.0870  -20.7350  -21.8010 C.3    49  ASN49       0.1819
     24  C         77.4460  -20.5030  -21.1480 C.2    49  ASN49       0.2621
     25  O         78.4610  -20.9340  -21.7000 O.2    49  ASN49      -0.2715
     26  CB        75.6410  -19.4760  -22.5600 C.3    49  ASN49       0.1195
     27  CG        74.5260  -19.7090  -23.5570 C.2    49  ASN49       0.2630
     28  OD1       74.4130  -20.7780  -24.1830 O.2    49  ASN49      -0.2716
     29  ND2       73.6840  -18.6960  -23.7450 N.am   49  ASN49      -0.0877
     30  N         77.4620  -19.8420  -19.9690 N.am   50  ARG50      -0.1977
     31  CA        78.6780  -19.5510  -19.2030 C.3    50  ARG50       0.1597
     32  C         79.3350  -20.8370  -18.7010 C.2    50  ARG50       0.2287
     33  O         80.5540  -20.9580  -18.7940 O.2    50  ARG50      -0.2864
     34  CB        78.3810  -18.6010  -18.0300 C.3    50  ARG50       0.0334
     35  CG        77.9210  -17.2200  -18.4690 C.3    50  ARG50       0.0492
     36  CD        77.2210  -16.4580  -17.3510 C.3    50  ARG50       0.2205
     37  NE        76.6320  -15.2190  -17.8580 N.pl3  50  ARG50      -0.0865
     38  CZ        75.3930  -15.1060  -18.3220 C.cat  50  ARG50       0.5346
     39  NH1       74.5790  -16.1530  -18.3200 N.pl3  50  ARG50       0.1354
     40  NH2       74.9630  -13.9470  -18.8080 N.pl3  50  ARG50       0.1354
     41  N         77.6000  -20.5960  -12.7310 N.3    77  GLU77      -0.1245
     42  CA        76.1480  -20.6810  -12.7660 C.3    77  GLU77       0.1567
     43  C         75.5680  -20.3210  -11.3940 C.2    77  GLU77       0.2260
     44  O         74.4890  -19.7650  -11.3420 O.2    77  GLU77      -0.2867
     45  CB        75.6720  -22.0550  -13.2440 C.3    77  GLU77       0.0388
     46  CG        75.9830  -22.3500  -14.7010 C.3    77  GLU77       0.1160
     47  CD        75.4060  -21.4050  -15.7390 C.2    77  GLU77       0.3649
     48  OE1       74.2310  -20.9900  -15.6110 O.co2  77  GLU77      -0.2457
     49  OE2       76.1400  -21.0910  -16.7010 O.co2  77  GLU77      -0.2457
     50  N         75.8030  -16.5930  -11.4620 N.3    80  GLN80      -0.1245
     51  CA        74.6720  -16.1160  -12.2520 C.3    80  GLN80       0.1566
     52  C         73.4040  -16.1810  -11.3800 C.2    80  GLN80       0.2260
     53  O         72.6290  -15.2280  -11.3760 O.2    80  GLN80      -0.2867
     54  CB        74.5480  -16.9310  -13.5660 C.3    80  GLN80       0.0367
     55  CG        73.2650  -16.7170  -14.3870 C.3    80  GLN80       0.0905
     56  CD        73.2000  -15.4230  -15.1730 C.2    80  GLN80       0.2608
     57  OE1       73.8890  -14.4440  -14.9090 O.2    80  GLN80      -0.2717
     58  NE2       72.3370  -15.3780  -16.1580 N.am   80  GLN80      -0.0878
     59  N         73.2200  -15.9760   -7.9730 N.3    82  ALA82      -0.1231
     60  CA        73.3910  -14.8870   -6.9910 C.3    82  ALA82       0.1694
     61  C         73.0710  -13.4840   -7.6200 C.2    82  ALA82       0.2592
     62  O         72.4500  -12.6440   -6.9610 O.2    82  ALA82      -0.2718
     63  CB        74.8250  -14.9060   -6.4490 C.3    82  ALA82       0.0304
     64  N         73.5150  -13.2540   -8.8790 N.am   83  PHE83      -0.1962
     65  CA        73.2640  -12.0450   -9.6630 C.3    83  PHE83       0.1771
     66  C         71.7830  -11.8670  -10.0040 C.2    83  PHE83       0.2619
     67  O         71.2780  -10.7500   -9.8860 O.2    83  PHE83      -0.2715
     68  CB        74.0810  -12.0660  -10.9800 C.3    83  PHE83       0.0574
     69  CG        75.5550  -11.7620  -10.8320 C.ar   83  PHE83      -0.0200
     70  CD1       76.0290  -11.0360   -9.7440 C.ar   83  PHE83      -0.0042
     71  CD2       76.4630  -12.1490  -11.8090 C.ar   83  PHE83      -0.0042
     72  CE1       77.3960  -10.7460   -9.6130 C.ar   83  PHE83      -0.0003
     73  CE2       77.8210  -11.8190  -11.7000 C.ar   83  PHE83      -0.0003
     74  CZ        78.2880  -11.1520  -10.5880 C.ar   83  PHE83      -0.0000
     75  N         71.0920  -12.9420  -10.4540 N.am   84  LEU84      -0.1977
     76  CA        69.6800  -12.8280  -10.8240 C.3    84  LEU84       0.1596
     77  C         68.7830  -12.5960   -9.6160 C.2    84  LEU84       0.2287
     78  O         67.8310  -11.8370   -9.7330 O.2    84  LEU84      -0.2864
     79  CB        69.1660  -13.9890  -11.6940 C.3    84  LEU84       0.0297
     80  CG        69.1990  -15.4020  -11.1300 C.3    84  LEU84       0.0022
     81  CD1       67.8760  -15.7610  -10.3900 C.3    84  LEU84       0.0001
     82  CD2       69.4840  -16.4070  -12.2470 C.3    84  LEU84       0.0001
     83  N         69.7220  -11.0210   -6.8030 N.3    86  ALA86      -0.1231
     84  CA        70.0370   -9.6630   -6.4050 C.3    86  ALA86       0.1694
     85  C         69.3870   -8.6680   -7.3430 C.2    86  ALA86       0.2592
     86  O         68.7600   -7.7190   -6.8630 O.2    86  ALA86      -0.2718
     87  CB        71.5390   -9.4580   -6.3700 C.3    86  ALA86       0.0304
     88  N         69.4880   -8.9030   -8.6730 N.am   87  ASP87      -0.1974
     89  CA        68.9290   -8.0310   -9.7030 C.3    87  ASP87       0.1709
     90  C         67.4330   -7.9210   -9.5850 C.2    87  ASP87       0.2293
     91  O         66.8880   -6.8370   -9.7860 O.2    87  ASP87      -0.2864
     92  CB        69.3160   -8.5000  -11.1190 C.3    87  ASP87       0.1436
     93  CG        68.9590   -7.4900  -12.2160 C.2    87  ASP87       0.3671
     94  OD1       68.1470   -7.8390  -13.1110 O.co2  87  ASP87      -0.2456
     95  OD2       69.4690   -6.3410  -12.1610 O.co2  87  ASP87      -0.2456
     96  N         66.6050   -5.7250   -6.5360 N.3    90  MET90      -0.1245
     97  CA        66.9570   -4.3700   -6.9410 C.3    90  MET90       0.1570
     98  C         65.9700   -3.7540   -7.9170 C.2    90  MET90       0.2261
     99  O         65.5380   -2.6330   -7.6820 O.2    90  MET90      -0.2867
    100  CB        68.3770   -4.3240   -7.5220 C.3    90  MET90       0.0387
    101  CG        69.4410   -4.5040   -6.4810 C.3    90  MET90       0.0595
    102  SD        71.0830   -4.2560   -7.1760 S.3    90  MET90      -0.1393
    103  CE        71.3130   -5.7330   -7.9190 C.3    90  MET90       0.0692
    104  N         61.2840  -14.6710  -13.4100 N.3    96  ARG96      -0.1231
    105  CA        62.5790  -15.0120  -13.9580 C.3    96  ARG96       0.1694
    106  C         62.6580  -16.4810  -14.2030 C.2    96  ARG96       0.2591
    107  O         62.3200  -17.2690  -13.3190 O.2    96  ARG96      -0.2718
    108  CB        63.7770  -14.4820  -13.1990 C.3    96  ARG96       0.0321
    109  CG        64.5860  -13.8520  -14.3100 C.3    96  ARG96       0.0489
    110  CD        66.0270  -13.7860  -14.0750 C.3    96  ARG96       0.2205
    111  NE        66.3500  -12.5580  -13.3590 N.pl3  96  ARG96      -0.0865
    112  CZ        66.9010  -11.4770  -13.9060 C.cat  96  ARG96       0.5346
    113  NH1       67.1850  -10.4200  -13.1570 N.pl3  96  ARG96       0.1354
    114  NH2       67.1770  -11.4480  -15.2040 N.pl3  96  ARG96       0.1354
    115  N         63.0330  -16.8480  -15.4500 N.am   97  ARG97      -0.1980
    116  CA        63.1170  -18.2250  -15.9630 C.3    97  ARG97       0.1597
    117  C         61.7400  -18.9170  -15.8550 C.2    97  ARG97       0.2287
    118  O         61.6520  -20.0980  -15.4800 O.2    97  ARG97      -0.2864
    119  CB        64.2510  -19.0410  -15.2890 C.3    97  ARG97       0.0334
    120  CG        65.6470  -18.5210  -15.5900 C.3    97  ARG97       0.0492
    121  CD        66.6730  -19.2140  -14.7080 C.3    97  ARG97       0.2205
    122  NE        68.0290  -18.8710  -15.1290 N.pl3  97  ARG97      -0.0865
    123  CZ        69.1470  -19.1870  -14.4790 C.cat  97  ARG97       0.5346
    124  NH1       69.0980  -19.8400  -13.3220 N.pl3  97  ARG97       0.1354
    125  NH2       70.3170  -18.7980  -14.9500 N.pl3  97  ARG97       0.1354
    126  N         71.7270  -14.1550   -1.4270 N.3   117  VAL117     -0.1245
    127  CA        72.6450  -13.6630   -2.4530 C.3   117  VAL117      0.1561
    128  C         74.0960  -13.8430   -1.9600 C.2   117  VAL117      0.2260
    129  O         74.9330  -14.4080   -2.6740 O.2   117  VAL117     -0.2867
    130  CB        72.2970  -12.1930   -2.8510 C.3   117  VAL117      0.0252
    131  CG1       73.5040  -11.4430   -3.4370 C.3   117  VAL117      0.0019
    132  CG2       71.1290  -12.1630   -3.8330 C.3   117  VAL117      0.0019
    133  N         76.8950  -16.4020   -3.2730 N.3   121  TYR121     -0.1241
    134  CA        78.1620  -15.8050   -3.6430 C.3   121  TYR121      0.1605
    135  C         79.3520  -16.4400   -2.9010 C.2   121  TYR121      0.2264
    136  O         80.3680  -16.7430   -3.5290 O.2   121  TYR121     -0.2867
    137  CB        78.1340  -14.2840   -3.4480 C.3   121  TYR121      0.0534
    138  CG        79.4060  -13.6420   -3.9430 C.ar  121  TYR121     -0.0201
    139  CD1       79.7330  -13.6590   -5.2970 C.ar  121  TYR121     -0.0009
    140  CD2       80.3510  -13.1350   -3.0470 C.ar  121  TYR121     -0.0009
    141  CE1       80.9330  -13.1380   -5.7540 C.ar  121  TYR121      0.0417
    142  CE2       81.5600  -12.6070   -3.4990 C.ar  121  TYR121      0.0417
    143  CZ        81.8400  -12.6010   -4.8540 C.ar  121  TYR121      0.1957
    144  OH        83.0240  -12.0790   -5.3170 O.3   121  TYR121     -0.2866
    145  N         83.6540  -10.1380  -10.5060 N.3   149  THR149     -0.1218
    146  CA        82.5330   -9.7250   -9.6660 C.3   149  THR149      0.1862
    147  C         82.5930   -8.2140   -9.4310 C.2   149  THR149      0.2287
    148  O         81.5770   -7.5560   -9.6120 O.2   149  THR149     -0.2866
    149  CB        82.4560  -10.5210   -8.3550 C.3   149  THR149      0.1770
    150  OG1       82.3720  -11.8960   -8.6860 O.3   149  THR149     -0.2211
    151  CG2       81.2260  -10.1430   -7.5160 C.3   149  THR149      0.0375
    152  N         81.4050   -6.3320  -12.3980 N.3   152  THR152     -0.1203
    153  CA        79.9530   -6.4940  -12.5210 C.3   152  THR152      0.1994
    154  C         79.2140   -5.5370  -11.5560 C.2   152  THR152      0.2617
    155  O         78.2660   -4.8790  -11.9840 O.2   152  THR152     -0.2717
    156  CB        79.5290   -7.9680  -12.3320 C.3   152  THR152      0.1784
    157  OG1       80.4110   -8.7880  -13.0810 O.3   152  THR152     -0.2211
    158  CG2       78.1030   -8.2260  -12.8160 C.3   152  THR152      0.0376
    159  N         79.6720   -5.4550  -10.2810 N.am  153  ILE153     -0.1979
    160  CA        79.1150   -4.5890   -9.2340 C.3   153  ILE153      0.1595
    161  C         79.1360   -3.1300   -9.7330 C.2   153  ILE153      0.2287
    162  O         78.1110   -2.4500   -9.6650 O.2   153  ILE153     -0.2864
    163  CB        79.8600   -4.8000   -7.8720 C.3   153  ILE153      0.0276
    164  CG1       79.4860   -6.1900   -7.3180 C.3   153  ILE153      0.0022
    165  CG2       79.5460   -3.6930   -6.8950 C.3   153  ILE153      0.0022
    166  CD1       80.3330   -6.6330   -6.1570 C.3   153  ILE153      0.0001
    167  N         76.7300   -2.6610  -12.6510 N.3   156  GLN156     -0.1245
    168  CA        75.3870   -2.7090  -12.0780 C.3   156  GLN156      0.1566
    169  C         75.0610   -1.3320  -11.4630 C.2   156  GLN156      0.2260
    170  O         73.9660   -0.8020  -11.6870 O.2   156  GLN156     -0.2867
    171  CB        75.3090   -3.8460  -11.0440 C.3   156  GLN156      0.0367
    172  CG        74.0100   -3.9540  -10.2500 C.3   156  GLN156      0.0905
    173  CD        72.7570   -4.1950  -11.0490 C.2   156  GLN156      0.2608
    174  OE1       71.6600   -4.0750  -10.5120 O.2   156  GLN156     -0.2717
    175  NE2       72.8630   -4.5590  -12.3250 N.am  156  GLN156     -0.0878
    176  N         79.0200   -4.6320  -16.6880 N.3   201  LYS201     -0.1245
    177  CA        77.8710   -5.4040  -16.2180 C.3   201  LYS201      0.1561
    178  C         77.8120   -6.8360  -16.7830 C.2   201  LYS201      0.2260
    179  O         77.3790   -7.7270  -16.0570 O.2   201  LYS201     -0.2867
    180  CB        76.5440   -4.6640  -16.5400 C.3   201  LYS201      0.0271
    181  CG        75.3740   -5.1560  -15.7030 C.3   201  LYS201      0.0035
    182  CD        74.0910   -4.3880  -15.9830 C.3   201  LYS201      0.0206
    183  CE        73.3750   -4.9330  -17.2070 C.3   201  LYS201      0.1093
    184  NZ        72.0360   -4.3020  -17.3950 N.3   201  LYS201     -0.1314
    185  N         81.8960  -11.2380  -16.4790 N.3   205  TYR205     -0.1241
    186  CA        81.4630  -12.4680  -15.8400 C.3   205  TYR205      0.1605
    187  C         80.8520  -13.4590  -16.8550 C.2   205  TYR205      0.2264
    188  O         80.9010  -14.6570  -16.6030 O.2   205  TYR205     -0.2867
    189  CB        80.5160  -12.1890  -14.6400 C.3   205  TYR205      0.0534
    190  CG        79.0330  -12.2000  -14.9730 C.ar  205  TYR205     -0.0201
    191  CD1       78.2650  -13.3490  -14.7870 C.ar  205  TYR205     -0.0009
    192  CD2       78.3970  -11.0590  -15.4680 C.ar  205  TYR205     -0.0009
    193  CE1       76.9040  -13.3640  -15.0900 C.ar  205  TYR205      0.0417
    194  CE2       77.0320  -11.0600  -15.7590 C.ar  205  TYR205      0.0417
    195  CZ        76.2880  -12.2120  -15.5600 C.ar  205  TYR205      0.1957
    196  OH        74.9450  -12.2260  -15.8440 O.3   205  TYR205     -0.2866
    197  N         76.0810   -9.5210  -26.8770 N.3   240  PHE240     -0.1241
    198  CA        75.0950  -10.2450  -26.0740 C.3   240  PHE240      0.1605
    199  C         74.0550   -9.3120  -25.4330 C.2   240  PHE240      0.2264
    200  O         72.8640   -9.6410  -25.4650 O.2   240  PHE240     -0.2867
    201  CB        75.7870  -11.1050  -24.9970 C.3   240  PHE240      0.0534
    202  CG        74.8620  -11.8350  -24.0380 C.ar  240  PHE240     -0.0203
    203  CD1       74.2640  -13.0450  -24.4000 C.ar  240  PHE240     -0.0042
    204  CD2       74.5950  -11.3210  -22.7730 C.ar  240  PHE240     -0.0042
    205  CE1       73.4000  -13.7150  -23.5200 C.ar  240  PHE240     -0.0003
    206  CE2       73.7320  -11.9930  -21.8950 C.ar  240  PHE240     -0.0003
    207  CZ        73.1560  -13.1950  -22.2680 C.ar  240  PHE240     -0.0000
    208  N         69.9780   -8.7220  -25.8330 N.3   244  ASP244     -0.1239
    209  CA        69.1450   -8.8290  -24.6300 C.3   244  ASP244      0.1674
    210  C         68.1890   -7.6150  -24.5430 C.2   244  ASP244      0.2266
    211  O         67.0250   -7.7900  -24.1810 O.2   244  ASP244     -0.2867
    212  CB        70.0160   -8.9400  -23.3620 C.3   244  ASP244      0.1410
    213  CG        69.2290   -9.2300  -22.0900 C.2   244  ASP244      0.3668
    214  OD1       69.0030   -8.2790  -21.3000 O.co2 244  ASP244     -0.2456
    215  OD2       68.8300  -10.4050  -21.8900 O.co2 244  ASP244     -0.2456
@<TRIPOS>BOND
     1   197   198    1
     2   198   199    1
     3   198   201    1
     4   208   209    1
     5   200   199    2
     6   201   202    1
     7   209   210    1
     8   209   212    1
     9   210   211    2
    10   203   202   ar
    11   203   205   ar
    12    28    27    2
    13   202   204   ar
    14    29    27   am
    15    27    26    1
    16    11    12    1
    17    11    10    1
    18   205   207   ar
    19   212   213    1
    20    12    13    1
    21   204   206   ar
    22    26    23    1
    23    10     9    1
    24   207   206   ar
    25   213   215   ar
    26   213   214   ar
    27     9     6    1
    28    23    24    1
    29    23    22    1
    30    25    24    2
    31     8     7    2
    32    24    30   am
    33     6     7    1
    34     6     5    1
    35    22    16   am
    36     7    14   am
    37    16    17    2
    38    16    15    1
    39    30    31    1
    40     5     3   am
    41    14    15    1
    42    31    32    1
    43    31    34    1
    44    15    18    1
    45    40    38    1
    46    33    32    2
    47     4     3    2
    48     3     2    1
    49    18    19    1
    50    35    34    1
    51    35    36    1
    52    38    39    1
    53    38    37    2
    54    37    36    1
    55    20    19    2
    56    19    21   am
    57     2     1    1
    58   184   183    1
    59   183   182    1
    60   187   188    2
    61   187   186    1
    62   178   177    1
    63   178   179    2
    64    49    47   ar
    65   176   177    1
    66   180   177    1
    67   180   181    1
    68   185   186    1
    69    58    56   am
    70   182   181    1
    71   116   117    1
    72   116   115    1
    73   116   119    1
    74   117   118    2
    75   196   195    1
    76   186   189    1
    77   194   195   ar
    78   194   192   ar
    79    47    48   ar
    80    47    46    1
    81   120   119    1
    82   120   121    1
    83   195   193   ar
    84   192   190   ar
    85   115   106   am
    86   114   112    1
    87    56    57    2
    88    56    55    1
    89   122   121    1
    90   122   123    2
    91   193   191   ar
    92   190   191   ar
    93   190   189    1
    94   125   123    1
    95    46    45    1
    96   123   124    1
    97    55    54    1
    98   109   110    1
    99   109   108    1
   100   106   105    1
   101   106   107    2
   102   110   111    1
   103   105   104    1
   104   105   108    1
   105   112   111    2
   106   112   113    1
   107    54    51    1
   108    45    42    1
   109    94    93   ar
   110   157   156    1
   111   158   156    1
   112    42    41    1
   113    42    43    1
   114   167   168    1
   115   153   152    1
   116   153   156    1
   117   153   154    1
   118   175   173   am
   119    51    50    1
   120    51    52    1
   121    82    80    1
   122    93    95   ar
   123    93    92    1
   124   168   169    1
   125   168   171    1
   126   155   154    2
   127    71    73   ar
   128    71    69   ar
   129    73    74   ar
   130    79    80    1
   131    79    76    1
   132   170   169    2
   133   154   159   am
   134    43    44    2
   135    52    53    2
   136    80    81    1
   137    92    89    1
   138   173   174    2
   139   173   172    1
   140   171   172    1
   141    68    69    1
   142    68    65    1
   143    69    70   ar
   144    76    75    1
   145    76    77    1
   146    74    72   ar
   147   145   146    1
   148    75    66   am
   149   159   160    1
   150    66    67    2
   151    66    65    1
   152    91    90    2
   153    70    72   ar
   154    78    77    2
   155   161   162    2
   156   161   160    1
   157    89    90    1
   158    89    88    1
   159   146   147    1
   160   146   149    1
   161    65    64    1
   162   148   147    2
   163   160   163    1
   164    64    61   am
   165   150   149    1
   166    88    85   am
   167   149   151    1
   168    59    60    1
   169   103   102    1
   170    98    99    2
   171    98    97    1
   172   163   164    1
   173   163   165    1
   174    61    60    1
   175    61    62    2
   176   100    97    1
   177   100   101    1
   178    85    86    2
   179    85    84    1
   180   164   166    1
   181   102   101    1
   182    60    63    1
   183    97    96    1
   184    83    84    1
   185    84    87    1
   186   141   139   ar
   187   141   143   ar
   188   144   143    1
   189   139   138   ar
   190   143   142   ar
   191   138   137    1
   192   138   140   ar
   193   132   130    1
   194   134   137    1
   195   134   133    1
   196   134   135    1
   197   136   135    2
   198   142   140   ar
   199   131   130    1
   200   130   127    1
   201   129   128    2
   202   127   128    1
   203   127   126    1
