@<TRIPOS>MOLECULE
tmp/3phaD00.pdb
 203 198 0 0 0
SMALL
GASTEIGER

@<TRIPOS>ATOM
      1  N         16.1690   13.1560  114.7420 N.3    76  ASP76      -0.1239
      2  CA        15.6530   12.2010  115.7200 C.3    76  ASP76       0.1674
      3  C         14.2240   11.7860  115.3690 C.2    76  ASP76       0.2266
      4  O         13.2740   12.4530  115.7670 O.2    76  ASP76      -0.2867
      5  CB        15.6450   12.8410  117.1120 C.3    76  ASP76       0.1410
      6  CG        15.0580   11.9180  118.1740 C.2    76  ASP76       0.3668
      7  OD1       14.6200   12.4130  119.2310 O.co2  76  ASP76      -0.2456
      8  OD2       15.0330   10.6940  117.9440 O.co2  76  ASP76      -0.2456
      9  N         11.6980    8.4890  115.3650 N.3    78  PRO78      -0.2102
     10  CA        11.4940    7.0990  115.7990 C.3    78  PRO78       0.1504
     11  C         10.5640    6.2710  114.8910 C.2    78  PRO78       0.2575
     12  O         10.1660    5.1710  115.2820 O.2    78  PRO78      -0.2718
     13  CB        10.8480    7.2520  117.1890 C.3    78  PRO78       0.0282
     14  CG        10.8720    8.7410  117.5110 C.3    78  PRO78       0.0208
     15  CD        10.9540    9.4450  116.1990 C.3    78  PRO78       0.0893
     16  N         10.2330    6.7830  113.7080 N.am   79  ILE79      -0.1980
     17  CA         9.2400    6.1530  112.8490 C.3    79  ILE79       0.1595
     18  C          9.7740    6.0100  111.4240 C.2    79  ILE79       0.2287
     19  O          9.6860    6.9370  110.6220 O.2    79  ILE79      -0.2864
     20  CB         7.9480    6.9930  112.8210 C.3    79  ILE79       0.0276
     21  CG1        7.5020    7.3230  114.2450 C.3    79  ILE79       0.0022
     22  CG2        6.8440    6.2620  112.0490 C.3    79  ILE79       0.0022
     23  CD1        6.3990    8.3800  114.3120 C.3    79  ILE79       0.0001
     24  N         15.7420   -0.2750  127.1560 N.3   172  TYR172     -0.1241
     25  CA        15.3730    0.9770  127.7970 C.3   172  TYR172      0.1605
     26  C         14.5080    0.6560  129.0070 C.2   172  TYR172      0.2264
     27  O         13.3180    0.3500  128.8790 O.2   172  TYR172     -0.2867
     28  CB        14.6240    1.8920  126.8290 C.3   172  TYR172      0.0534
     29  CG        14.2550    3.2530  127.4090 C.ar  172  TYR172     -0.0201
     30  CD1       14.5270    3.5660  128.7370 C.ar  172  TYR172     -0.0009
     31  CD2       13.6280    4.2220  126.6240 C.ar  172  TYR172     -0.0009
     32  CE1       14.1910    4.8010  129.2650 C.ar  172  TYR172      0.0417
     33  CE2       13.2890    5.4580  127.1460 C.ar  172  TYR172      0.0417
     34  CZ        13.5720    5.7410  128.4660 C.ar  172  TYR172      0.1957
     35  OH        13.2340    6.9650  128.9950 O.3   172  TYR172     -0.2866
     36  N         20.9030    1.5460  129.8080 N.3   200  ASP200     -0.1225
     37  CA        20.2070    2.7160  129.3250 C.3   200  ASP200      0.1805
     38  C         20.1430    3.7820  130.4070 C.2   200  ASP200      0.2597
     39  O         20.5460    3.5430  131.5500 O.2   200  ASP200     -0.2718
     40  CB        18.8160    2.3460  128.8210 C.3   200  ASP200      0.1424
     41  CG        18.4850    3.0330  127.5190 C.2   200  ASP200      0.3668
     42  OD1       17.9170    2.3650  126.6180 O.co2 200  ASP200     -0.2456
     43  OD2       18.8280    4.2340  127.3970 O.co2 200  ASP200     -0.2456
     44  N         19.6190    4.9480  130.0390 N.am  201  ILE201     -0.1980
     45  CA        19.8260    6.1640  130.8140 C.3   201  ILE201      0.1595
     46  C         19.4360    6.0530  132.2810 C.2   201  ILE201      0.2287
     47  O         19.8150    6.8900  133.0900 O.2   201  ILE201     -0.2864
     48  CB        19.1360    7.3790  130.1520 C.3   201  ILE201      0.0276
     49  CG1       17.6300    7.1370  130.0080 C.3   201  ILE201      0.0022
     50  CG2       19.7400    7.6310  128.7670 C.3   201  ILE201      0.0022
     51  CD1       16.8810    8.2490  129.2530 C.3   201  ILE201      0.0001
     52  N         25.3470    4.0090  128.1390 N.3   237  ILE237     -0.1245
     53  CA        24.9890    5.0030  127.1530 C.3   237  ILE237      0.1561
     54  C         25.4570    6.3840  127.6170 C.2   237  ILE237      0.2260
     55  O         25.4820    6.6900  128.8200 O.2   237  ILE237     -0.2867
     56  CB        23.4560    5.0150  126.9480 C.3   237  ILE237      0.0252
     57  CG1       23.0740    5.8910  125.7600 C.3   237  ILE237      0.0019
     58  CG2       22.7410    5.4830  128.2270 C.3   237  ILE237      0.0019
     59  CD1       21.5740    5.8130  125.4170 C.3   237  ILE237      0.0001
     60  N         16.1960   14.2820  128.2070 N.3   274  TRP274     -0.1241
     61  CA        15.8840   13.4310  129.3590 C.3   274  TRP274      0.1605
     62  C         15.9970   14.1480  130.7140 C.2   274  TRP274      0.2264
     63  O         15.0750   14.1030  131.5160 O.2   274  TRP274     -0.2867
     64  CB        16.7100   12.1300  129.3330 C.3   274  TRP274      0.0550
     65  CG        16.5970   11.4060  128.0120 C.ar  274  TRP274      0.0003
     66  CD1       17.5780   11.2430  127.0800 C.ar  274  TRP274      0.0946
     67  CD2       15.4210   10.7930  127.4650 C.ar  274  TRP274      0.0152
     68  NE1       17.0960   10.5540  125.9960 N.ar  274  TRP274     -0.2442
     69  CE2       15.7730   10.2690  126.2060 C.ar  274  TRP274      0.0810
     70  CE3       14.1130   10.6280  127.9230 C.ar  274  TRP274      0.0012
     71  CZ2       14.8580    9.5920  125.3980 C.ar  274  TRP274      0.0191
     72  CZ3       13.2070    9.9590  127.1180 C.ar  274  TRP274      0.0001
     73  CH2       13.5850    9.4480  125.8700 C.ar  274  TRP274      0.0015
     74  N         27.9640    3.5460  124.1810 N.3   308  TRP308     -0.1241
     75  CA        27.1210    4.0030  123.0760 C.3   308  TRP308      0.1605
     76  C         26.6550    5.4430  123.2570 C.2   308  TRP308      0.2264
     77  O         26.2060    5.8590  124.3420 O.2   308  TRP308     -0.2867
     78  CB        25.9740    3.0240  122.7730 C.3   308  TRP308      0.0550
     79  CG        25.0280    2.6530  123.9070 C.ar  308  TRP308      0.0003
     80  CD1       25.3570    2.2620  125.1700 C.ar  308  TRP308      0.0946
     81  CD2       23.5960    2.5630  123.8270 C.ar  308  TRP308      0.0152
     82  NE1       24.2220    1.9770  125.8950 N.ar  308  TRP308     -0.2442
     83  CE2       23.1290    2.1550  125.0920 C.ar  308  TRP308      0.0810
     84  CE3       22.6640    2.8180  122.8140 C.ar  308  TRP308      0.0012
     85  CZ2       21.7750    1.9840  125.3700 C.ar  308  TRP308      0.0191
     86  CZ3       21.3180    2.6550  123.0940 C.ar  308  TRP308      0.0001
     87  CH2       20.8880    2.2360  124.3600 C.ar  308  TRP308      0.0015
     88  N         24.2640    8.5670  122.2620 N.3   310  ASP310     -0.1225
     89  CA        22.8840    8.7730  121.8070 C.3   310  ASP310      0.1805
     90  C         22.4080   10.2310  121.8080 C.2   310  ASP310      0.2597
     91  O         23.0840   11.1290  122.3540 O.2   310  ASP310     -0.2718
     92  CB        21.9310    7.9510  122.6700 C.3   310  ASP310      0.1424
     93  CG        20.5660    7.7880  122.0430 C.2   310  ASP310      0.3668
     94  OD1       20.4730    7.7090  120.7980 O.co2 310  ASP310     -0.2456
     95  OD2       19.5810    7.7290  122.8080 O.co2 310  ASP310     -0.2456
     96  N         21.2310   10.4370  121.2010 N.am  311  MET311     -0.1979
     97  CA        20.5620   11.7380  121.1300 C.3   311  MET311      0.1605
     98  C         21.4570   12.8140  120.5180 C.2   311  MET311      0.2287
     99  O         21.2340   14.0020  120.7180 O.2   311  MET311     -0.2864
    100  CB        20.0880   12.1550  122.5290 C.3   311  MET311      0.0413
    101  CG        19.2860   11.0720  123.2330 C.3   311  MET311      0.0598
    102  SD        17.8020   10.5480  122.3010 S.3   311  MET311     -0.1393
    103  CE        16.6470   11.8570  122.7180 C.3   311  MET311      0.0692
    104  N         13.9730   18.1360  122.7400 N.3   317  PHE317     -0.1241
    105  CA        12.5610   17.9380  123.0400 C.3   317  PHE317      0.1605
    106  C         11.8770   19.2800  122.8810 C.2   317  PHE317      0.2264
    107  O         10.7730   19.3640  122.3310 O.2   317  PHE317     -0.2867
    108  CB        12.3410   17.3940  124.4550 C.3   317  PHE317      0.0534
    109  CG        12.7960   15.9660  124.6500 C.ar  317  PHE317     -0.0203
    110  CD1       13.1330   15.1700  123.5690 C.ar  317  PHE317     -0.0042
    111  CD2       12.8870   15.4240  125.9310 C.ar  317  PHE317     -0.0042
    112  CE1       13.5540   13.8630  123.7620 C.ar  317  PHE317     -0.0003
    113  CE2       13.3170   14.1160  126.1300 C.ar  317  PHE317     -0.0003
    114  CZ        13.6390   13.3340  125.0460 C.ar  317  PHE317     -0.0000
    115  N         24.6330    7.0260  117.3420 N.3   407  ARG407     -0.1245
    116  CA        23.3930    7.0720  116.5770 C.3   407  ARG407      0.1563
    117  C         23.5630    7.9390  115.3280 C.2   407  ARG407      0.2260
    118  O         23.4080    7.4630  114.2050 O.2   407  ARG407     -0.2867
    119  CB        22.1960    7.5200  117.4160 C.3   407  ARG407      0.0307
    120  CG        20.8560    7.3820  116.6600 C.3   407  ARG407      0.0489
    121  CD        19.6320    7.4740  117.5680 C.3   407  ARG407      0.2205
    122  NE        19.3110    8.8550  117.9060 N.pl3 407  ARG407     -0.0865
    123  CZ        18.3000    9.2180  118.6850 C.cat 407  ARG407      0.5346
    124  NH1       18.0850   10.5100  118.9650 N.pl3 407  ARG407      0.1354
    125  NH2       17.5050    8.2840  119.1810 N.pl3 407  ARG407      0.1354
    126  N         24.6190    2.1170  115.2640 N.3   420  TRP420     -0.1241
    127  CA        23.4260    1.2880  115.1590 C.3   420  TRP420      0.1605
    128  C         22.3220    2.0850  114.4770 C.2   420  TRP420      0.2264
    129  O         22.3480    3.3140  114.4760 O.2   420  TRP420     -0.2867
    130  CB        22.9940    0.7650  116.5270 C.3   420  TRP420      0.0550
    131  CG        21.9590    1.5490  117.2650 C.ar  420  TRP420      0.0003
    132  CD1       20.6140    1.2720  117.3310 C.ar  420  TRP420      0.0946
    133  CD2       22.1720    2.6870  118.1100 C.ar  420  TRP420      0.0152
    134  NE1       19.9840    2.1830  118.1410 N.ar  420  TRP420     -0.2442
    135  CE2       20.9110    3.0600  118.6310 C.ar  420  TRP420      0.0810
    136  CE3       23.2950    3.4370  118.4600 C.ar  420  TRP420      0.0012
    137  CZ2       20.7520    4.1430  119.4920 C.ar  420  TRP420      0.0191
    138  CZ3       23.1350    4.5220  119.3110 C.ar  420  TRP420      0.0001
    139  CH2       21.8750    4.8630  119.8190 C.ar  420  TRP420      0.0015
    140  N         16.0850    3.8660  116.0860 N.3   423  ASP423     -0.1239
    141  CA        14.7780    3.3900  116.5420 C.3   423  ASP423      0.1674
    142  C         13.9210    2.7810  115.4420 C.2   423  ASP423      0.2266
    143  O         13.0180    3.4250  114.9090 O.2   423  ASP423     -0.2867
    144  CB        14.0060    4.5260  117.2210 C.3   423  ASP423      0.1410
    145  CG        14.7460    5.0810  118.4110 C.2   423  ASP423      0.3668
    146  OD1       15.6500    4.3650  118.9020 O.co2 423  ASP423     -0.2456
    147  OD2       14.4300    6.2130  118.8500 O.co2 423  ASP423     -0.2456
    148  N         11.2510   -0.5140  114.3940 N.3   425  LYS425     -0.1245
    149  CA        10.0890   -1.0640  115.0850 C.3   425  LYS425      0.1561
    150  C          9.9530   -2.5730  114.8710 C.2   425  LYS425      0.2260
    151  O         10.5240   -3.1370  113.9380 O.2   425  LYS425     -0.2867
    152  CB         8.8110   -0.3290  114.6500 C.3   425  LYS425      0.0271
    153  CG         8.6400    1.0560  115.2760 C.3   425  LYS425      0.0035
    154  CD         7.4880    1.7990  114.6370 C.3   425  LYS425      0.0206
    155  CE         7.1610    3.0940  115.3640 C.3   425  LYS425      0.1093
    156  NZ         6.7430    2.8610  116.7760 N.3   425  LYS425     -0.1314
    157  N         12.9340   -2.1270  118.0270 N.3   456  PHE456     -0.1227
    158  CA        12.8940   -1.2560  119.1990 C.3   456  PHE456      0.1736
    159  C         11.4600   -0.8380  119.5840 C.2   456  PHE456      0.2596
    160  O         10.9970   -1.0900  120.7020 O.2   456  PHE456     -0.2718
    161  CB        13.7410   -0.0040  118.9500 C.3   456  PHE456      0.0547
    162  CG        13.6810    1.0030  120.0720 C.ar  456  PHE456     -0.0202
    163  CD1       14.3360    0.7630  121.2790 C.ar  456  PHE456     -0.0042
    164  CD2       12.9810    2.1920  119.9200 C.ar  456  PHE456     -0.0042
    165  CE1       14.2850    1.6910  122.3200 C.ar  456  PHE456     -0.0003
    166  CE2       12.9170    3.1210  120.9520 C.ar  456  PHE456     -0.0003
    167  CZ        13.5710    2.8720  122.1530 C.ar  456  PHE456     -0.0000
    168  N         10.7730   -0.1690  118.6630 N.am  457  GLY457     -0.1942
    169  CA         9.4070    0.2500  118.9150 C.3   457  GLY457      0.2014
    170  C          8.4270   -0.9100  118.8730 C.2   457  GLY457      0.2638
    171  O          8.7180   -1.9410  118.2680 O.2   457  GLY457     -0.2714
    172  N          7.2850   -0.7370  119.5400 N.am  458  ASP458     -0.1971
    173  CA         6.1400   -1.6580  119.4670 C.3   458  ASP458      0.1709
    174  C          6.4600   -3.0920  119.9050 C.2   458  ASP458      0.2293
    175  O          7.5990   -3.4010  120.2420 O.2   458  ASP458     -0.2864
    176  CB         5.5140   -1.6240  118.0720 C.3   458  ASP458      0.1436
    177  CG         5.1610   -0.2080  117.6250 C.2   458  ASP458      0.3671
    178  OD1        4.8200    0.6350  118.4920 O.co2 458  ASP458     -0.2456
    179  OD2        5.2320    0.0590  116.4030 O.co2 458  ASP458     -0.2456
    180  N         17.4820   -4.9090  121.4920 N.3   481  HIS481     -0.1241
    181  CA        17.1290   -3.7220  122.2570 C.3   481  HIS481      0.1621
    182  C         15.6160   -3.4780  122.0830 C.2   481  HIS481      0.2264
    183  O         15.0620   -3.7390  121.0110 O.2   481  HIS481     -0.2867
    184  CB        17.9700   -2.5350  121.7520 C.3   481  HIS481      0.0745
    185  CG        17.8060   -1.2810  122.5500 C.ar  481  HIS481      0.0817
    186  ND1       17.7230   -1.2780  123.9270 N.ar  481  HIS481     -0.2268
    187  CD2       17.7270    0.0150  122.1610 C.ar  481  HIS481      0.1154
    188  CE1       17.5730   -0.0320  124.3520 C.ar  481  HIS481      0.1986
    189  NE2       17.5840    0.7710  123.3030 N.ar  481  HIS481     -0.2212
    190  N         12.1050   -0.7930  123.3460 N.3   483  ALA483     -0.1231
    191  CA        11.6810    0.4510  123.9790 C.3   483  ALA483      0.1694
    192  C         10.9560    0.1800  125.2950 C.2   483  ALA483      0.2591
    193  O         10.6860   -0.9680  125.6370 O.2   483  ALA483     -0.2718
    194  CB        10.8150    1.2670  123.0320 C.3   483  ALA483      0.0304
    195  N         10.6410    1.2340  126.0360 N.am  484  GLU484     -0.1979
    196  CA        10.0160    1.0630  127.3370 C.3   484  GLU484      0.1602
    197  C          8.5240    0.7560  127.1930 C.2   484  GLU484      0.2287
    198  O          7.8920    1.1520  126.2120 O.2   484  GLU484     -0.2864
    199  CB        10.2410    2.2980  128.2140 C.3   484  GLU484      0.0415
    200  CG         9.6670    3.5870  127.6640 C.3   484  GLU484      0.1163
    201  CD         9.7280    4.7250  128.6770 C.2   484  GLU484      0.3649
    202  OE1        9.7000    5.9010  128.2490 O.co2 484  GLU484     -0.2457
    203  OE2        9.8100    4.4450  129.8980 O.co2 484  GLU484     -0.2457
@<TRIPOS>BOND
     1    19    18    2
     2    18    17    1
     3    22    20    1
     4    20    17    1
     5    20    21    1
     6    17    16    1
     7    16    11   am
     8   151   150    2
     9   118   117    2
    10    21    23    1
    11   148   149    1
    12   129   128    2
    13   128   127    1
    14   154   153    1
    15   154   155    1
    16   152   149    1
    17   152   153    1
    18     1     2    1
    19   150   149    1
    20    11    12    2
    21    11    10    1
    22   143   142    2
    23   127   126    1
    24   127   130    1
    25   117   116    1
    26   155   156    1
    27     9    10    1
    28     9    15    1
    29     3     2    1
    30     3     4    2
    31   142   141    1
    32     2     5    1
    33    10    13    1
    34   140   141    1
    35    15    14    1
    36   179   177   ar
    37   130   131    1
    38   141   144    1
    39   116   115    1
    40   116   119    1
    41   120   119    1
    42   120   121    1
    43     5     6    1
    44    13    14    1
    45   144   145    1
    46   131   132   ar
    47   131   133   ar
    48   132   134   ar
    49   121   122    1
    50   177   176    1
    51   177   178   ar
    52   122   123    2
    53     8     6   ar
    54   157   158    1
    55   176   173    1
    56   133   136   ar
    57   133   135   ar
    58   134   135   ar
    59     6     7   ar
    60   171   170    2
    61   145   147   ar
    62   145   146   ar
    63   136   138   ar
    64   135   137   ar
    65   168   169    1
    66   168   159   am
    67   123   124    1
    68   123   125    1
    69   170   169    1
    70   170   172   am
    71   161   158    1
    72   161   162    1
    73   158   159    1
    74   138   139   ar
    75   173   172    1
    76   173   174    1
    77   137   139   ar
    78   159   160    2
    79   174   175    2
    80   164   162   ar
    81   164   166   ar
    82   162   163   ar
    83    98    99    2
    84    98    97    1
    85    94    93   ar
    86   166   167   ar
    87   183   182    2
    88    97    96    1
    89    97   100    1
    90    96    90   am
    91   163   165   ar
    92   180   181    1
    93   184   181    1
    94   184   185    1
    95    89    90    1
    96    89    88    1
    97    89    92    1
    98    90    91    2
    99    93    92    1
   100    93    95   ar
   101   182   181    1
   102   167   165   ar
   103   187   185   ar
   104   187   189   ar
   105   102   103    1
   106   102   101    1
   107   107   106    2
   108   100   101    1
   109   185   186   ar
   110   104   105    1
   111    78    75    1
   112    78    79    1
   113    84    86   ar
   114    84    81   ar
   115   106   105    1
   116   194   191    1
   117   105   108    1
   118    75    76    1
   119    75    74    1
   120    86    87   ar
   121    76    77    2
   122   189   188   ar
   123   190   191    1
   124   110   112   ar
   125   110   109   ar
   126   112   114   ar
   127    81    79   ar
   128    81    83   ar
   129    79    80   ar
   130   186   188   ar
   131   191   192    1
   132    87    85   ar
   133   108   109    1
   134   109   111   ar
   135   114   113   ar
   136    83    85   ar
   137    83    82   ar
   138    80    82   ar
   139   192   193    2
   140   192   195   am
   141    71    73   ar
   142    71    69   ar
   143    59    57    1
   144    57    56    1
   145    73    72   ar
   146   111   113   ar
   147    68    69   ar
   148    68    66   ar
   149   195   196    1
   150    69    67   ar
   151   198   197    2
   152    42    41   ar
   153    31    33   ar
   154    31    29   ar
   155    28    29    1
   156    28    25    1
   157    56    53    1
   158    56    58    1
   159    66    65   ar
   160    72    70   ar
   161    33    34   ar
   162    53    54    1
   163    53    52    1
   164    24    25    1
   165   197   196    1
   166   196   199    1
   167    43    41   ar
   168    29    30   ar
   169    67    70   ar
   170    67    65   ar
   171    41    40    1
   172    54    55    2
   173   200   199    1
   174   200   201    1
   175    25    26    1
   176    65    64    1
   177    60    61    1
   178   202   201   ar
   179    34    35    1
   180    34    32   ar
   181   201   203   ar
   182    30    32   ar
   183    50    48    1
   184    40    37    1
   185    27    26    2
   186    51    49    1
   187    37    36    1
   188    37    38    1
   189    64    61    1
   190    61    62    1
   191    49    48    1
   192    44    38   am
   193    44    45    1
   194    48    45    1
   195    38    39    2
   196    62    63    2
   197    45    46    1
   198    46    47    2
