@<TRIPOS>MOLECULE
tmp/3phcB00.pdb
 160 152 0 0 0
SMALL
GASTEIGER

@<TRIPOS>ATOM
      1  N          0.1030    9.0670  -30.3450 N.3    21  GLY21      -0.1225
      2  CA        -0.5910    9.9140  -29.3700 C.3    21  GLY21       0.1811
      3  C         -1.2010   11.1510  -30.0090 C.2    21  GLY21       0.2280
      4  O         -2.2950   11.5930  -29.6480 O.2    21  GLY21      -0.2866
      5  N          0.0800   13.3750  -36.0200 N.3    25  ARG25      -0.1245
      6  CA         0.9960   12.3560  -36.5270 C.3    25  ARG25       0.1563
      7  C          0.2980   11.4020  -37.4830 C.2    25  ARG25       0.2260
      8  O          0.9150   10.9030  -38.4110 O.2    25  ARG25      -0.2867
      9  CB         1.6920   11.5750  -35.3990 C.3    25  ARG25       0.0307
     10  CG         2.9940   10.8920  -35.8630 C.3    25  ARG25       0.0489
     11  CD         3.8040   10.2680  -34.7050 C.3    25  ARG25       0.2205
     12  NE         4.1490   11.2570  -33.6900 N.pl3  25  ARG25      -0.0865
     13  CZ         3.9220   11.1270  -32.3870 C.cat  25  ARG25       0.5346
     14  NH1        3.3770   10.0200  -31.8910 N.pl3  25  ARG25       0.1354
     15  NH2        4.2710   12.1030  -31.5720 N.pl3  25  ARG25       0.1354
     16  N         -4.2160   10.0060  -28.0060 N.3    63  GLY63      -0.1210
     17  CA        -4.1130   11.1550  -27.1030 C.3    63  GLY63       0.1956
     18  C         -3.0360   11.0320  -26.0370 C.2    63  GLY63       0.2611
     19  O         -2.3880    9.9830  -25.9080 O.2    63  GLY63      -0.2717
     20  N         -2.8500   12.1090  -25.2640 N.am   64  VAL64      -0.1979
     21  CA        -1.8540   12.1390  -24.1870 C.3    64  VAL64       0.1595
     22  C         -2.3890   11.4270  -22.9340 C.2    64  VAL64       0.2287
     23  O         -3.4110   11.8390  -22.3710 O.2    64  VAL64      -0.2864
     24  CB        -1.4800   13.5970  -23.7950 C.3    64  VAL64       0.0276
     25  CG1       -0.5660   13.6110  -22.5510 C.3    64  VAL64       0.0022
     26  CG2       -0.8470   14.3410  -24.9540 C.3    64  VAL64       0.0022
     27  N          2.4170    0.8620  -30.8370 N.3    86  ARG86      -0.1245
     28  CA         2.5110    2.2590  -30.5340 C.3    86  ARG86       0.1563
     29  C          3.8050    2.8140  -31.1320 C.2    86  ARG86       0.2260
     30  O          4.8890    2.2550  -30.9490 O.2    86  ARG86      -0.2867
     31  CB         2.4250    2.5040  -29.0190 C.3    86  ARG86       0.0307
     32  CG         2.8140    3.9060  -28.6140 C.3    86  ARG86       0.0489
     33  CD         2.4790    4.2470  -27.1660 C.3    86  ARG86       0.2205
     34  NE         3.4200    5.2440  -26.6430 N.pl3  86  ARG86      -0.0865
     35  CZ         3.4830    6.5200  -27.0240 C.cat  86  ARG86       0.5346
     36  NH1        2.6520    6.9950  -27.9430 N.pl3  86  ARG86       0.1354
     37  NH2        4.3980    7.3250  -26.4880 N.pl3  86  ARG86       0.1354
     38  N          6.7510    9.3100  -29.0960 N.3    89  SER89      -0.1202
     39  CA         7.9830    9.9460  -28.6790 C.3    89  SER89       0.2020
     40  C          8.2700    9.5440  -27.2280 C.2    89  SER89       0.2619
     41  O          7.4670    8.8410  -26.6040 O.2    89  SER89      -0.2717
     42  CB         7.8750   11.4650  -28.8270 C.3    89  SER89       0.2103
     43  OG         6.7340   11.9550  -28.1480 O.3    89  SER89      -0.2182
     44  N          9.4140    9.9830  -26.7070 N.am   90  CYS90      -0.1955
     45  CA         9.8270    9.6770  -25.3430 C.3    90  CYS90       0.1843
     46  C         10.9230   10.6420  -24.9140 C.2    90  CYS90       0.2626
     47  O         11.5140   11.3280  -25.7520 O.2    90  CYS90      -0.2714
     48  CB        10.3230    8.2210  -25.2310 C.3    90  CYS90       0.0997
     49  SG        11.8140    7.8490  -26.1910 S.3    90  CYS90      -0.0797
     50  N         11.1900   10.6900  -23.6140 N.am   91  GLY91      -0.1954
     51  CA        12.3980   11.3320  -23.1020 C.3    91  GLY91       0.1869
     52  C         13.4620   10.2740  -22.8510 C.2    91  GLY91       0.2309
     53  O         13.1500    9.0960  -22.6730 O.2    91  GLY91      -0.2863
     54  N          4.8280    6.9220  -17.3170 N.3   155  SER155     -0.1217
     55  CA         4.4880    7.6890  -16.1350 C.3   155  SER155      0.1889
     56  C          3.3630    8.6870  -16.3800 C.2   155  SER155      0.2288
     57  O          3.4170    9.4780  -17.3330 O.2   155  SER155     -0.2866
     58  CB         5.7250    8.4240  -15.6040 C.3   155  SER155      0.2089
     59  OG         5.3780    9.2830  -14.5200 O.3   155  SER155     -0.2183
     60  N          2.8900   11.2440  -14.6770 N.3   157  MET157     -0.1230
     61  CA         3.3790   12.5830  -14.3480 C.3   157  MET157      0.1702
     62  C          4.3980   13.0950  -15.3540 C.2   157  MET157      0.2592
     63  O          5.4700   12.5330  -15.4960 O.2   157  MET157     -0.2718
     64  CB         3.9930   12.6210  -12.9510 C.3   157  MET157      0.0401
     65  CG         4.3220   14.0390  -12.4730 C.3   157  MET157      0.0596
     66  SD         4.8510   14.0250  -10.7550 S.3   157  MET157     -0.1393
     67  CE         6.3770   13.0820  -10.8810 C.3   157  MET157      0.0692
     68  N          4.0530   14.1740  -16.0380 N.am  158  TYR158     -0.1976
     69  CA         4.9580   14.8290  -16.9670 C.3   158  TYR158      0.1639
     70  C          5.6730   15.9960  -16.2890 C.2   158  TYR158      0.2290
     71  O          6.8760   16.1830  -16.4670 O.2   158  TYR158     -0.2864
     72  CB         4.1660   15.3140  -18.1700 C.3   158  TYR158      0.0560
     73  CG         4.9920   15.9090  -19.2690 C.ar  158  TYR158     -0.0198
     74  CD1        5.4970   15.1010  -20.2970 C.ar  158  TYR158     -0.0009
     75  CD2        5.2640   17.2800  -19.2950 C.ar  158  TYR158     -0.0009
     76  CE1        6.2470   15.6370  -21.3190 C.ar  158  TYR158      0.0417
     77  CE2        6.0220   17.8370  -20.3270 C.ar  158  TYR158      0.0417
     78  CZ         6.5080   17.0120  -21.3300 C.ar  158  TYR158      0.1957
     79  OH         7.2520   17.5540  -22.3380 O.3   158  TYR158     -0.2866
     80  N         11.4780    7.2990  -21.1010 N.3   179  VAL179     -0.1231
     81  CA        10.2070    7.5970  -20.4520 C.3   179  VAL179      0.1692
     82  C          9.1810    8.1590  -21.4410 C.2   179  VAL179      0.2592
     83  O          9.4790    9.0490  -22.2380 O.2   179  VAL179     -0.2718
     84  CB        10.3810    8.5410  -19.2110 C.3   179  VAL179      0.0266
     85  CG1       11.0940    9.8670  -19.5830 C.3   179  VAL179      0.0020
     86  CG2        9.0300    8.7970  -18.5040 C.3   179  VAL179      0.0020
     87  N          7.9700    7.6080  -21.3940 N.am  180  GLU180     -0.1966
     88  CA         6.8130    8.2480  -22.0100 C.3   180  GLU180      0.1733
     89  C          5.5970    8.0080  -21.1010 C.2   180  GLU180      0.2616
     90  O          5.7610    7.9700  -19.8790 O.2   180  GLU180     -0.2715
     91  CB         6.6040    7.8060  -23.4740 C.3   180  GLU180      0.0429
     92  CG         6.9000    6.3600  -23.7510 C.3   180  GLU180      0.1163
     93  CD         5.7930    5.4580  -23.2790 C.2   180  GLU180      0.3649
     94  OE1        5.9790    4.7660  -22.2480 O.co2 180  GLU180     -0.2457
     95  OE2        4.7260    5.4590  -23.9290 O.co2 180  GLU180     -0.2457
     96  N          4.4000    7.8420  -21.6630 N.am  181  MET181     -0.1963
     97  CA         3.1900    7.9420  -20.8360 C.3   181  MET181      0.1736
     98  C          2.1030    6.9030  -21.1120 C.2   181  MET181      0.2616
     99  O          1.0820    6.8870  -20.4260 O.2   181  MET181     -0.2715
    100  CB         2.5880    9.3620  -20.9280 C.3   181  MET181      0.0427
    101  CG         3.4890   10.4930  -20.4140 C.3   181  MET181      0.0599
    102  SD         2.7650   12.1620  -20.5450 S.3   181  MET181     -0.1393
    103  CE         1.4860   12.1040  -19.2840 C.3   181  MET181      0.0692
    104  N          2.3090    6.0270  -22.0890 N.am  182  GLU182     -0.1977
    105  CA         1.2080    5.1670  -22.5460 C.3   182  GLU182      0.1602
    106  C          1.5540    3.6800  -22.7360 C.2   182  GLU182      0.2287
    107  O          0.6730    2.8100  -22.6960 O.2   182  GLU182     -0.2864
    108  CB         0.6280    5.7210  -23.8650 C.3   182  GLU182      0.0415
    109  CG        -0.0070    7.1130  -23.7830 C.3   182  GLU182      0.1163
    110  CD         0.9680    8.2540  -24.0210 C.2   182  GLU182      0.3649
    111  OE1        2.1650    8.0090  -24.3200 O.co2 182  GLU182     -0.2457
    112  OE2        0.5270    9.4150  -23.9150 O.co2 182  GLU182     -0.2457
    113  N         12.7970   12.9670  -27.5570 N.3   204  ASP204     -0.1239
    114  CA        12.4960   14.3780  -27.8050 C.3   204  ASP204      0.1674
    115  C         13.2120   15.3310  -26.8480 C.2   204  ASP204      0.2266
    116  O         13.0460   16.5470  -26.9270 O.2   204  ASP204     -0.2867
    117  CB        10.9710   14.6310  -27.8690 C.3   204  ASP204      0.1410
    118  CG        10.3030   14.8070  -26.4930 C.2   204  ASP204      0.3668
    119  OD1       10.9270   14.5890  -25.4270 O.co2 204  ASP204     -0.2456
    120  OD2        9.1070   15.1850  -26.4900 O.co2 204  ASP204     -0.2456
    121  N         14.2760   14.6450  -19.5310 N.3   207  PRO207     -0.2116
    122  CA        13.6340   15.3210  -18.3980 C.3   207  PRO207      0.1372
    123  C         14.5960   15.6970  -17.2650 C.2   207  PRO207      0.2244
    124  O         14.3080   16.6260  -16.5120 O.2   207  PRO207     -0.2868
    125  CB        12.5810   14.3040  -17.9170 C.3   207  PRO207      0.0268
    126  CG        13.0290   13.0030  -18.4470 C.3   207  PRO207      0.0207
    127  CD        13.7090   13.3030  -19.7530 C.3   207  PRO207      0.0892
    128  N         15.8680   19.3030  -18.7210 N.3   210  TRP210     -0.1241
    129  CA        14.9400   20.2840  -19.2910 C.3   210  TRP210      0.1605
    130  C         15.3670   21.7120  -18.9650 C.2   210  TRP210      0.2264
    131  O         15.2540   22.6050  -19.8120 O.2   210  TRP210     -0.2867
    132  CB        13.5040   20.0480  -18.8150 C.3   210  TRP210      0.0550
    133  CG        12.7900   18.9230  -19.5120 C.ar  210  TRP210      0.0003
    134  CD1       13.1990   18.2460  -20.6350 C.ar  210  TRP210      0.0946
    135  CD2       11.5210   18.3680  -19.1530 C.ar  210  TRP210      0.0152
    136  NE1       12.2670   17.2980  -20.9860 N.ar  210  TRP210     -0.2442
    137  CE2       11.2270   17.3500  -20.0930 C.ar  210  TRP210      0.0810
    138  CE3       10.6050   18.6260  -18.1220 C.ar  210  TRP210      0.0012
    139  CZ2       10.0530   16.5890  -20.0330 C.ar  210  TRP210      0.0191
    140  CZ3        9.4330   17.8750  -18.0650 C.ar  210  TRP210      0.0001
    141  CH2        9.1720   16.8640  -19.0140 C.ar  210  TRP210      0.0015
    142  N         15.3790   19.8380  -24.7550 N.3   215  PHE215     -0.1241
    143  CA        14.0100   19.4790  -25.1490 C.3   215  PHE215      0.1605
    144  C         13.5420   20.2320  -26.3970 C.2   215  PHE215      0.2264
    145  O         13.7270   21.4440  -26.5040 O.2   215  PHE215     -0.2867
    146  CB        13.0220   19.7550  -23.9990 C.3   215  PHE215      0.0534
    147  CG        11.5760   19.5350  -24.3750 C.ar  215  PHE215     -0.0203
    148  CD1       11.0040   18.2600  -24.2880 C.ar  215  PHE215     -0.0042
    149  CD2       10.7920   20.5950  -24.8450 C.ar  215  PHE215     -0.0042
    150  CE1        9.6690   18.0450  -24.6500 C.ar  215  PHE215     -0.0003
    151  CE2        9.4560   20.3860  -25.2180 C.ar  215  PHE215     -0.0003
    152  CZ         8.8940   19.1110  -25.1150 C.ar  215  PHE215     -0.0000
    153  N          9.8310   19.9180  -28.8350 N.3   217  ASN217     -0.1240
    154  CA         8.5670   19.3360  -29.3110 C.3   217  ASN217      0.1653
    155  C          8.5900   18.8940  -30.7740 C.2   217  ASN217      0.2266
    156  O          7.9210   17.9180  -31.1480 O.2   217  ASN217     -0.2867
    157  CB         7.4100   20.3250  -29.1010 C.3   217  ASN217      0.1155
    158  CG         6.6680   20.0940  -27.7980 C.2   217  ASN217      0.2627
    159  OD1        6.4890   21.0170  -27.0020 O.2   217  ASN217     -0.2716
    160  ND2        6.2240   18.8580  -27.5750 N.am  217  ASN217     -0.0877
@<TRIPOS>BOND
     1     8     7    2
     2     7     6    1
     3     6     5    1
     4     6     9    1
     5    10     9    1
     6    10    11    1
     7    11    12    1
     8    12    13    2
     9    13    14    1
    10    13    15    1
    11   156   155    2
    12    29    30    2
    13    29    28    1
    14    27    28    1
    15   155   154    1
    16    28    31    1
    17     1     2    1
    18     3     4    2
    19     3     2    1
    20   154   157    1
    21   154   153    1
    22   157   158    1
    23    38    39    1
    24    31    32    1
    25    42    39    1
    26    42    43    1
    27    39    40    1
    28    32    33    1
    29    16    17    1
    30    36    35    1
    31   117   114    1
    32   117   118    1
    33   114   113    1
    34   114   115    1
    35   158   160   am
    36   158   159    2
    37    40    44   am
    38    40    41    2
    39    33    34    1
    40    17    18    1
    41    35    34    2
    42    35    37    1
    43   116   115    2
    44    44    45    1
    45   145   144    2
    46   118   120   ar
    47   118   119   ar
    48   144   143    1
    49    49    48    1
    50    18    19    2
    51    18    20   am
    52    47    46    2
    53    45    48    1
    54    45    46    1
    55    20    21    1
    56   151   152   ar
    57   151   149   ar
    58   143   142    1
    59   143   146    1
    60   152   150   ar
    61    26    24    1
    62    46    50   am
    63   149   147   ar
    64   150   148   ar
    65   147   148   ar
    66   147   146    1
    67   111   110   ar
    68    21    24    1
    69    21    22    1
    70   110   112   ar
    71   110   109    1
    72    95    93   ar
    73   108   109    1
    74   108   105    1
    75    24    25    1
    76    92    91    1
    77    92    93    1
    78    50    51    1
    79    91    88    1
    80    93    94   ar
    81    51    52    1
    82    22    23    2
    83    52    53    2
    84   106   107    2
    85   106   105    1
    86   105   104    1
    87    79    78    1
    88    83    82    2
    89   104    98   am
    90    88    87    1
    91    88    89    1
    92    96    89   am
    93    96    97    1
    94    82    87   am
    95    82    81    1
    96    78    76   ar
    97    78    77   ar
    98    76    74   ar
    99    98    97    1
   100    98    99    2
   101    89    90    2
   102    80    81    1
   103   136   134   ar
   104   136   137   ar
   105   100    97    1
   106   100   101    1
   107   134   133   ar
   108   102   101    1
   109   102   103    1
   110    81    84    1
   111    77    75   ar
   112    74    73   ar
   113   137   139   ar
   114   137   135   ar
   115   139   141   ar
   116   131   130    2
   117   127   121    1
   118   127   126    1
   119    85    84    1
   120   121   122    1
   121   133   135   ar
   122   133   132    1
   123    75    73   ar
   124   129   130    1
   125   129   132    1
   126   129   128    1
   127    73    72    1
   128    84    86    1
   129   135   138   ar
   130   141   140   ar
   131   126   125    1
   132   122   125    1
   133   122   123    1
   134    72    69    1
   135   138   140   ar
   136    57    56    2
   137    54    55    1
   138   123   124    2
   139    69    70    1
   140    69    68    1
   141    71    70    2
   142    56    55    1
   143    55    58    1
   144    68    62   am
   145    58    59    1
   146    63    62    2
   147    62    61    1
   148    60    61    1
   149    61    64    1
   150    64    65    1
   151    65    66    1
   152    67    66    1
