@<TRIPOS>MOLECULE
tmp/3phdB00.pdb
 128 125 0 0 0
SMALL
GASTEIGER

@<TRIPOS>ATOM
      1  N        -36.5650   58.4600   19.8210 N.3    33  GLU33      -0.1245
      2  CA       -35.4290   58.2680   18.8870 C.3    33  GLU33       0.1567
      3  C        -34.2490   57.3530   19.2980 C.2    33  GLU33       0.2260
      4  O        -33.1370   57.8480   19.4280 O.2    33  GLU33      -0.2867
      5  CB       -34.8940   59.6250   18.4090 C.3    33  GLU33       0.0388
      6  CG       -35.6760   60.2490   17.2780 C.3    33  GLU33       0.1160
      7  CD       -35.1010   61.5760   16.8510 C.2    33  GLU33       0.3649
      8  OE1      -34.0090   61.5730   16.2360 O.co2  33  GLU33      -0.2457
      9  OE2      -35.7050   62.6210   17.1850 O.co2  33  GLU33      -0.2457
     10  N        -31.5120   53.9720   18.6530 N.3    35  TRP35      -0.1241
     11  CA       -30.8490   53.1530   17.6420 C.3    35  TRP35       0.1605
     12  C        -30.3170   51.8520   18.2870 C.2    35  TRP35       0.2264
     13  O        -30.0970   51.8160   19.5060 O.2    35  TRP35      -0.2867
     14  CB       -29.6930   53.9500   16.9880 C.3    35  TRP35       0.0550
     15  CG       -30.1240   55.1790   16.2300 C.ar   35  TRP35       0.0003
     16  CD1      -30.6420   56.3320   16.7560 C.ar   35  TRP35       0.0946
     17  CD2      -30.0180   55.3990   14.8120 C.ar   35  TRP35       0.0152
     18  NE1      -30.8760   57.2500   15.7510 N.ar   35  TRP35      -0.2442
     19  CE2      -30.5230   56.6930   14.5460 C.ar   35  TRP35       0.0810
     20  CE3      -29.5390   54.6310   13.7410 C.ar   35  TRP35       0.0012
     21  CZ2      -30.5540   57.2330   13.2550 C.ar   35  TRP35       0.0191
     22  CZ3      -29.6250   55.1440   12.4510 C.ar   35  TRP35       0.0001
     23  CH2      -30.0970   56.4410   12.2200 C.ar   35  TRP35       0.0015
     24  N        -30.2980   58.6970   19.8660 N.3    46  GLY46      -0.1210
     25  CA       -29.5920   59.3620   18.7770 C.3    46  GLY46       0.1956
     26  C        -29.0470   60.7290   19.1330 C.2    46  GLY46       0.2612
     27  O        -29.3510   61.2600   20.2010 O.2    46  GLY46      -0.2717
     28  N        -28.2840   61.3310   18.1960 N.am   47  ARG47      -0.1965
     29  CA       -27.6510   62.6430   18.3300 C.3    47  ARG47       0.1729
     30  C        -28.6020   63.7680   18.7280 C.2    47  ARG47       0.2616
     31  O        -28.1940   64.6560   19.4790 O.2    47  ARG47      -0.2715
     32  CB       -26.8250   63.0120   17.0780 C.3    47  ARG47       0.0348
     33  CG       -27.6150   63.1750   15.7890 C.3    47  ARG47       0.0492
     34  CD       -26.7140   63.5900   14.6480 C.3    47  ARG47       0.2205
     35  NE       -25.8830   62.4810   14.1940 N.pl3  47  ARG47      -0.0865
     36  CZ       -24.5690   62.5530   13.9970 C.cat  47  ARG47       0.5346
     37  NH1      -23.9000   61.4990   13.5500 N.pl3  47  ARG47       0.1354
     38  NH2      -23.9240   63.6980   14.1860 N.pl3  47  ARG47       0.1354
     39  N        -29.8660   63.7260   18.2510 N.am   48  TYR48      -0.1974
     40  CA       -30.8380   64.7720   18.5620 C.3    48  TYR48       0.1639
     41  C        -31.4790   64.6640   19.9440 C.2    48  TYR48       0.2290
     42  O        -32.0890   65.6220   20.4250 O.2    48  TYR48      -0.2864
     43  CB       -31.8140   65.0300   17.4040 C.3    48  TYR48       0.0560
     44  CG       -31.0930   65.2280   16.0880 C.ar   48  TYR48      -0.0198
     45  CD1      -30.1800   66.2710   15.9160 C.ar   48  TYR48      -0.0009
     46  CD2      -31.2470   64.3210   15.0480 C.ar   48  TYR48      -0.0009
     47  CE1      -29.4460   66.4030   14.7340 C.ar   48  TYR48       0.0417
     48  CE2      -30.5390   64.4560   13.8560 C.ar   48  TYR48       0.0417
     49  CZ       -29.6420   65.5000   13.7010 C.ar   48  TYR48       0.1957
     50  OH       -28.9570   65.6310   12.5140 O.3    48  TYR48      -0.2866
     51  N        -25.7520   56.8190   21.5860 N.3    53  MET53      -0.1230
     52  CA       -25.3440   55.8770   20.5570 C.3    53  MET53       0.1702
     53  C        -24.0190   56.3340   19.9790 C.2    53  MET53       0.2592
     54  O        -23.1040   55.5230   19.8490 O.2    53  MET53      -0.2718
     55  CB       -26.4260   55.6990   19.4630 C.3    53  MET53       0.0401
     56  CG       -26.1400   54.5540   18.4990 C.3    53  MET53       0.0596
     57  SD       -25.4760   53.0780   19.3220 S.3    53  MET53      -0.1393
     58  CE       -26.8680   52.1390   19.4470 C.3    53  MET53       0.0692
     59  N        -23.8930   57.6440   19.6820 N.am   54  LEU54      -0.1980
     60  CA       -22.6220   58.1270   19.1700 C.3    54  LEU54       0.1596
     61  C        -21.5140   58.0400   20.1830 C.2    54  LEU54       0.2287
     62  O        -20.3970   57.6910   19.8020 O.2    54  LEU54      -0.2864
     63  CB       -22.6700   59.4070   18.3290 C.3    54  LEU54       0.0297
     64  CG       -22.9090   60.7080   18.9810 C.3    54  LEU54       0.0022
     65  CD1      -21.5970   61.3370   19.3580 C.3    54  LEU54       0.0001
     66  CD2      -23.5780   61.6290   18.0050 C.3    54  LEU54       0.0001
     67  N        -25.2080   51.2910   12.9830 N.3    65  VAL65      -0.1245
     68  CA       -26.3640   51.4100   13.8660 C.3    65  VAL65       0.1561
     69  C        -27.6600   51.5170   13.0500 C.2    65  VAL65       0.2260
     70  O        -27.6800   52.1430   11.9710 O.2    65  VAL65      -0.2867
     71  CB       -26.1970   52.5440   14.9160 C.3    65  VAL65       0.0252
     72  CG1      -24.9840   52.2670   15.7980 C.3    65  VAL65       0.0019
     73  CG2      -26.0950   53.9360   14.2640 C.3    65  VAL65       0.0019
     74  N        -37.2710   54.7260   11.7880 N.3    70  ASP70      -0.1239
     75  CA       -37.4450   54.5040   10.3480 C.3    70  ASP70       0.1674
     76  C        -36.6970   53.2950    9.7480 C.2    70  ASP70       0.2266
     77  O        -36.6470   53.1410    8.5310 O.2    70  ASP70      -0.2867
     78  CB       -37.1520   55.7940    9.5670 C.3    70  ASP70       0.1410
     79  CG       -35.7250   56.2770    9.5950 C.2    70  ASP70       0.3668
     80  OD1      -34.8450   55.5230   10.0730 O.co2  70  ASP70      -0.2456
     81  OD2      -35.4720   57.3920    9.0980 O.co2  70  ASP70      -0.2456
     82  N        -27.0600   53.6310    9.6260 N.3    74  TRP74      -0.1241
     83  CA       -26.0540   54.6730    9.5000 C.3    74  TRP74       0.1605
     84  C        -24.6840   54.1070    9.8000 C.2    74  TRP74       0.2264
     85  O        -24.5470   53.3290   10.7500 O.2    74  TRP74      -0.2867
     86  CB       -26.3800   55.7950   10.4920 C.3    74  TRP74       0.0550
     87  CG       -25.4100   56.9440   10.5060 C.ar   74  TRP74       0.0003
     88  CD1      -24.3880   57.1440   11.3900 C.ar   74  TRP74       0.0946
     89  CD2      -25.3970   58.0670    9.6160 C.ar   74  TRP74       0.0152
     90  NE1      -23.7290   58.3150   11.0990 N.ar   74  TRP74      -0.2442
     91  CE2      -24.3340   58.9100   10.0210 C.ar   74  TRP74       0.0810
     92  CE3      -26.1750   58.4400    8.5020 C.ar   74  TRP74       0.0012
     93  CZ2      -24.0460   60.1220    9.3680 C.ar   74  TRP74       0.0191
     94  CZ3      -25.8960   59.6460    7.8660 C.ar   74  TRP74       0.0001
     95  CH2      -24.8360   60.4680    8.2910 C.ar   74  TRP74       0.0015
     96  N        -21.0990   55.3580   10.9670 N.3    76  TYR76      -0.1241
     97  CA       -20.4190   56.5020   11.5730 C.3    76  TYR76       0.1605
     98  C        -19.1520   56.9200   10.8320 C.2    76  TYR76       0.2264
     99  O        -18.9110   58.1170   10.7100 O.2    76  TYR76      -0.2867
    100  CB       -20.1320   56.2520   13.0520 C.3    76  TYR76       0.0534
    101  CG       -21.3290   56.3920   13.9690 C.ar   76  TYR76      -0.0201
    102  CD1      -21.8760   57.6440   14.2510 C.ar   76  TYR76      -0.0009
    103  CD2      -21.8840   55.2810   14.5990 C.ar   76  TYR76      -0.0009
    104  CE1      -22.9640   57.7850   15.1120 C.ar   76  TYR76       0.0417
    105  CE2      -22.9600   55.4110   15.4770 C.ar   76  TYR76       0.0417
    106  CZ       -23.4870   56.6670   15.7410 C.ar   76  TYR76       0.1957
    107  OH       -24.5060   56.7930   16.6500 O.3    76  TYR76      -0.2866
    108  N        -20.0470   58.1870    7.3420 N.3    79  GLN79      -0.1245
    109  CA       -20.9010   59.3520    7.5550 C.3    79  GLN79       0.1566
    110  C        -22.0230   59.3920    6.5280 C.2    79  GLN79       0.2260
    111  O        -22.2190   60.3930    5.8340 O.2    79  GLN79      -0.2867
    112  CB       -20.0790   60.6460    7.5800 C.3    79  GLN79       0.0367
    113  CG       -19.3030   60.8440    8.8650 C.3    79  GLN79       0.0905
    114  CD       -18.4360   62.0730    8.7710 C.2    79  GLN79       0.2608
    115  OE1      -18.9160   63.1970    8.6070 O.2    79  GLN79      -0.2717
    116  NE2      -17.1290   61.8800    8.8140 N.am   79  GLN79      -0.0878
    117  N        -25.9790   56.9010    5.2950 N.3    81  TYR81      -0.1241
    118  CA       -26.8930   55.7590    5.4340 C.3    81  TYR81       0.1605
    119  C        -26.4290   54.6920    4.4470 C.2    81  TYR81       0.2264
    120  O        -25.9960   55.0220    3.3360 O.2    81  TYR81      -0.2867
    121  CB       -28.3380   56.1530    5.1530 C.3    81  TYR81       0.0534
    122  CG       -28.9130   57.0870    6.1980 C.ar   81  TYR81      -0.0201
    123  CD1      -29.4730   56.5910    7.3740 C.ar   81  TYR81      -0.0009
    124  CD2      -28.9000   58.4670    6.0100 C.ar   81  TYR81      -0.0009
    125  CE1      -30.0080   57.4460    8.3330 C.ar   81  TYR81       0.0417
    126  CE2      -29.4310   59.3300    6.9610 C.ar   81  TYR81       0.0417
    127  CZ       -29.9710   58.8170    8.1270 C.ar   81  TYR81       0.1957
    128  OH       -30.4900   59.6760    9.0650 O.3    81  TYR81      -0.2866
@<TRIPOS>BOND
     1   120   119    2
     2   119   118    1
     3   121   118    1
     4   121   122    1
     5   117   118    1
     6   111   110    2
     7   124   122   ar
     8   124   126   ar
     9   122   123   ar
    10   110   109    1
    11   126   127   ar
    12   108   109    1
    13   123   125   ar
    14   109   112    1
    15   112   113    1
    16    94    95   ar
    17    94    92   ar
    18   127   125   ar
    19   127   128    1
    20    95    93   ar
    21    92    89   ar
    22    77    76    2
    23   115   114    2
    24   114   116   am
    25   114   113    1
    26    81    79   ar
    27    93    91   ar
    28    83    82    1
    29    83    84    1
    30    83    86    1
    31    78    79    1
    32    78    75    1
    33    79    80   ar
    34    89    91   ar
    35    89    87   ar
    36    76    75    1
    37    84    85    2
    38    91    90   ar
    39    75    74    1
    40    86    87    1
    41    87    88   ar
    42    99    98    2
    43    98    97    1
    44    96    97    1
    45    90    88   ar
    46    97   100    1
    47    70    69    2
    48    23    22   ar
    49    23    21   ar
    50    22    20   ar
    51    50    49    1
    52    67    68    1
    53    69    68    1
    54   100   101    1
    55    21    19   ar
    56    37    36    1
    57    49    48   ar
    58    49    47   ar
    59    20    17   ar
    60    48    46   ar
    61    68    71    1
    62   101   102   ar
    63   101   103   ar
    64    36    38    1
    65    36    35    2
    66    35    34    1
    67   102   104   ar
    68    73    71    1
    69    19    17   ar
    70    19    18   ar
    71   103   105   ar
    72    34    33    1
    73    47    45   ar
    74    17    15   ar
    75    71    72    1
    76    46    44   ar
    77   104   106   ar
    78   105   106   ar
    79   106   107    1
    80    18    16   ar
    81    33    32    1
    82    45    44   ar
    83    44    43    1
    84    15    16   ar
    85    15    14    1
    86     8     7   ar
    87     7     9   ar
    88     7     6    1
    89    14    11    1
    90    32    29    1
    91     6     5    1
    92    43    40    1
    93    11    12    1
    94    11    10    1
    95    66    64    1
    96    28    29    1
    97    28    26   am
    98    39    40    1
    99    39    30   am
   100    12    13    2
   101    63    64    1
   102    63    60    1
   103    29    30    1
   104     5     2    1
   105    56    57    1
   106    56    55    1
   107    40    41    1
   108    30    31    2
   109    25    26    1
   110    25    24    1
   111     2     3    1
   112     2     1    1
   113    64    65    1
   114    26    27    2
   115    60    59    1
   116    60    61    1
   117     3     4    2
   118    57    58    1
   119    55    52    1
   120    59    53   am
   121    62    61    2
   122    54    53    2
   123    41    42    2
   124    53    52    1
   125    52    51    1
