@<TRIPOS>MOLECULE
tmp/3pheD00.pdb
 161 157 0 0 0
SMALL
GASTEIGER

@<TRIPOS>ATOM
      1  N         52.2660   12.5200   30.7600 N.3   414  LEU414     -0.1245
      2  CA        51.6260   11.2380   31.0010 C.3   414  LEU414      0.1561
      3  C         50.6840   10.8700   29.8650 C.2   414  LEU414      0.2260
      4  O         50.6010    9.7040   29.4810 O.2   414  LEU414     -0.2867
      5  CB        50.8460   11.2620   32.3180 C.3   414  LEU414      0.0270
      6  CG        50.0040   10.0050   32.5720 C.3   414  LEU414      0.0019
      7  CD1       50.2140    9.5300   34.0010 C.3   414  LEU414      0.0001
      8  CD2       48.5280   10.2970   32.3010 C.3   414  LEU414      0.0001
      9  N         52.5540    9.8240   26.5570 N.3   417  ARG417     -0.1231
     10  CA        53.1680    8.5210   26.7690 C.3   417  ARG417      0.1694
     11  C         52.0940    7.4420   26.8640 C.2   417  ARG417      0.2591
     12  O         52.1730    6.4100   26.1950 O.2   417  ARG417     -0.2718
     13  CB        54.0010    8.5320   28.0540 C.3   417  ARG417      0.0321
     14  CG        55.1740    9.4980   28.0330 C.3   417  ARG417      0.0489
     15  CD        55.8010    9.6330   29.4140 C.3   417  ARG417      0.2205
     16  NE        56.6820    8.5140   29.7440 N.pl3 417  ARG417     -0.0865
     17  CZ        57.1110    8.2380   30.9730 C.cat 417  ARG417      0.5346
     18  NH1       56.7380    8.9990   31.9940 N.pl3 417  ARG417      0.1354
     19  NH2       57.9200    7.2060   31.1820 N.pl3 417  ARG417      0.1354
     20  N         51.0860    7.6960   27.6910 N.am  418  MET418     -0.1979
     21  CA        50.0830    6.6900   28.0100 C.3   418  MET418      0.1605
     22  C         49.1890    6.3640   26.8190 C.2   418  MET418      0.2287
     23  O         48.9300    5.1980   26.5310 O.2   418  MET418     -0.2864
     24  CB        49.2210    7.1660   29.1830 C.3   418  MET418      0.0413
     25  CG        48.1220    6.2020   29.5880 C.3   418  MET418      0.0598
     26  SD        47.1840    6.8020   31.0180 S.3   418  MET418     -0.1393
     27  CE        46.0810    7.9910   30.2270 C.3   418  MET418      0.0692
     28  N         59.5820    9.6770   33.8500 N.3   469  LEU469     -0.1231
     29  CA        58.8890   10.6470   34.6940 C.3   469  LEU469      0.1693
     30  C         57.7440    9.9680   35.4350 C.2   469  LEU469      0.2592
     31  O         57.0900    9.0740   34.9020 O.2   469  LEU469     -0.2718
     32  CB        58.3490   11.8210   33.8650 C.3   469  LEU469      0.0284
     33  CG        59.3820   12.7690   33.2350 C.3   469  LEU469      0.0019
     34  CD1       58.6850   14.0380   32.7760 C.3   469  LEU469      0.0001
     35  CD2       60.4780   13.1100   34.2410 C.3   469  LEU469      0.0001
     36  N         57.5170   10.3880   36.6740 N.am  470  HIS470     -0.1962
     37  CA        56.4600    9.8070   37.4950 C.3   470  HIS470      0.1787
     38  C         56.1310   10.7180   38.6690 C.2   470  HIS470      0.2621
     39  O         56.7720   11.7500   38.8660 O.2   470  HIS470     -0.2715
     40  CB        56.8760    8.4240   38.0140 C.3   470  HIS470      0.0785
     41  CG        58.0210    8.4590   38.9780 C.ar  470  HIS470      0.0821
     42  ND1       57.8460    8.3890   40.3420 N.ar  470  HIS470     -0.2267
     43  CD2       59.3550    8.5690   38.7740 C.ar  470  HIS470      0.1154
     44  CE1       59.0230    8.4560   40.9390 C.ar  470  HIS470      0.1986
     45  NE2       59.9550    8.5670   40.0100 N.ar  470  HIS470     -0.2212
     46  N         55.1320   10.3210   39.4510 N.am  471  SER471     -0.1936
     47  CA        54.5330   11.2000   40.4490 C.3   471  SER471      0.2055
     48  C         54.3220   12.5990   39.8640 C.2   471  SER471      0.2643
     49  O         54.9340   13.5810   40.2970 O.2   471  SER471     -0.2714
     50  CB        55.3970   11.2500   41.7200 C.3   471  SER471      0.2130
     51  OG        56.7780   11.3230   41.4190 O.3   471  SER471     -0.2179
     52  N         53.4530   12.6650   38.8580 N.am  472  TYR472     -0.1959
     53  CA        53.0420   13.9260   38.2660 C.3   472  TYR472      0.1771
     54  C         52.1960   14.6830   39.2840 C.2   472  TYR472      0.2620
     55  O         51.7530   14.1070   40.2780 O.2   472  TYR472     -0.2715
     56  CB        52.2240   13.6670   36.9980 C.3   472  TYR472      0.0574
     57  CG        53.0210   13.0840   35.8500 C.ar  472  TYR472     -0.0198
     58  CD1       53.2270   11.7110   35.7420 C.ar  472  TYR472     -0.0009
     59  CD2       53.5610   13.9060   34.8690 C.ar  472  TYR472     -0.0009
     60  CE1       53.9490   11.1740   34.6850 C.ar  472  TYR472      0.0417
     61  CE2       54.2800   13.3820   33.8130 C.ar  472  TYR472      0.0417
     62  CZ        54.4720   12.0170   33.7220 C.ar  472  TYR472      0.1957
     63  OH        55.1750   11.5010   32.6580 O.3   472  TYR472     -0.2866
     64  N         51.9740   15.9700   39.0390 N.am  473  SER473     -0.1936
     65  CA        51.1820   16.7900   39.9490 C.3   473  SER473      0.2040
     66  C         49.7090   16.4020   39.8520 C.2   473  SER473      0.2485
     67  O         49.1990   16.1380   38.7650 O.2   473  SER473     -0.2729
     68  CB        51.3380   18.2690   39.5990 C.3   473  SER473      0.2129
     69  OG        50.5470   18.5980   38.4710 O.3   473  SER473     -0.2179
     70  N         49.0050   16.3730   40.9940 N.am  474  PRO474     -0.2726
     71  CA        47.5820   16.0180   40.9960 C.3   474  PRO474      0.1402
     72  C         46.7490   16.9620   40.1450 C.2   474  PRO474      0.2269
     73  O         45.7540   16.5570   39.5470 O.2   474  PRO474     -0.2865
     74  CB        47.1900   16.0730   42.4750 C.3   474  PRO474      0.0296
     75  CG        48.2190   16.9390   43.1150 C.3   474  PRO474      0.0237
     76  CD        49.4900   16.7340   42.3370 C.3   474  PRO474      0.0939
     77  N         47.2590   15.6300   36.4640 N.3   477  ILE477     -0.1231
     78  CA        46.6170   14.3700   36.1110 C.3   477  ILE477      0.1692
     79  C         45.1100   14.4660   36.3230 C.2   477  ILE477      0.2592
     80  O         44.3400   13.7130   35.7240 O.2   477  ILE477     -0.2718
     81  CB        47.1910   13.1690   36.9210 C.3   477  ILE477      0.0266
     82  CG1       46.2010   12.7350   37.9950 C.3   477  ILE477      0.0019
     83  CG2       48.5300   13.5310   37.5240 C.3   477  ILE477      0.0020
     84  CD1       45.2530   11.6480   37.5260 C.3   477  ILE477      0.0001
     85  N         44.6830   15.4020   37.1600 N.am  478  ASN478     -0.1974
     86  CA        43.2600   15.6740   37.2840 C.3   478  ASN478      0.1688
     87  C         42.7350   16.2640   35.9850 C.2   478  ASN478      0.2292
     88  O         41.6330   15.9340   35.5490 O.2   478  ASN478     -0.2864
     89  CB        42.9940   16.6330   38.4430 C.3   478  ASN478      0.1181
     90  CG        43.0680   15.9450   39.7930 C.2   478  ASN478      0.2629
     91  OD1       43.4470   16.5550   40.7960 O.2   478  ASN478     -0.2716
     92  ND2       42.7060   14.6620   39.8260 N.am  478  ASN478     -0.0877
     93  N         43.9920   15.7050   32.9630 N.3   480  VAL480     -0.1231
     94  CA        43.9450   14.5410   32.0810 C.3   480  VAL480      0.1692
     95  C         42.6960   13.7060   32.3550 C.2   480  VAL480      0.2591
     96  O         41.9410   13.3790   31.4400 O.2   480  VAL480     -0.2718
     97  CB        45.1900   13.6470   32.2790 C.3   480  VAL480      0.0266
     98  CG1       45.0630   12.3860   31.4460 C.3   480  VAL480      0.0020
     99  CG2       46.4480   14.4130   31.8960 C.3   480  VAL480      0.0020
    100  N         42.4850   13.3780   33.6270 N.am  481  ALA481     -0.1980
    101  CA        41.3270   12.6020   34.0500 C.3   481  ALA481      0.1597
    102  C         40.0220   13.1920   33.5210 C.2   481  ALA481      0.2287
    103  O         39.1570   12.4670   33.0240 O.2   481  ALA481     -0.2864
    104  CB        41.2850   12.5320   35.5700 C.3   481  ALA481      0.0319
    105  N         39.6160   12.6430   29.8120 N.3   484  LEU484     -0.1245
    106  CA        39.2670   11.2700   29.4590 C.3   484  LEU484      0.1561
    107  C         37.7840   10.9860   29.7160 C.2   484  LEU484      0.2260
    108  O         37.1230   10.3340   28.9070 O.2   484  LEU484     -0.2867
    109  CB        40.1430   10.2800   30.2390 C.3   484  LEU484      0.0270
    110  CG        41.6550   10.4840   30.0910 C.3   484  LEU484      0.0019
    111  CD1       42.4050    9.3940   30.8370 C.3   484  LEU484      0.0001
    112  CD2       42.0340   10.4780   28.6180 C.3   484  LEU484      0.0001
    113  N         40.9620    4.6810   30.8780 N.3   491  PRO491     -0.2102
    114  CA        41.9140    5.0830   31.9210 C.3   491  PRO491      0.1504
    115  C         43.2460    4.3390   31.8560 C.2   491  PRO491      0.2575
    116  O         43.4030    3.3910   31.0850 O.2   491  PRO491     -0.2718
    117  CB        41.1710    4.7830   33.2150 C.3   491  PRO491      0.0282
    118  CG        40.2850    3.6440   32.8580 C.3   491  PRO491      0.0208
    119  CD        39.8520    3.8900   31.4340 C.3   491  PRO491      0.0893
    120  N         44.1890    4.7760   32.6880 N.am  492  LEU492     -0.1980
    121  CA        45.5370    4.2150   32.7480 C.3   492  LEU492      0.1596
    122  C         45.5200    2.6910   32.8030 C.2   492  LEU492      0.2287
    123  O         46.3270    2.0190   32.1550 O.2   492  LEU492     -0.2864
    124  CB        46.2650    4.7570   33.9830 C.3   492  LEU492      0.0297
    125  CG        47.6340    4.1610   34.3200 C.3   492  LEU492      0.0022
    126  CD1       48.6330    4.5500   33.2470 C.3   492  LEU492      0.0001
    127  CD2       48.0950    4.6560   35.6850 C.3   492  LEU492      0.0001
    128  N         47.6020    0.5650   30.2530 N.3   496  ARG496     -0.1245
    129  CA        48.7480   -0.1420   30.8010 C.3   496  ARG496      0.1563
    130  C         48.8520   -1.5230   30.1670 C.2   496  ARG496      0.2260
    131  O         49.9380   -1.9660   29.7920 O.2   496  ARG496     -0.2867
    132  CB        48.6130   -0.2670   32.3220 C.3   496  ARG496      0.0307
    133  CG        49.7660   -1.0050   32.9910 C.3   496  ARG496      0.0489
    134  CD        50.0860   -0.4050   34.3540 C.3   496  ARG496      0.2205
    135  NE        48.8750   -0.0170   35.0670 N.pl3 496  ARG496     -0.0865
    136  CZ        48.8210    0.9340   35.9940 C.cat 496  ARG496      0.5346
    137  NH1       49.9150    1.6090   36.3330 N.pl3 496  ARG496      0.1354
    138  NH2       47.6660    1.2170   36.5760 N.pl3 496  ARG496      0.1354
    139  N         57.3780    2.5580   31.3420 N.3   523  TRP523     -0.1241
    140  CA        56.4420    2.9640   32.3820 C.3   523  TRP523      0.1605
    141  C         55.3610    1.9140   32.5820 C.2   523  TRP523      0.2264
    142  O         54.7150    1.8750   33.6230 O.2   523  TRP523     -0.2867
    143  CB        55.7910    4.3090   32.0330 C.3   523  TRP523      0.0550
    144  CG        55.0880    4.3210   30.7120 C.ar  523  TRP523      0.0003
    145  CD1       55.6120    4.6990   29.5120 C.ar  523  TRP523      0.0946
    146  CD2       53.7370    3.9180   30.4500 C.ar  523  TRP523      0.0152
    147  NE1       54.6730    4.5550   28.5170 N.ar  523  TRP523     -0.2442
    148  CE2       53.5140    4.0760   29.0680 C.ar  523  TRP523      0.0810
    149  CE3       52.6970    3.4390   31.2500 C.ar  523  TRP523      0.0012
    150  CZ2       52.2930    3.7700   28.4690 C.ar  523  TRP523      0.0191
    151  CZ3       51.4880    3.1380   30.6540 C.ar  523  TRP523      0.0001
    152  CH2       51.2950    3.3040   29.2770 C.ar  523  TRP523      0.0015
    153  N         60.8700   -1.9910   36.2500 N.3   528  LYS528     -0.1245
    154  CA        61.4700   -1.1470   35.2200 C.3   528  LYS528      0.1561
    155  C         62.8620   -1.6250   34.8240 C.2   528  LYS528      0.2260
    156  O         63.5860   -2.2050   35.6350 O.2   528  LYS528     -0.2867
    157  CB        61.5620    0.3060   35.7030 C.3   528  LYS528      0.0271
    158  CG        60.2900    0.8480   36.3330 C.3   528  LYS528      0.0035
    159  CD        59.0880    0.5940   35.4550 C.3   528  LYS528      0.0206
    160  CE        57.8030    0.9670   36.1630 C.3   528  LYS528      0.1093
    161  NZ        57.7740    2.4070   36.5060 N.3   528  LYS528     -0.1314
@<TRIPOS>BOND
     1    12    11    2
     2    23    22    2
     3     9    10    1
     4    10    11    1
     5    10    13    1
     6    22    21    1
     7    11    20   am
     8    20    21    1
     9    21    24    1
    10    14    13    1
    11    14    15    1
    12   150   148   ar
    13   150   152   ar
    14   147   148   ar
    15   147   145   ar
    16   112   110    1
    17   108   107    2
    18   148   146   ar
    19    24    25    1
    20   152   151   ar
    21    15    16    1
    22   106   107    1
    23   106   105    1
    24   106   109    1
    25     4     3    2
    26   145   144   ar
    27    25    26    1
    28    16    17    2
    29   131   130    2
    30     3     2    1
    31   110   109    1
    32   110   111    1
    33   130   129    1
    34    27    26    1
    35   128   129    1
    36   146   144   ar
    37   146   149   ar
    38   151   149   ar
    39   144   143    1
    40     1     2    1
    41   129   132    1
    42   113   119    1
    43   113   114    1
    44    17    19    1
    45    17    18    1
    46     2     5    1
    47   116   115    2
    48   139   140    1
    49   119   118    1
    50    96    95    2
    51    98    97    1
    52   115   114    1
    53   115   120   am
    54    99    97    1
    55   114   117    1
    56   143   140    1
    57    94    97    1
    58    94    95    1
    59    94    93    1
    60   123   122    2
    61     8     6    1
    62     5     6    1
    63   132   133    1
    64    95   100   am
    65   140   141    1
    66     6     7    1
    67   141   142    2
    68    63    62    1
    69   120   121    1
    70   121   122    1
    71   121   124    1
    72    34    33    1
    73   118   117    1
    74   133   134    1
    75   103   102    2
    76    33    32    1
    77    33    35    1
    78   126   125    1
    79   102   101    1
    80   100   101    1
    81    62    61   ar
    82    62    60   ar
    83    61    59   ar
    84    28    29    1
    85    32    29    1
    86   124   125    1
    87   101   104    1
    88   125   127    1
    89   134   135    1
    90    60    58   ar
    91    29    30    1
    92   155   154    1
    93   155   156    2
    94    59    57   ar
    95    31    30    2
    96   135   136    2
    97   154   157    1
    98   154   153    1
    99    30    36   am
   100   159   160    1
   101   159   158    1
   102    88    87    2
   103   157   158    1
   104    80    79    2
   105    58    57   ar
   106    57    56    1
   107    87    86    1
   108   136   137    1
   109   136   138    1
   110    78    79    1
   111    78    77    1
   112    78    81    1
   113   160   161    1
   114    79    85   am
   115    36    37    1
   116    81    83    1
   117    81    82    1
   118    56    53    1
   119    85    86    1
   120    86    89    1
   121    37    40    1
   122    37    38    1
   123    84    82    1
   124    40    41    1
   125    53    52    1
   126    53    54    1
   127    89    90    1
   128    69    68    1
   129    38    39    2
   130    38    46   am
   131    67    66    2
   132    43    41   ar
   133    43    45   ar
   134    52    48   am
   135    41    42   ar
   136    64    54   am
   137    64    65    1
   138    54    55    2
   139    46    47    1
   140    73    72    2
   141    68    65    1
   142    90    92   am
   143    90    91    2
   144    66    65    1
   145    66    70   am
   146    48    49    2
   147    48    47    1
   148    45    44   ar
   149    72    71    1
   150    42    44   ar
   151    47    50    1
   152    70    71    1
   153    70    76    1
   154    71    74    1
   155    51    50    1
   156    76    75    1
   157    74    75    1
