@<TRIPOS>MOLECULE
tmp/3phoB00.pdb
 96 93 0 0 0
SMALL
GASTEIGER

@<TRIPOS>ATOM
      1  N        -57.6570  -26.5950    3.8970 N.3    33  TYR33      -0.1241
      2  CA       -57.7970  -25.9470    2.5960 C.3    33  TYR33       0.1605
      3  C        -57.7160  -24.4460    2.8540 C.2    33  TYR33       0.2264
      4  O        -58.1050  -23.9850    3.9290 O.2    33  TYR33      -0.2867
      5  CB       -59.1610  -26.2350    1.9750 C.3    33  TYR33       0.0534
      6  CG       -59.4270  -27.6290    1.4280 C.ar   33  TYR33      -0.0201
      7  CD1      -58.9380  -28.7770    2.0580 C.ar   33  TYR33      -0.0009
      8  CD2      -60.2400  -27.7950    0.3120 C.ar   33  TYR33      -0.0009
      9  CE1      -59.2240  -30.0600    1.5570 C.ar   33  TYR33       0.0417
     10  CE2      -60.5320  -29.0520   -0.1920 C.ar   33  TYR33       0.0417
     11  CZ       -60.0190  -30.1870    0.4290 C.ar   33  TYR33       0.1957
     12  OH       -60.3170  -31.4360   -0.0870 O.3    33  TYR33      -0.2866
     13  N        -59.3310  -22.6750   -4.3790 N.3    50  PHE50      -0.1241
     14  CA       -58.6660  -23.1080   -3.1550 C.3    50  PHE50       0.1605
     15  C        -57.4790  -24.0050   -3.4440 C.2    50  PHE50       0.2264
     16  O        -57.3570  -24.5490   -4.5330 O.2    50  PHE50      -0.2867
     17  CB       -59.6300  -23.7840   -2.1520 C.3    50  PHE50       0.0534
     18  CG       -60.3310  -25.0150   -2.6800 C.ar   50  PHE50      -0.0203
     19  CD1      -59.6140  -26.1270   -3.1180 C.ar   50  PHE50      -0.0042
     20  CD2      -61.7200  -25.0770   -2.6990 C.ar   50  PHE50      -0.0042
     21  CE1      -60.2680  -27.2510   -3.6100 C.ar   50  PHE50      -0.0003
     22  CE2      -62.3800  -26.2090   -3.1800 C.ar   50  PHE50      -0.0003
     23  CZ       -61.6530  -27.2890   -3.6330 C.ar   50  PHE50      -0.0000
     24  N        -55.8830  -27.4210   -1.5520 N.3    52  ARG52      -0.1231
     25  CA       -56.2650  -28.4610   -0.5870 C.3    52  ARG52       0.1694
     26  C        -55.1970  -28.7140    0.4820 C.2    52  ARG52       0.2592
     27  O        -54.0710  -28.2360    0.3710 O.2    52  ARG52      -0.2718
     28  CB       -56.5610  -29.7670   -1.3320 C.3    52  ARG52       0.0321
     29  CG       -57.6550  -29.6580   -2.3730 C.3    52  ARG52       0.0489
     30  CD       -58.0900  -31.0280   -2.8340 C.3    52  ARG52       0.2205
     31  NE       -59.3460  -31.0050   -3.5820 N.pl3  52  ARG52      -0.0865
     32  CZ       -59.4770  -30.6940   -4.8740 C.cat  52  ARG52       0.5346
     33  NH1      -58.4260  -30.3430   -5.6100 N.pl3  52  ARG52       0.1354
     34  NH2      -60.6830  -30.7190   -5.4300 N.pl3  52  ARG52       0.1354
     35  N        -55.5500  -29.4780    1.5120 N.am   53  ASN53      -0.1974
     36  CA       -54.6100  -29.8430    2.5910 C.3    53  ASN53       0.1688
     37  C        -53.6050  -30.9370    2.2180 C.2    53  ASN53       0.2292
     38  O        -53.6670  -31.4830    1.1230 O.2    53  ASN53      -0.2864
     39  CB       -55.3900  -30.2710    3.8390 C.3    53  ASN53       0.1181
     40  CG       -56.2810  -31.4810    3.6010 C.2    53  ASN53       0.2629
     41  OD1      -56.2330  -32.1180    2.5500 O.2    53  ASN53      -0.2716
     42  ND2      -57.1060  -31.8010    4.5940 N.am   53  ASN53      -0.0877
     43  N        -54.9160  -34.3310    0.8680 N.3    56  ASN56      -0.1240
     44  CA       -55.3040  -34.4010   -0.5430 C.3    56  ASN56       0.1653
     45  C        -54.2000  -33.9320   -1.4860 C.2    56  ASN56       0.2266
     46  O        -54.4470  -33.6850   -2.6600 O.2    56  ASN56      -0.2867
     47  CB       -56.5950  -33.6180   -0.8110 C.3    56  ASN56       0.1155
     48  CG       -57.8260  -34.2470   -0.1580 C.2    56  ASN56       0.2627
     49  OD1      -58.6260  -34.9310   -0.8250 O.2    56  ASN56      -0.2716
     50  ND2      -58.0030  -33.9920    1.1440 N.am   56  ASN56      -0.0877
     51  N        -60.4380  -22.3310    4.5450 N.3   101  ASP101     -0.1225
     52  CA       -61.4940  -23.1810    4.0070 C.3   101  ASP101      0.1805
     53  C        -61.6000  -24.3990    4.9380 C.2   101  ASP101      0.2597
     54  O        -61.2980  -24.2880    6.1330 O.2   101  ASP101     -0.2718
     55  CB       -61.1880  -23.5530    2.5530 C.3   101  ASP101      0.1424
     56  CG       -62.4350  -23.9030    1.7410 C.2   101  ASP101      0.3668
     57  OD1      -63.1350  -24.8790    2.1060 O.co2 101  ASP101     -0.2456
     58  OD2      -62.6900  -23.2200    0.7080 O.co2 101  ASP101     -0.2456
     59  N        -62.0170  -25.5500    4.4160 N.am  102  ILE102     -0.1980
     60  CA       -62.2660  -26.7050    5.2730 C.3   102  ILE102      0.1595
     61  C        -61.0020  -27.2990    5.8910 C.2   102  ILE102      0.2287
     62  O        -59.8970  -27.2220    5.3230 O.2   102  ILE102     -0.2864
     63  CB       -63.0650  -27.8270    4.5680 C.3   102  ILE102      0.0276
     64  CG1      -62.2800  -28.3840    3.3760 C.3   102  ILE102      0.0022
     65  CG2      -64.4820  -27.3420    4.2230 C.3   102  ILE102      0.0022
     66  CD1      -62.9520  -29.5460    2.6930 C.3   102  ILE102      0.0001
     67  N        -60.2840  -30.1390    9.6170 N.3   104  TYR104     -0.1227
     68  CA       -60.8640  -30.8370   10.7700 C.3   104  TYR104      0.1736
     69  C        -62.3850  -30.9170   10.5830 C.2   104  TYR104      0.2596
     70  O        -62.8660  -31.0330    9.4380 O.2   104  TYR104     -0.2718
     71  CB       -60.3830  -30.2080   12.0800 C.3   104  TYR104      0.0548
     72  CG       -58.8470  -30.1740   12.1670 C.ar  104  TYR104     -0.0200
     73  CD1      -58.1780  -29.2080   12.9310 C.ar  104  TYR104     -0.0009
     74  CD2      -58.0620  -31.1020   11.4600 C.ar  104  TYR104     -0.0009
     75  CE1      -56.7700  -29.1840   13.0070 C.ar  104  TYR104      0.0417
     76  CE2      -56.6740  -31.0880   11.5300 C.ar  104  TYR104      0.0417
     77  CZ       -56.0270  -30.1290   12.2990 C.ar  104  TYR104      0.1957
     78  OH       -54.6360  -30.1250   12.3480 O.3   104  TYR104     -0.2866
     79  N        -63.1940  -30.8740   11.6160 N.am  105  GLY105     -0.1942
     80  CA       -64.6220  -30.9850   11.2560 C.3   105  GLY105      0.2014
     81  C        -65.2720  -29.6670   10.8230 C.2   105  GLY105      0.2639
     82  O        -66.5030  -29.5550   10.7990 O.2   105  GLY105     -0.2714
     83  N        -64.4260  -28.6800   10.5930 N.am  106  ASN106     -0.1958
     84  CA       -64.7990  -27.2850   10.5580 C.3   106  ASN106      0.1819
     85  C        -65.3680  -26.6820    9.2930 C.2   106  ASN106      0.2622
     86  O        -65.0990  -27.1270    8.1950 O.2   106  ASN106     -0.2715
     87  CB       -63.6270  -26.4490   11.0680 C.3   106  ASN106      0.1195
     88  CG       -63.2570  -26.7880   12.4850 C.2   106  ASN106      0.2630
     89  OD1      -64.0610  -27.3230   13.2260 O.2   106  ASN106     -0.2716
     90  ND2      -62.0380  -26.4880   12.8660 N.am  106  ASN106     -0.0877
     91  N        -66.1860  -25.6620    9.4950 N.am  107  SER107     -0.1950
     92  CA       -66.8050  -24.9150    8.4200 C.3   107  SER107      0.1924
     93  C        -65.8280  -23.9650    7.7750 C.2   107  SER107      0.2314
     94  O        -65.0340  -23.3490    8.4500 O.2   107  SER107     -0.2863
     95  CB       -68.0140  -24.1540    8.9490 C.3   107  SER107      0.2116
     96  OG       -69.1090  -25.0280    9.1340 O.3   107  SER107     -0.2180
@<TRIPOS>BOND
     1    33    32    1
     2    34    32    1
     3    32    31    2
     4    16    15    2
     5    13    14    1
     6    23    21   ar
     7    23    22   ar
     8    21    19   ar
     9    31    30    1
    10    15    14    1
    11    22    20   ar
    12    14    17    1
    13    19    18   ar
    14    30    29    1
    15    20    18   ar
    16    18    17    1
    17    46    45    2
    18    29    28    1
    19    24    25    1
    20    45    44    1
    21    28    25    1
    22    49    48    2
    23    47    44    1
    24    47    48    1
    25    25    26    1
    26    44    43    1
    27    10     8   ar
    28    10    11   ar
    29    48    50   am
    30    12    11    1
    31     8     6   ar
    32    27    26    2
    33    11     9   ar
    34    26    35   am
    35    58    56   ar
    36    38    37    2
    37     6     5    1
    38     6     7   ar
    39    35    36    1
    40     9     7   ar
    41    56    57   ar
    42    56    55    1
    43     5     2    1
    44    37    36    1
    45    41    40    2
    46    55    52    1
    47    36    39    1
    48     2     3    1
    49     2     1    1
    50    66    64    1
    51     3     4    2
    52    64    63    1
    53    40    39    1
    54    40    42   am
    55    52    51    1
    56    52    53    1
    57    65    63    1
    58    59    53   am
    59    59    60    1
    60    63    60    1
    61    53    54    2
    62    60    61    1
    63    62    61    2
    64    93    92    1
    65    93    94    2
    66    86    85    2
    67    92    95    1
    68    92    91    1
    69    95    96    1
    70    85    91   am
    71    85    84    1
    72    70    69    2
    73    67    68    1
    74    84    83    1
    75    84    87    1
    76    69    68    1
    77    69    79   am
    78    83    81   am
    79    68    71    1
    80    82    81    2
    81    81    80    1
    82    87    88    1
    83    80    79    1
    84    74    76   ar
    85    74    72   ar
    86    76    77   ar
    87    71    72    1
    88    72    73   ar
    89    77    78    1
    90    77    75   ar
    91    88    90   am
    92    88    89    2
    93    73    75   ar
