@<TRIPOS>MOLECULE
tmp/3phoA00.pdb
 84 80 0 0 0
SMALL
GASTEIGER

@<TRIPOS>ATOM
      1  N        -77.9730  -32.3850    0.7180 N.3    30  SER30      -0.1202
      2  CA       -77.8900  -33.8260    0.6090 C.3    30  SER30       0.2020
      3  C        -78.9210  -34.3580    1.5960 C.2    30  SER30       0.2619
      4  O        -79.7590  -33.6040    2.0590 O.2    30  SER30      -0.2717
      5  CB       -76.4920  -34.2970    0.9810 C.3    30  SER30       0.2103
      6  OG       -76.2630  -34.0660    2.3580 O.3    30  SER30      -0.2182
      7  N        -78.8740  -35.6460    1.9160 N.am   31  SER31      -0.1937
      8  CA       -79.7610  -36.2150    2.9400 C.3    31  SER31       0.2055
      9  C        -79.4480  -35.5880    4.2890 C.2    31  SER31       0.2643
     10  O        -80.3580  -35.2030    5.0260 O.2    31  SER31      -0.2714
     11  CB       -79.5540  -37.7300    3.0440 C.3    31  SER31       0.2130
     12  OG       -79.7810  -38.3660    1.7990 O.3    31  SER31      -0.2179
     13  N        -78.1460  -35.4760    4.5670 N.am   32  VAL32      -0.1963
     14  CA       -77.5860  -35.1590    5.8900 C.3    32  VAL32       0.1727
     15  C        -77.5130  -33.6580    6.1980 C.2    32  VAL32       0.2616
     16  O        -77.7980  -33.2370    7.3220 O.2    32  VAL32      -0.2715
     17  CB       -76.1440  -35.7300    6.0010 C.3    32  VAL32       0.0290
     18  CG1      -75.4800  -35.3640    7.3590 C.3    32  VAL32       0.0023
     19  CG2      -76.1440  -37.2510    5.7540 C.3    32  VAL32       0.0023
     20  N        -77.1300  -32.8720    5.1880 N.am   33  ASN33      -0.1972
     21  CA       -76.7350  -31.4790    5.3470 C.3    33  ASN33       0.1688
     22  C        -77.3030  -30.5670    4.2690 C.2    33  ASN33       0.2292
     23  O        -77.4970  -30.9820    3.1230 O.2    33  ASN33      -0.2864
     24  CB       -75.2040  -31.3650    5.2980 C.3    33  ASN33       0.1181
     25  CG       -74.5230  -31.9470    6.5270 C.2    33  ASN33       0.2629
     26  OD1      -75.0890  -31.9690    7.6380 O.2    33  ASN33      -0.2716
     27  ND2      -73.2870  -32.4140    6.3370 N.am   33  ASN33      -0.0877
     28  N        -75.8630  -27.2510    2.5440 N.3    35  TYR35      -0.1241
     29  CA       -74.6180  -26.5030    2.4480 C.3    35  TYR35       0.1605
     30  C        -74.8150  -25.0350    2.0630 C.2    35  TYR35       0.2264
     31  O        -74.4010  -24.6010    0.9780 O.2    35  TYR35      -0.2867
     32  CB       -73.6640  -27.2100    1.4880 C.3    35  TYR35       0.0534
     33  CG       -73.3080  -28.6050    1.9500 C.ar   35  TYR35      -0.0201
     34  CD1      -74.0650  -29.7060    1.5550 C.ar   35  TYR35      -0.0009
     35  CD2      -72.2250  -28.8200    2.8000 C.ar   35  TYR35      -0.0009
     36  CE1      -73.7410  -30.9880    1.9850 C.ar   35  TYR35       0.0417
     37  CE2      -71.8900  -30.1000    3.2430 C.ar   35  TYR35       0.0417
     38  CZ       -72.6480  -31.1810    2.8310 C.ar   35  TYR35       0.1957
     39  OH       -72.3300  -32.4500    3.2710 O.3    35  TYR35      -0.2866
     40  N        -73.9620  -24.3690    7.6820 N.3    53  LEU53      -0.1245
     41  CA       -74.8760  -25.4880    7.4230 C.3    53  LEU53       0.1561
     42  C        -76.3600  -25.1060    7.5430 C.2    53  LEU53       0.2260
     43  O        -77.1420  -25.8250    8.1650 O.2    53  LEU53      -0.2867
     44  CB       -74.5210  -26.6990    8.3040 C.3    53  LEU53       0.0270
     45  CG       -73.2470  -27.4780    7.9270 C.3    53  LEU53       0.0019
     46  CD1      -72.7540  -28.3550    9.0620 C.3    53  LEU53       0.0001
     47  CD2      -73.4610  -28.3080    6.6720 C.3    53  LEU53       0.0001
     48  N        -71.5480  -23.6560    0.3590 N.3    94  SER94      -0.1202
     49  CA       -70.3900  -23.8110    1.2190 C.3    94  SER94       0.2020
     50  C        -69.6250  -25.0680    0.9060 C.2    94  SER94       0.2619
     51  O        -68.7690  -25.4760    1.6810 O.2    94  SER94      -0.2717
     52  CB       -70.7990  -23.7830    2.6900 C.3    94  SER94       0.2103
     53  OG       -71.6770  -24.8520    2.9850 O.3    94  SER94      -0.2182
     54  N        -69.9280  -25.6870   -0.2270 N.am   95  ARG95      -0.1965
     55  CA       -69.0540  -26.7130   -0.7730 C.3    95  ARG95       0.1729
     56  C        -68.9900  -26.6360   -2.2970 C.2    95  ARG95       0.2616
     57  O        -69.4980  -25.6800   -2.8980 O.2    95  ARG95      -0.2715
     58  CB       -69.4250  -28.1140   -0.2700 C.3    95  ARG95       0.0348
     59  CG       -70.7510  -28.6870   -0.7660 C.3    95  ARG95       0.0492
     60  CD       -70.7970  -30.1560   -0.4290 C.3    95  ARG95       0.2205
     61  NE       -72.0380  -30.8190   -0.8150 N.pl3  95  ARG95      -0.0865
     62  CZ       -72.2770  -32.1160   -0.6280 C.cat  95  ARG95       0.5346
     63  NH1      -71.3610  -32.9020   -0.0670 N.pl3  95  ARG95       0.1354
     64  NH2      -73.4380  -32.6330   -0.9960 N.pl3  95  ARG95       0.1354
     65  N        -68.3450  -27.6380   -2.9030 N.am   96  GLU96      -0.1977
     66  CA       -68.1290  -27.7070   -4.3510 C.3    96  GLU96       0.1602
     67  C        -67.5340  -26.3870   -4.8500 C.2    96  GLU96       0.2287
     68  O        -66.4780  -25.9730   -4.3660 O.2    96  GLU96      -0.2864
     69  CB       -69.4190  -28.1010   -5.0910 C.3    96  GLU96       0.0415
     70  CG       -69.9100  -29.5070   -4.7770 C.3    96  GLU96       0.1163
     71  CD       -71.3800  -29.7320   -5.1470 C.2    96  GLU96       0.3649
     72  OE1      -71.9400  -28.9900   -5.9900 O.co2  96  GLU96      -0.2457
     73  OE2      -71.9970  -30.6650   -4.5900 O.co2  96  GLU96      -0.2457
     74  N        -68.4500  -23.4300   -4.3210 N.3    98  ARG98      -0.1245
     75  CA       -68.4170  -22.3690   -3.3090 C.3    98  ARG98       0.1563
     76  C        -68.9800  -21.0040   -3.7600 C.2    98  ARG98       0.2260
     77  O        -68.4820  -19.9540   -3.3260 O.2    98  ARG98      -0.2867
     78  CB       -66.9770  -22.2130   -2.7830 C.3    98  ARG98       0.0307
     79  CG       -66.5420  -23.3080   -1.8250 C.3    98  ARG98       0.0489
     80  CD       -65.0350  -23.6160   -1.9440 C.3    98  ARG98       0.2205
     81  NE       -64.5720  -24.4550   -0.8310 N.pl3  98  ARG98      -0.0865
     82  CZ       -64.8210  -25.7710   -0.6970 C.cat  98  ARG98       0.5346
     83  NH1      -65.5330  -26.4470   -1.6040 N.pl3  98  ARG98       0.1354
     84  NH2      -64.3560  -26.4170    0.3640 N.pl3  98  ARG98       0.1354
@<TRIPOS>BOND
     1    72    71   ar
     2    71    70    1
     3    71    73   ar
     4    69    70    1
     5    69    66    1
     6    67    68    2
     7    67    66    1
     8    66    65    1
     9    74    75    1
    10    76    77    2
    11    76    75    1
    12    75    78    1
    13    65    56   am
    14    57    56    2
    15    78    79    1
    16    56    55    1
    17    80    79    1
    18    80    81    1
    19    83    82    1
    20    64    62    1
    21    81    82    2
    22    61    62    2
    23    61    60    1
    24    55    58    1
    25    55    54    1
    26    59    60    1
    27    59    58    1
    28    82    84    1
    29    62    63    1
    30    54    50   am
    31    48    49    1
    32     2     1    1
    33     2     5    1
    34     2     3    1
    35    50    49    1
    36    50    51    2
    37    31    30    2
    38     5     6    1
    39    49    52    1
    40    32    33    1
    41    32    29    1
    42    34    33   ar
    43    34    36   ar
    44     3     7   am
    45     3     4    2
    46    12    11    1
    47     7     8    1
    48    33    35   ar
    49    36    38   ar
    50    30    29    1
    51    29    28    1
    52    52    53    1
    53    35    37   ar
    54    38    37   ar
    55    38    39    1
    56     8    11    1
    57     8     9    1
    58    23    22    2
    59    22    21    1
    60     9    13   am
    61     9    10    2
    62    13    14    1
    63    20    21    1
    64    20    15   am
    65    24    21    1
    66    24    25    1
    67    19    17    1
    68    14    17    1
    69    14    15    1
    70    17    18    1
    71    15    16    2
    72    27    25   am
    73    25    26    2
    74    47    45    1
    75    41    42    1
    76    41    40    1
    77    41    44    1
    78    42    43    2
    79    45    44    1
    80    45    46    1
