@<TRIPOS>MOLECULE
tmp/3phzB00.pdb
 98 91 0 0 0
SMALL
GASTEIGER

@<TRIPOS>ATOM
      1  N        -47.5700   17.0500    5.0840 N.3    25  ASN25      -0.1225
      2  CA       -46.2330   16.5190    4.8590 C.3    25  ASN25       0.1785
      3  C        -45.1240   17.5040    5.3420 C.2    25  ASN25       0.2597
      4  O        -45.4060   18.6280    5.8190 O.2    25  ASN25      -0.2718
      5  CB       -46.0430   16.0750    3.3810 C.3    25  ASN25       0.1169
      6  CG       -45.1760   14.7910    3.2440 C.2    25  ASN25       0.2627
      7  OD1      -45.1930   13.9210    4.1250 O.2    25  ASN25      -0.2716
      8  ND2      -44.4210   14.6780    2.1350 N.am   25  ASN25      -0.0877
      9  N        -43.8710   17.0440    5.2390 N.am   26  LYS26      -0.1966
     10  CA       -42.6940   17.7630    5.7040 C.3    26  LYS26       0.1728
     11  C        -41.6450   17.9430    4.5780 C.2    26  LYS26       0.2616
     12  O        -41.6100   17.1940    3.5760 O.2    26  LYS26      -0.2715
     13  CB       -42.0360   17.0180    6.8800 C.3    26  LYS26       0.0311
     14  CG       -42.9620   16.2570    7.8270 C.3    26  LYS26       0.0038
     15  CD       -42.1480   15.5690    8.9310 C.3    26  LYS26       0.0206
     16  CE       -43.0450   14.7870    9.9090 C.3    26  LYS26       0.1093
     17  NZ       -43.9500   15.6710   10.7130 N.3    26  LYS26      -0.1314
     18  N        -40.7920   18.9500    4.7690 N.am   27  SER27      -0.1950
     19  CA       -39.5090   19.0660    4.0650 C.3    27  SER27       0.1924
     20  C        -38.5180   17.9520    4.5130 C.2    27  SER27       0.2314
     21  O        -38.6030   17.4340    5.6410 O.2    27  SER27      -0.2863
     22  CB       -38.8830   20.4380    4.3740 C.3    27  SER27       0.2116
     23  OG       -39.7070   21.4990    3.9090 O.3    27  SER27      -0.2180
     24  N        -35.3890   16.3070    6.2170 N.3    29  ASP29      -0.1239
     25  CA       -34.5040   16.7170    7.3110 C.3    29  ASP29       0.1674
     26  C        -33.0330   16.5940    6.9110 C.2    29  ASP29       0.2266
     27  O        -32.7120   15.7450    6.0900 O.2    29  ASP29      -0.2867
     28  CB       -34.7340   15.7600    8.4760 C.3    29  ASP29       0.1410
     29  CG       -36.1510   15.9150    9.0100 C.2    29  ASP29       0.3668
     30  OD1      -36.3980   17.0550    9.4710 O.co2  29  ASP29      -0.2456
     31  OD2      -36.9610   14.9560    8.8420 O.co2  29  ASP29      -0.2456
     32  N        -31.5090   24.8790    6.9820 N.3    67  ASP67      -0.1239
     33  CA       -32.5820   25.8290    7.3620 C.3    67  ASP67       0.1674
     34  C        -33.0590   25.3740    8.7610 C.2    67  ASP67       0.2266
     35  O        -33.4320   24.1810    8.9490 O.2    67  ASP67      -0.2867
     36  CB       -33.6730   25.7370    6.3120 C.3    67  ASP67       0.1410
     37  CG       -34.9080   26.5700    6.6420 C.2    67  ASP67       0.3668
     38  OD1      -35.3490   26.4820    7.8040 O.co2  67  ASP67      -0.2456
     39  OD2      -35.4900   27.2310    5.7200 O.co2  67  ASP67      -0.2456
     40  N        -35.7770   25.1830   11.1270 N.3    69  ALA69      -0.1231
     41  CA       -37.1690   25.1070   10.7340 C.3    69  ALA69       0.1694
     42  C        -38.0110   26.1390   11.5200 C.2    69  ALA69       0.2593
     43  O        -38.5360   25.7870   12.5620 O.2    69  ALA69      -0.2718
     44  CB       -37.6720   23.7250   10.9640 C.3    69  ALA69       0.0304
     45  N        -38.0550   27.4150   11.0650 N.am   70  GLY70      -0.1942
     46  CA       -39.0290   28.3920   11.5720 C.3    70  GLY70       0.2014
     47  C        -38.4170   29.4600   12.4140 C.2    70  GLY70       0.2638
     48  O        -39.1080   30.1210   13.2410 O.2    70  GLY70      -0.2714
     49  N        -37.1440   29.6930   12.2230 N.am   71  HIS71      -0.1973
     50  CA       -36.4670   30.6530   13.0380 C.3    71  HIS71       0.1656
     51  C        -36.7640   30.1730   14.4940 C.2    71  HIS71       0.2291
     52  O        -36.2920   30.8530   15.4070 O.2    71  HIS71      -0.2864
     53  CB       -36.9920   32.1050   12.7420 C.3    71  HIS71       0.0771
     54  CG       -37.4210   32.3080   11.3010 C.ar   71  HIS71       0.0820
     55  ND1      -36.6280   32.9540   10.3680 N.ar   71  HIS71      -0.2267
     56  CD2      -38.5320   31.8920   10.6300 C.ar   71  HIS71       0.1154
     57  CE1      -37.2570   32.9710    9.1980 C.ar   71  HIS71       0.1986
     58  NE2      -38.3960   32.3080    9.3180 N.ar   71  HIS71      -0.2212
     59  N        -36.2040   20.9040   14.2240 N.3    78  ALA78      -0.1245
     60  CA       -35.6460   20.2580   13.0030 C.3    78  ALA78       0.1562
     61  C        -34.6840   21.1950   12.2620 C.2    78  ALA78       0.2260
     62  O        -34.8800   22.4240   12.1470 O.2    78  ALA78      -0.2867
     63  CB       -36.7040   19.7280   12.1260 C.3    78  ALA78       0.0290
     64  N        -33.5210   21.3290    8.5040 N.3    80  ILE80      -0.1245
     65  CA       -34.1270   20.8160    7.2780 C.3    80  ILE80       0.1561
     66  C        -33.3550   21.4000    6.0710 C.2    80  ILE80       0.2260
     67  O        -32.5260   22.3090    6.2450 O.2    80  ILE80      -0.2867
     68  CB       -35.6320   21.1820    7.1050 C.3    80  ILE80       0.0252
     69  CG1      -35.8140   22.7060    7.1130 C.3    80  ILE80       0.0019
     70  CG2      -36.4980   20.4320    8.1960 C.3    80  ILE80       0.0019
     71  CD1      -37.3540   23.0970    7.0320 C.3    80  ILE80       0.0001
     72  N        -34.1740   23.3170    2.7650 N.3    82  TYR82      -0.1241
     73  CA       -35.3170   24.1080    2.2750 C.3    82  TYR82       0.1605
     74  C        -34.9510   25.0000    1.1080 C.2    82  TYR82       0.2264
     75  O        -33.8150   25.4170    0.9840 O.2    82  TYR82      -0.2867
     76  CB       -35.7460   25.0530    3.4280 C.3    82  TYR82       0.0534
     77  CG       -37.2110   25.5540    3.3450 C.ar   82  TYR82      -0.0201
     78  CD1      -38.3070   24.6760    3.4980 C.ar   82  TYR82      -0.0009
     79  CD2      -37.4810   26.9210    3.1150 C.ar   82  TYR82      -0.0009
     80  CE1      -39.6220   25.1470    3.3920 C.ar   82  TYR82       0.0417
     81  CE2      -38.8150   27.4040    3.0120 C.ar   82  TYR82       0.0417
     82  CZ       -39.8770   26.5090    3.1700 C.ar   82  TYR82       0.1957
     83  OH       -41.1920   26.9830    3.0800 O.3    82  TYR82      -0.2866
     84  N        -34.5260   31.2960    0.8960 N.3    85  THR85      -0.1218
     85  CA       -35.5870   32.2790    1.2590 C.3    85  THR85       0.1862
     86  C        -35.0390   33.6790    1.4530 C.2    85  THR85       0.2287
     87  O        -35.8460   34.6280    1.5430 O.2    85  THR85      -0.2866
     88  CB       -36.1690   31.8640    2.6400 C.3    85  THR85       0.1770
     89  OG1      -35.1090   31.8450    3.5800 O.3    85  THR85      -0.2211
     90  CG2      -36.9920   30.5720    2.4920 C.3    85  THR85       0.0375
     91  N        -32.7360   32.3600    9.1940 N.3    89  ASN89      -0.1240
     92  CA       -32.7260   30.8930    9.5990 C.3    89  ASN89       0.1653
     93  C        -31.9890   30.0220    8.5040 C.2    89  ASN89       0.2266
     94  O        -32.0330   28.7950    8.6010 O.2    89  ASN89      -0.2867
     95  CB       -34.1030   30.3190    9.9340 C.3    89  ASN89       0.1155
     96  CG       -34.9930   30.2490    8.7920 C.2    89  ASN89       0.2627
     97  OD1      -34.9820   31.1830    7.9640 O.2    89  ASN89      -0.2716
     98  ND2      -35.8000   29.2010    8.6820 N.am   89  ASN89      -0.0877
@<TRIPOS>BOND
     1    84    85    1
     2    75    74    2
     3    74    73    1
     4    85    86    1
     5    85    88    1
     6    86    87    2
     7     8     6   am
     8    73    72    1
     9    73    76    1
    10    90    88    1
    11    88    89    1
    12    81    79   ar
    13    81    82   ar
    14    83    82    1
    15    79    77   ar
    16    82    80   ar
    17     6     5    1
    18     6     7    2
    19    77    76    1
    20    77    78   ar
    21     5     2    1
    22    80    78   ar
    23    12    11    2
    24    23    22    1
    25    19    22    1
    26    19    20    1
    27    19    18    1
    28    20    21    2
    29    11    18   am
    30    11    10    1
    31     2     1    1
    32     2     3    1
    33     9     3   am
    34     9    10    1
    35     3     4    2
    36    10    13    1
    37    39    37   ar
    38    66    67    2
    39    66    65    1
    40    27    26    2
    41    24    25    1
    42    36    37    1
    43    36    33    1
    44    37    38   ar
    45    13    14    1
    46    26    25    1
    47    32    33    1
    48    71    69    1
    49    68    69    1
    50    68    65    1
    51    68    70    1
    52    65    64    1
    53    25    28    1
    54    33    34    1
    55    14    15    1
    56    97    96    2
    57    28    29    1
    58    93    94    2
    59    93    92    1
    60    98    96   am
    61    34    35    2
    62    96    95    1
    63    31    29   ar
    64    15    16    1
    65    29    30   ar
    66    91    92    1
    67    57    58   ar
    68    57    55   ar
    69    58    56   ar
    70    92    95    1
    71    16    17    1
    72    55    54   ar
    73    56    54   ar
    74    41    44    1
    75    41    40    1
    76    41    42    1
    77    45    42   am
    78    45    46    1
    79    54    53    1
    80    42    43    2
    81    46    47    1
    82    63    60    1
    83    62    61    2
    84    49    47   am
    85    49    50    1
    86    61    60    1
    87    47    48    2
    88    53    50    1
    89    60    59    1
    90    50    51    1
    91    51    52    2
