@<TRIPOS>MOLECULE
tmp/3phzA00.pdb
 77 72 0 0 0
SMALL
GASTEIGER

@<TRIPOS>ATOM
      1  N        -20.9420   -6.1120  -55.4990 N.3    27  SER27      -0.1217
      2  CA       -20.5930   -4.9300  -54.7060 C.3    27  SER27       0.1889
      3  C        -21.5080   -3.7610  -55.0450 C.2    27  SER27       0.2288
      4  O        -22.0730   -3.7290  -56.1320 O.2    27  SER27      -0.2866
      5  CB       -19.1420   -4.5770  -54.9680 C.3    27  SER27       0.2089
      6  OG       -18.3240   -5.6460  -54.5530 O.3    27  SER27      -0.2183
      7  N        -13.4130    1.4110  -57.3830 N.3    67  ASP67      -0.1239
      8  CA       -12.7190    0.1920  -57.8480 C.3    67  ASP67       0.1674
      9  C        -13.2840   -0.2060  -59.2140 C.2    67  ASP67       0.2266
     10  O        -14.5180   -0.1950  -59.4100 O.2    67  ASP67      -0.2867
     11  CB       -12.9860   -0.8540  -56.7470 C.3    67  ASP67       0.1410
     12  CG       -12.5730   -2.2800  -57.1380 C.2    67  ASP67       0.3668
     13  OD1      -13.0150   -2.7920  -58.2200 O.co2  67  ASP67      -0.2456
     14  OD2      -11.8470   -2.8820  -56.3150 O.co2  67  ASP67      -0.2456
     15  N        -14.2800   -2.8400  -61.4790 N.3    69  ALA69      -0.1231
     16  CA       -14.7370   -4.1850  -61.1180 C.3    69  ALA69       0.1694
     17  C        -13.9690   -5.2780  -61.8870 C.2    69  ALA69       0.2593
     18  O        -13.8910   -5.2790  -63.1260 O.2    69  ALA69      -0.2718
     19  CB       -16.1980   -4.3380  -61.3420 C.3    69  ALA69       0.0304
     20  N        -13.3790   -6.1920  -61.1330 N.am   70  GLY70      -0.1942
     21  CA       -12.6940   -7.3420  -61.7590 C.3    70  GLY70       0.2014
     22  C        -11.4840   -6.9800  -62.5890 C.2    70  GLY70       0.2638
     23  O        -11.0210   -7.8080  -63.4140 O.2    70  GLY70      -0.2714
     24  N        -10.9710   -5.7590  -62.4180 N.am   71  HIS71      -0.1973
     25  CA        -9.8060   -5.2460  -63.1730 C.3    71  HIS71       0.1656
     26  C        -10.0320   -5.1220  -64.6900 C.2    71  HIS71       0.2291
     27  O         -9.0440   -4.9810  -65.4400 O.2    71  HIS71      -0.2864
     28  CB        -8.5230   -6.1300  -62.9670 C.3    71  HIS71       0.0771
     29  CG        -8.2680   -6.5320  -61.5420 C.ar   71  HIS71       0.0820
     30  ND1       -7.2570   -5.9820  -60.7780 N.ar   71  HIS71      -0.2267
     31  CD2       -8.9010   -7.4180  -60.7400 C.ar   71  HIS71       0.1154
     32  CE1       -7.2820   -6.5130  -59.5650 C.ar   71  HIS71       0.1986
     33  NE2       -8.2770   -7.3780  -59.5150 N.ar   71  HIS71      -0.2212
     34  N        -17.3580    0.2930  -58.8810 N.3    80  ILE80      -0.1245
     35  CA       -17.9860   -0.1370  -57.6430 C.3    80  ILE80       0.1561
     36  C        -17.2550    0.4430  -56.3940 C.2    80  ILE80       0.2260
     37  O        -16.1720    1.0190  -56.5270 O.2    80  ILE80      -0.2867
     38  CB       -17.9900   -1.7350  -57.5880 C.3    80  ILE80       0.0252
     39  CG1      -16.5480   -2.2580  -57.6030 C.3    80  ILE80       0.0019
     40  CG2      -18.7450   -2.2770  -58.8250 C.3    80  ILE80       0.0019
     41  CD1      -16.3640   -3.7800  -57.3300 C.3    80  ILE80       0.0001
     42  N        -15.3810   -0.9510  -53.1900 N.3    82  TYR82      -0.1241
     43  CA       -14.8530   -2.2560  -52.7320 C.3    82  TYR82       0.1605
     44  C        -13.8700   -2.1210  -51.5460 C.2    82  TYR82       0.2264
     45  O        -13.1920   -1.0960  -51.3800 O.2    82  TYR82      -0.2867
     46  CB       -14.1890   -2.9380  -53.9370 C.3    82  TYR82       0.0534
     47  CG       -13.9860   -4.4570  -53.8250 C.ar   82  TYR82      -0.0201
     48  CD1      -15.0740   -5.3350  -53.9220 C.ar   82  TYR82      -0.0009
     49  CD2      -12.7370   -4.9830  -53.5730 C.ar   82  TYR82      -0.0009
     50  CE1      -14.9060   -6.7220  -53.8250 C.ar   82  TYR82       0.0417
     51  CE2      -12.5380   -6.3730  -53.4630 C.ar   82  TYR82       0.0417
     52  CZ       -13.6240   -7.2250  -53.5770 C.ar   82  TYR82       0.1957
     53  OH       -13.4140   -8.6150  -53.4880 O.3    82  TYR82      -0.2866
     54  N         -7.7370   -3.1640  -51.4230 N.3    85  THR85      -0.1218
     55  CA        -6.8840   -4.2810  -51.8360 C.3    85  THR85       0.1862
     56  C         -5.4340   -3.8640  -52.1200 C.2    85  THR85       0.2287
     57  O         -4.5510   -4.7250  -52.2980 O.2    85  THR85      -0.2866
     58  CB        -7.3940   -4.9160  -53.1270 C.3    85  THR85       0.1770
     59  OG1       -7.3260   -3.9400  -54.2040 O.3    85  THR85      -0.2211
     60  CG2       -8.8110   -5.4720  -52.9260 C.3    85  THR85       0.0375
     61  N         -6.3580   -1.3420  -59.7260 N.3    89  ASN89      -0.1225
     62  CA        -7.7500   -1.0460  -60.1110 C.3    89  ASN89       0.1785
     63  C         -8.4840   -0.2550  -59.0110 C.2    89  ASN89       0.2597
     64  O         -9.7020    0.0240  -59.1600 O.2    89  ASN89      -0.2718
     65  CB        -8.5410   -2.2850  -60.4940 C.3    89  ASN89       0.1169
     66  CG        -8.7920   -3.2320  -59.3210 C.2    89  ASN89       0.2627
     67  OD1       -7.8990   -3.4710  -58.5140 O.2    89  ASN89      -0.2716
     68  ND2      -10.0040   -3.7680  -59.2270 N.am   89  ASN89      -0.0877
     69  N         -7.7540    0.1320  -57.9510 N.am   90  GLN90      -0.1979
     70  CA        -8.2880    1.0870  -56.9290 C.3    90  GLN90       0.1601
     71  C         -7.4620    2.3710  -56.9190 C.2    90  GLN90       0.2287
     72  O         -7.6190    3.2490  -56.0400 O.2    90  GLN90      -0.2864
     73  CB        -8.3150    0.4520  -55.5230 C.3    90  GLN90       0.0394
     74  CG        -9.2290   -0.7360  -55.4490 C.3    90  GLN90       0.0908
     75  CD        -9.4730   -1.2750  -54.0500 C.2    90  GLN90       0.2608
     76  OE1       -8.7670   -0.9180  -53.1030 O.2    90  GLN90      -0.2717
     77  NE2      -10.5260   -2.0940  -53.9080 N.am   90  GLN90      -0.0878
@<TRIPOS>BOND
     1    27    26    2
     2    26    25    1
     3    23    22    2
     4    25    28    1
     5    25    24    1
     6    18    17    2
     7    28    29    1
     8    22    24   am
     9    22    21    1
    10    17    20   am
    11    17    16    1
    12    21    20    1
    13    29    30   ar
    14    29    31   ar
    15    15    16    1
    16    19    16    1
    17    30    32   ar
    18    31    33   ar
    19    65    62    1
    20    65    66    1
    21    62    61    1
    22    62    63    1
    23    32    33   ar
    24    10     9    2
    25    66    68   am
    26    66    67    2
    27     9     8    1
    28    64    63    2
    29    63    69   am
    30    34    35    1
    31    40    38    1
    32    13    12   ar
    33    69    70    1
    34     8     7    1
    35     8    11    1
    36    35    38    1
    37    35    36    1
    38    39    38    1
    39    39    41    1
    40    12    11    1
    41    12    14   ar
    42    70    71    1
    43    70    73    1
    44    71    72    2
    45    37    36    2
    46     4     3    2
    47    73    74    1
    48     1     2    1
    49    74    75    1
    50     3     2    1
    51     5     2    1
    52     5     6    1
    53    59    58    1
    54    75    77   am
    55    75    76    2
    56    46    47    1
    57    46    43    1
    58    48    50   ar
    59    48    47   ar
    60    50    52   ar
    61    47    49   ar
    62    52    53    1
    63    52    51   ar
    64    49    51   ar
    65    42    43    1
    66    58    60    1
    67    58    55    1
    68    43    44    1
    69    57    56    2
    70    56    55    1
    71    55    54    1
    72    44    45    2
