@<TRIPOS>MOLECULE
tmp/3pi5B00.pdb
 228 216 0 0 0
SMALL
GASTEIGER

@<TRIPOS>ATOM
      1  N         20.7620    0.0730  -11.4130 N.3    15  GLN15      -0.1231
      2  CA        19.3910    0.5130  -11.1740 C.3    15  GLN15       0.1698
      3  C         19.2840    2.0040  -10.8670 C.2    15  GLN15       0.2592
      4  O         18.2560    2.4670  -10.3810 O.2    15  GLN15      -0.2718
      5  CB        18.7740   -0.2890  -10.0290 C.3    15  GLN15       0.0381
      6  CG        19.1100   -1.7680  -10.0850 C.3    15  GLN15       0.0905
      7  CD        17.9770   -2.6410   -9.5920 C.2    15  GLN15       0.2608
      8  OE1       17.3720   -2.3700   -8.5540 O.2    15  GLN15      -0.2717
      9  NE2       17.6870   -3.7030  -10.3320 N.am   15  GLN15      -0.0878
     10  N         20.3530    2.7470  -11.1390 N.am   16  GLY16      -0.1957
     11  CA        20.3400    4.1800  -10.9010 C.3    16  GLY16       0.1869
     12  C         20.5800    4.6160   -9.4670 C.2    16  GLY16       0.2309
     13  O         20.4170    3.8350   -8.5320 O.2    16  GLY16      -0.2863
     14  N         15.0170    8.9070   -7.9320 N.3    33  LEU33      -0.1245
     15  CA        16.1390    8.6790   -8.8340 C.3    33  LEU33       0.1561
     16  C         16.6530   10.0260   -9.3650 C.2    33  LEU33       0.2260
     17  O         15.8680   10.8830   -9.7640 O.2    33  LEU33      -0.2867
     18  CB        15.6870    7.8000  -10.0060 C.3    33  LEU33       0.0270
     19  CG        16.7050    7.4820  -11.1020 C.3    33  LEU33       0.0019
     20  CD1       17.6930    6.4380  -10.6090 C.3    33  LEU33       0.0001
     21  CD2       15.9820    6.9660  -12.3280 C.3    33  LEU33       0.0001
     22  N         18.1940   11.9570  -12.1810 N.3    35  ASP35      -0.1239
     23  CA        18.3680   11.8020  -13.6200 C.3    35  ASP35       0.1674
     24  C         18.6190   13.0930  -14.4050 C.2    35  ASP35       0.2266
     25  O         17.7120   13.9150  -14.5760 O.2    35  ASP35      -0.2867
     26  CB        17.1330   11.0630  -14.1590 C.3    35  ASP35       0.1410
     27  CG        17.1600   10.8650  -15.6630 C.2    35  ASP35       0.3668
     28  OD1       18.2480   10.6390  -16.2370 O.co2  35  ASP35      -0.2456
     29  OD2       16.0690   10.9090  -16.2700 O.co2  35  ASP35      -0.2456
     30  N         19.2330   13.0540  -17.3860 N.3    37  GLY37      -0.1210
     31  CA        18.8020   12.7400  -18.7300 C.3    37  GLY37       0.1956
     32  C         17.3550   13.0970  -19.0300 C.2    37  GLY37       0.2613
     33  O         16.8780   12.8020  -20.1210 O.2    37  GLY37      -0.2717
     34  N         16.6480   13.7050  -18.0780 N.am   38  SER38      -0.1938
     35  CA        15.2600   14.0890  -18.3080 C.3    38  SER38       0.2055
     36  C         14.9410   15.3690  -17.5340 C.2    38  SER38       0.2644
     37  O         15.8040   15.9040  -16.8280 O.2    38  SER38      -0.2714
     38  CB        14.3000   12.9550  -17.9220 C.3    38  SER38       0.2130
     39  OG        14.2550   12.7340  -16.5240 O.3    38  SER38      -0.2179
     40  N         13.7170   15.8710  -17.6570 N.am   39  SER39      -0.1935
     41  CA        13.3730   17.1190  -16.9820 C.3    39  SER39       0.2055
     42  C         12.0600   17.1100  -16.2190 C.2    39  SER39       0.2643
     43  O         11.5840   18.1610  -15.7990 O.2    39  SER39      -0.2714
     44  CB        13.3690   18.2660  -17.9970 C.3    39  SER39       0.2130
     45  OG        14.6080   18.3290  -18.7030 O.3    39  SER39      -0.2179
     46  N         11.4830   15.9320  -16.0280 N.am   40  ASN40      -0.1971
     47  CA        10.2490   15.8260  -15.2780 C.3    40  ASN40       0.1688
     48  C         10.4560   15.2350  -13.8890 C.2    40  ASN40       0.2292
     49  O         11.2010   14.2630  -13.7070 O.2    40  ASN40      -0.2864
     50  CB         9.2370   14.9540  -16.0180 C.3    40  ASN40       0.1181
     51  CG         8.5620   15.6850  -17.1610 C.2    40  ASN40       0.2629
     52  OD1        9.1070   15.7980  -18.2680 O.2    40  ASN40      -0.2716
     53  ND2        7.3680   16.1970  -16.8910 N.am   40  ASN40      -0.0877
     54  N          5.3160   10.5180  -20.3230 N.3    72  VAL72      -0.1231
     55  CA         6.7370   10.5980  -20.6010 C.3    72  VAL72       0.1678
     56  C          7.2850    9.2590  -21.0510 C.2    72  VAL72       0.2434
     57  O          7.2450    8.2740  -20.3190 O.2    72  VAL72      -0.2733
     58  CB         7.5640   11.0750  -19.3810 C.3    72  VAL72       0.0265
     59  CG1        9.0440   11.0900  -19.7490 C.3    72  VAL72       0.0020
     60  CG2        7.1360   12.4720  -18.9710 C.3    72  VAL72       0.0020
     61  N          7.7700    9.2030  -22.2910 N.am   73  PRO73      -0.2718
     62  CA         8.3420    7.9970  -22.8770 C.3    73  PRO73       0.1535
     63  C          9.8710    8.0830  -22.8020 C.2    73  PRO73       0.2599
     64  O         10.4830    9.0050  -23.3490 O.2    73  PRO73      -0.2715
     65  CB         7.8410    8.0540  -24.3110 C.3    73  PRO73       0.0310
     66  CG         7.9580    9.5160  -24.6130 C.3    73  PRO73       0.0237
     67  CD         7.4630   10.1990  -23.3340 C.3    73  PRO73       0.0939
     68  N         10.4920    7.1390  -22.1080 N.am   74  TYR74      -0.1960
     69  CA        11.9440    7.1330  -22.0190 C.3    74  TYR74       0.1771
     70  C         12.4290    6.1270  -23.0560 C.2    74  TYR74       0.2620
     71  O         11.6180    5.4500  -23.6910 O.2    74  TYR74      -0.2715
     72  CB        12.3990    6.7100  -20.6150 C.3    74  TYR74       0.0574
     73  CG        11.9580    7.6440  -19.5150 C.ar   74  TYR74      -0.0198
     74  CD1       12.7060    8.7660  -19.1780 C.ar   74  TYR74      -0.0009
     75  CD2       10.7820    7.4150  -18.8210 C.ar   74  TYR74      -0.0009
     76  CE1       12.2910    9.6310  -18.1760 C.ar   74  TYR74       0.0417
     77  CE2       10.3580    8.2750  -17.8200 C.ar   74  TYR74       0.0417
     78  CZ        11.1110    9.3780  -17.5010 C.ar   74  TYR74       0.1957
     79  OH        10.6750   10.2380  -16.5130 O.3    74  TYR74      -0.2866
     80  N         13.7420    6.0400  -23.2400 N.am   75  THR75      -0.1937
     81  CA        14.2980    5.0950  -24.1920 C.3    75  THR75       0.2028
     82  C         13.8160    3.7020  -23.8080 C.2    75  THR75       0.2642
     83  O         13.5290    2.8640  -24.6610 O.2    75  THR75      -0.2714
     84  CB        15.8340    5.1190  -24.1740 C.3    75  THR75       0.1808
     85  OG1       16.2950    6.4150  -24.5710 O.3    75  THR75      -0.2208
     86  CG2       16.3940    4.0730  -25.1280 C.3    75  THR75       0.0379
     87  N         13.7150    3.4750  -22.5060 N.am   76  GLN76      -0.1976
     88  CA        13.2620    2.2010  -21.9780 C.3    76  GLN76       0.1601
     89  C         12.2940    2.5110  -20.8450 C.2    76  GLN76       0.2287
     90  O         12.6610    3.1660  -19.8680 O.2    76  GLN76      -0.2864
     91  CB        14.4590    1.4020  -21.4580 C.3    76  GLN76       0.0394
     92  CG        15.5390    1.1780  -22.5180 C.3    76  GLN76       0.0908
     93  CD        16.8920    0.8070  -21.9220 C.2    76  GLN76       0.2608
     94  OE1       17.4610    1.5560  -21.1160 O.2    76  GLN76      -0.2717
     95  NE2       17.4200   -0.3470  -22.3260 N.am   76  GLN76      -0.0878
     96  N          7.3090   -0.8410  -17.5560 N.3   110  LYS110     -0.1231
     97  CA         8.7540   -1.0380  -17.5260 C.3   110  LYS110      0.1693
     98  C          9.4930    0.2060  -17.0150 C.2   110  LYS110      0.2592
     99  O         10.5870    0.5360  -17.4810 O.2   110  LYS110     -0.2718
    100  CB         9.2610   -1.3940  -18.9280 C.3   110  LYS110      0.0285
    101  CG         8.7070   -2.7030  -19.4750 C.3   110  LYS110      0.0035
    102  CD         9.1540   -2.9550  -20.9090 C.3   110  LYS110      0.0206
    103  CE         8.5070   -4.2170  -21.4850 C.3   110  LYS110      0.1093
    104  NZ         8.8180   -4.4020  -22.9380 N.3   110  LYS110     -0.1314
    105  N          8.8900    0.9020  -16.0630 N.am  111  PHE111     -0.1976
    106  CA         9.5050    2.0980  -15.5110 C.3   111  PHE111      0.1639
    107  C         10.1340    1.7940  -14.1570 C.2   111  PHE111      0.2290
    108  O         11.3320    1.9710  -13.9640 O.2   111  PHE111     -0.2864
    109  CB         8.4660    3.1990  -15.3460 C.3   111  PHE111      0.0560
    110  CG         9.0170    4.4470  -14.7320 C.ar  111  PHE111     -0.0200
    111  CD1       10.0040    5.1760  -15.3750 C.ar  111  PHE111     -0.0042
    112  CD2        8.5560    4.8860  -13.5060 C.ar  111  PHE111     -0.0042
    113  CE1       10.5170    6.3280  -14.8060 C.ar  111  PHE111     -0.0003
    114  CE2        9.0600    6.0310  -12.9300 C.ar  111  PHE111     -0.0003
    115  CZ        10.0440    6.7530  -13.5810 C.ar  111  PHE111     -0.0000
    116  N         11.6220   -0.4240  -11.1980 N.3   113  ILE113     -0.1245
    117  CA        12.4380   -1.6270  -11.1980 C.3   113  ILE113      0.1561
    118  C         12.1900   -2.3840   -9.9050 C.2   113  ILE113      0.2260
    119  O         12.1230   -1.7910   -8.8260 O.2   113  ILE113     -0.2867
    120  CB        13.9320   -1.2840  -11.3020 C.3   113  ILE113      0.0252
    121  CG1       14.1940   -0.4950  -12.5880 C.3   113  ILE113      0.0019
    122  CG2       14.7570   -2.5650  -11.2810 C.3   113  ILE113      0.0019
    123  CD1       15.6560   -0.0880  -12.7790 C.3   113  ILE113      0.0001
    124  N         13.7230    2.9830   -5.0590 N.3   118  TRP118     -0.1241
    125  CA        13.2430    4.3380   -5.3330 C.3   118  TRP118      0.1605
    126  C         11.8260    4.2770   -5.9000 C.2   118  TRP118      0.2264
    127  O         11.4540    3.3100   -6.5660 O.2   118  TRP118     -0.2867
    128  CB        14.1830    5.1110   -6.2780 C.3   118  TRP118      0.0550
    129  CG        14.5210    4.4520   -7.5720 C.ar  118  TRP118      0.0003
    130  CD1       15.6470    3.7360   -7.8610 C.ar  118  TRP118      0.0946
    131  CD2       13.7480    4.4910   -8.7790 C.ar  118  TRP118      0.0152
    132  NE1       15.6250    3.3310   -9.1780 N.ar  118  TRP118     -0.2442
    133  CE2       14.4700    3.7820   -9.7610 C.ar  118  TRP118      0.0810
    134  CE3       12.5140    5.0580   -9.1230 C.ar  118  TRP118      0.0012
    135  CZ2       14.0050    3.6300  -11.0640 C.ar  118  TRP118      0.0191
    136  CZ3       12.0500    4.9050  -10.4210 C.ar  118  TRP118      0.0001
    137  CH2       12.7960    4.1950  -11.3760 C.ar  118  TRP118      0.0015
    138  N         11.2780    9.8760   -9.8060 N.3   121  ILE121     -0.1245
    139  CA        12.4020   10.3280  -10.6170 C.3   121  ILE121      0.1561
    140  C         12.4680   11.8500  -10.6070 C.2   121  ILE121      0.2260
    141  O         11.4450   12.5350  -10.5690 O.2   121  ILE121     -0.2867
    142  CB        12.2730    9.8150  -12.0660 C.3   121  ILE121      0.0252
    143  CG1       13.5250   10.1650  -12.8620 C.3   121  ILE121      0.0019
    144  CG2       11.0280   10.4180  -12.7180 C.3   121  ILE121      0.0019
    145  CD1       13.5650    9.5190  -14.2400 C.3   121  ILE121      0.0001
    146  N         12.9120   19.8580  -22.7960 N.3   129  ILE129     -0.1245
    147  CA        12.5130   18.4740  -23.0360 C.3   129  ILE129      0.1561
    148  C         11.4870   17.9680  -22.0450 C.2   129  ILE129      0.2260
    149  O         11.1750   16.7790  -22.0110 O.2   129  ILE129     -0.2867
    150  CB        13.7290   17.5000  -23.0610 C.3   129  ILE129      0.0252
    151  CG1       14.5210   17.5860  -21.7520 C.3   129  ILE129      0.0019
    152  CG2       14.6130   17.8120  -24.2670 C.3   129  ILE129      0.0019
    153  CD1       15.7170   16.6220  -21.7010 C.3   129  ILE129      0.0001
    154  N          7.7790   17.3660  -20.4010 N.3   131  ARG131     -0.1245
    155  CA         6.4740   17.0030  -20.9360 C.3   131  ARG131      0.1563
    156  C          5.4400   17.5510  -19.9540 C.2   131  ARG131      0.2260
    157  O          5.6840   17.5990  -18.7500 O.2   131  ARG131     -0.2867
    158  CB         6.3150   15.4710  -21.0420 C.3   131  ARG131      0.0307
    159  CG         7.2460   14.7880  -22.0420 C.3   131  ARG131      0.0489
    160  CD         7.1580   15.4480  -23.4090 C.3   131  ARG131      0.2205
    161  NE         8.0930   14.8740  -24.3770 N.pl3 131  ARG131     -0.0865
    162  CZ         7.8810   13.7530  -25.0650 C.cat 131  ARG131      0.5346
    163  NH1        6.7560   13.0710  -24.8990 N.pl3 131  ARG131      0.1354
    164  NH2        8.7930   13.3120  -25.9230 N.pl3 131  ARG131      0.1354
    165  N         18.9170   18.8350  -23.2540 N.3   190  TYR190     -0.1241
    166  CA        19.5500   17.6910  -22.6010 C.3   190  TYR190      0.1605
    167  C         20.8740   18.3570  -22.1450 C.2   190  TYR190      0.2264
    168  O         21.1280   19.5180  -22.4970 O.2   190  TYR190     -0.2867
    169  CB        19.9070   16.5990  -23.6220 C.3   190  TYR190      0.0534
    170  CG        18.7840   15.6840  -24.0440 C.ar  190  TYR190     -0.0201
    171  CD1       18.3080   14.7060  -23.1840 C.ar  190  TYR190     -0.0009
    172  CD2       18.2000   15.7910  -25.3030 C.ar  190  TYR190     -0.0009
    173  CE1       17.2870   13.8600  -23.5570 C.ar  190  TYR190      0.0417
    174  CE2       17.1710   14.9440  -25.6890 C.ar  190  TYR190      0.0417
    175  CZ        16.7180   13.9840  -24.8130 C.ar  190  TYR190      0.1957
    176  OH        15.6860   13.1430  -25.1640 O.3   190  TYR190     -0.2866
    177  N         25.0590   13.3660  -24.8840 N.3   218  ILE218     -0.1245
    178  CA        24.5330   13.9020  -23.6370 C.3   218  ILE218      0.1561
    179  C         25.1040   13.2300  -22.3960 C.2   218  ILE218      0.2260
    180  O         25.5430   12.0930  -22.4540 O.2   218  ILE218     -0.2867
    181  CB        22.9900   13.7580  -23.6170 C.3   218  ILE218      0.0252
    182  CG1       22.6130   12.2830  -23.5130 C.3   218  ILE218      0.0019
    183  CG2       22.4020   14.3020  -24.8950 C.3   218  ILE218      0.0019
    184  CD1       21.1260   12.0550  -23.3540 C.3   218  ILE218      0.0001
    185  N         24.1150   11.6460  -19.2080 N.3   220  ASP220     -0.1239
    186  CA        22.9000   11.1040  -18.6130 C.3   220  ASP220      0.1674
    187  C         23.1350   10.2080  -17.3910 C.2   220  ASP220      0.2266
    188  O         23.4590    9.0260  -17.5250 O.2   220  ASP220     -0.2867
    189  CB        22.1630   10.3220  -19.7000 C.3   220  ASP220      0.1410
    190  CG        20.7540    9.9660  -19.3180 C.2   220  ASP220      0.3668
    191  OD1       20.4210   10.0050  -18.1170 O.co2 220  ASP220     -0.2456
    192  OD2       19.9770    9.6250  -20.2310 O.co2 220  ASP220     -0.2456
    193  N         20.9950    9.0570  -15.5570 N.3   222  GLY222     -0.1210
    194  CA        19.9090    8.0960  -15.4530 C.3   222  GLY222      0.1956
    195  C         20.1130    6.8820  -16.3450 C.2   222  GLY222      0.2612
    196  O         19.2810    5.9820  -16.3700 O.2   222  GLY222     -0.2717
    197  N         21.2100    6.8650  -17.0940 N.am  223  THR223     -0.1952
    198  CA        21.5190    5.7410  -17.9690 C.3   223  THR223      0.1897
    199  C         22.7360    5.0080  -17.4110 C.2   223  THR223      0.2313
    200  O         23.7070    5.6350  -16.9630 O.2   223  THR223     -0.2863
    201  CB        21.8310    6.2090  -19.4110 C.3   223  THR223      0.1794
    202  OG1       20.6550    6.7820  -19.9900 O.3   223  THR223     -0.2208
    203  CG2       22.2900    5.0440  -20.2750 C.3   223  THR223      0.0378
    204  N         26.4630    4.6160  -24.2640 N.3   227  ARG227     -0.1245
    205  CA        25.8040    4.2690  -25.5140 C.3   227  ARG227      0.1563
    206  C         26.4510    5.0630  -26.6420 C.2   227  ARG227      0.2260
    207  O         26.6690    6.2720  -26.5290 O.2   227  ARG227     -0.2867
    208  CB        24.2990    4.5690  -25.4200 C.3   227  ARG227      0.0307
    209  CG        23.5430    3.7110  -24.3820 C.3   227  ARG227      0.0489
    210  CD        22.1080    4.1990  -24.1430 C.3   227  ARG227      0.2205
    211  NE        21.2860    4.1870  -25.3520 N.pl3 227  ARG227     -0.0865
    212  CZ        20.9010    3.0830  -25.9810 C.cat 227  ARG227      0.5346
    213  NH1       21.2600    1.8920  -25.5130 N.pl3 227  ARG227      0.1354
    214  NH2       20.1740    3.1700  -27.0860 N.pl3 227  ARG227      0.1354
    215  N         19.9780    7.1620  -30.8700 N.3   321  THR321     -0.1218
    216  CA        19.6180    8.5240  -30.4800 C.3   321  THR321      0.1862
    217  C         20.8210    9.3360  -30.0190 C.2   321  THR321      0.2287
    218  O         20.6750   10.2700  -29.2330 O.2   321  THR321     -0.2866
    219  CB        18.5980    8.5280  -29.3420 C.3   321  THR321      0.1770
    220  OG1       19.1380    7.8180  -28.2220 O.3   321  THR321     -0.2211
    221  CG2       17.3030    7.8720  -29.7870 C.3   321  THR321      0.0375
    222  N         25.5270    8.5050  -25.4320 N.3   324  VAL324     -0.1245
    223  CA        25.0120    8.7200  -24.0860 C.3   324  VAL324      0.1561
    224  C         26.0890    8.3720  -23.0750 C.2   324  VAL324      0.2260
    225  O         26.5220    7.2240  -22.9790 O.2   324  VAL324     -0.2867
    226  CB        23.7810    7.8630  -23.7490 C.3   324  VAL324      0.0252
    227  CG1       23.3750    8.1330  -22.3030 C.3   324  VAL324      0.0019
    228  CG2       22.6290    8.1960  -24.6800 C.3   324  VAL324      0.0019
@<TRIPOS>BOND
     1   215   216    1
     2   216   217    1
     3   216   219    1
     4   217   218    2
     5   221   219    1
     6   219   220    1
     7   214   212    1
     8   206   207    2
     9   206   205    1
    10   212   213    1
    11   212   211    2
    12   164   162    1
    13   174   172   ar
    14   174   175   ar
    15   205   208    1
    16   205   204    1
    17   222   223    1
    18   208   209    1
    19   211   210    1
    20   172   170   ar
    21   176   175    1
    22    86    84    1
    23   162   163    1
    24   162   161    2
    25   183   181    1
    26   177   178    1
    27   175   173   ar
    28   228   226    1
    29    83    82    2
    30    66    65    1
    31    66    67    1
    32    85    84    1
    33   209   210    1
    34   161   160    1
    35    65    62    1
    36   152   150    1
    37    81    84    1
    38    81    82    1
    39    81    80    1
    40   223   226    1
    41   223   224    1
    42   170   169    1
    43   170   171   ar
    44    82    87   am
    45   226   227    1
    46    71    70    2
    47   178   181    1
    48   178   179    1
    49   169   166    1
    50   181   182    1
    51   173   171   ar
    52   182   184    1
    53   160   159    1
    54    64    63    2
    55    67    61    1
    56   165   166    1
    57    80    70   am
    58   224   225    2
    59   150   147    1
    60   150   151    1
    61    70    69    1
    62   147   146    1
    63   147   148    1
    64   104   103    1
    65    62    63    1
    66    62    61    1
    67    63    68   am
    68   166   167    1
    69    92    93    1
    70    92    91    1
    71    87    88    1
    72   168   167    2
    73   180   179    2
    74    95    93   am
    75    61    56   am
    76    68    69    1
    77   148   149    2
    78   159   158    1
    79    69    72    1
    80    88    91    1
    81    88    89    1
    82    93    94    2
    83   151   153    1
    84   103   102    1
    85    56    55    1
    86    56    57    2
    87   158   155    1
    88   155   154    1
    89   155   156    1
    90   102   101    1
    91    89    90    2
    92    72    73    1
    93    55    54    1
    94    55    58    1
    95   203   201    1
    96   192   190   ar
    97    33    32    2
    98   202   201    1
    99   156   157    2
   100    59    58    1
   101   189   190    1
   102   189   186    1
   103    73    74   ar
   104    73    75   ar
   105   101   100    1
   106   201   198    1
   107    58    60    1
   108   190   191   ar
   109   185   186    1
   110    74    76   ar
   111    32    31    1
   112    32    34   am
   113   100    97    1
   114    75    77   ar
   115    31    30    1
   116    45    44    1
   117   186   187    1
   118    35    34    1
   119    35    38    1
   120    35    36    1
   121    52    51    2
   122    76    78   ar
   123    44    41    1
   124   198   199    1
   125   198   197    1
   126    38    39    1
   127    77    78   ar
   128    40    36   am
   129    40    41    1
   130    96    97    1
   131    36    37    2
   132    97    98    1
   133   188   187    2
   134    78    79    1
   135    99    98    2
   136   199   200    2
   137    51    53   am
   138    51    50    1
   139   197   195   am
   140    98   105   am
   141    41    42    1
   142   196   195    2
   143   195   194    1
   144    29    27   ar
   145    28    27   ar
   146    42    46   am
   147    42    43    2
   148   105   106    1
   149    46    47    1
   150    50    47    1
   151    27    26    1
   152   193   194    1
   153   106   109    1
   154   106   107    1
   155   111   113   ar
   156   111   110   ar
   157   109   110    1
   158    47    48    1
   159   113   115   ar
   160   110   112   ar
   161    25    24    2
   162    24    23    1
   163   145   143    1
   164    26    23    1
   165   107   108    2
   166    48    49    2
   167    23    22    1
   168   115   114   ar
   169   112   114   ar
   170   143   142    1
   171   123   121    1
   172   144   142    1
   173   121   120    1
   174    21    19    1
   175   142   139    1
   176     1     2    1
   177   137   135   ar
   178   137   136   ar
   179   120   122    1
   180   120   117    1
   181   116   117    1
   182   117   118    1
   183     2     3    1
   184     2     5    1
   185    10    11    1
   186    10     3   am
   187    19    20    1
   188    19    18    1
   189   135   133   ar
   190    11    12    1
   191     3     4    2
   192   139   140    1
   193   139   138    1
   194   140   141    2
   195   136   134   ar
   196     9     7   am
   197     6     5    1
   198     6     7    1
   199    18    15    1
   200   118   119    2
   201    17    16    2
   202   133   132   ar
   203   133   131   ar
   204     7     8    2
   205    12    13    2
   206    16    15    1
   207   132   130   ar
   208   134   131   ar
   209    15    14    1
   210   131   129   ar
   211   130   129   ar
   212   129   128    1
   213   127   126    2
   214   128   125    1
   215   126   125    1
   216   125   124    1
