@<TRIPOS>MOLECULE
tmp/3pihA00.pdb
 117 110 0 0 0
SMALL
GASTEIGER

@<TRIPOS>ATOM
      1  N         26.0460   36.8400    7.8430 N.3   375  TYR375     -0.1241
      2  CA        26.8550   36.2150    6.7910 C.3   375  TYR375      0.1605
      3  C         26.7950   36.9200    5.4340 C.2   375  TYR375      0.2264
      4  O         27.5850   36.6130    4.5410 O.2   375  TYR375     -0.2867
      5  CB        26.4670   34.7470    6.6130 C.3   375  TYR375      0.0534
      6  CG        25.0550   34.5220    6.1310 C.ar  375  TYR375     -0.0201
      7  CD1       24.7980   34.2040    4.8090 C.ar  375  TYR375     -0.0009
      8  CD2       23.9810   34.6160    7.0020 C.ar  375  TYR375     -0.0009
      9  CE1       23.5160   33.9910    4.3640 C.ar  375  TYR375      0.0417
     10  CE2       22.6950   34.4090    6.5700 C.ar  375  TYR375      0.0417
     11  CZ        22.4690   34.0920    5.2490 C.ar  375  TYR375      0.1957
     12  OH        21.1870   33.8760    4.8100 O.3   375  TYR375     -0.2866
     13  N         25.7910   42.6100   -1.6870 N.3   380  ARG380     -0.1245
     14  CA        24.8450   41.6120   -2.1770 C.3   380  ARG380      0.1563
     15  C         23.6490   42.2210   -2.9090 C.2   380  ARG380      0.2260
     16  O         22.9770   43.1010   -2.3880 O.2   380  ARG380     -0.2867
     17  CB        24.3590   40.7490   -1.0180 C.3   380  ARG380      0.0307
     18  CG        23.2920   39.7580   -1.4110 C.3   380  ARG380      0.0489
     19  CD        23.7780   38.8520   -2.5140 C.3   380  ARG380      0.2205
     20  NE        22.9710   37.6420   -2.5920 N.pl3 380  ARG380     -0.0865
     21  CZ        23.0460   36.6600   -1.7050 C.cat 380  ARG380      0.5346
     22  NH1       22.2890   35.5820   -1.8320 N.pl3 380  ARG380      0.1354
     23  NH2       23.8780   36.7670   -0.6810 N.pl3 380  ARG380      0.1354
     24  N         17.0870   34.9820   -1.2040 N.3   386  SER386     -0.1217
     25  CA        15.9940   34.0440   -1.0620 C.3   386  SER386      0.1889
     26  C         14.8050   34.8060   -0.5220 C.2   386  SER386      0.2288
     27  O         14.9170   35.9830   -0.1900 O.2   386  SER386     -0.2866
     28  CB        16.3690   32.9640   -0.0740 C.3   386  SER386      0.2089
     29  OG        16.4410   33.5270    1.2210 O.3   386  SER386     -0.2183
     30  N         15.4660   35.3490    3.1850 N.3   389  GLU389     -0.1245
     31  CA        16.4670   36.3860    3.3660 C.3   389  GLU389      0.1567
     32  C         15.8160   37.7710    3.1770 C.2   389  GLU389      0.2260
     33  O         16.0170   38.6900    3.9770 O.2   389  GLU389     -0.2867
     34  CB        17.6580   36.1560    2.4220 C.3   389  GLU389      0.0388
     35  CG        18.6860   35.1630    2.9560 C.3   389  GLU389      0.1160
     36  CD        19.5650   34.5340    1.8700 C.2   389  GLU389      0.3649
     37  OE1       19.1750   34.5110    0.6790 O.co2 389  GLU389     -0.2457
     38  OE2       20.6560   34.0420    2.2220 O.co2 389  GLU389     -0.2457
     39  N         13.8020   29.4560    6.1260 N.3   416  GLY416     -0.1225
     40  CA        15.1660   29.6600    5.6810 C.3   416  GLY416      0.1811
     41  C         16.0890   29.7860    6.8610 C.2   416  GLY416      0.2280
     42  O         17.2910   30.0020    6.7120 O.2   416  GLY416     -0.2866
     43  N         29.0600   28.8180   -6.3310 N.3   518  ASN518     -0.1225
     44  CA        28.9600   29.7720   -5.2200 C.3   518  ASN518      0.1785
     45  C         29.9800   29.5590   -4.1150 C.2   518  ASN518      0.2597
     46  O         31.1700   29.4570   -4.3870 O.2   518  ASN518     -0.2718
     47  CB        27.5430   29.8250   -4.6480 C.3   518  ASN518      0.1169
     48  CG        26.5490   30.4360   -5.6220 C.2   518  ASN518      0.2627
     49  OD1       26.9390   31.1400   -6.5620 O.2   518  ASN518     -0.2716
     50  ND2       25.2600   30.1730   -5.4030 N.am  518  ASN518     -0.0877
     51  N         29.5130   29.4910   -2.8740 N.am  519  ASN519     -0.1974
     52  CA        30.4120   29.3960   -1.7250 C.3   519  ASN519      0.1688
     53  C         30.7990   27.9760   -1.3200 C.2   519  ASN519      0.2292
     54  O         31.4740   27.7930   -0.3050 O.2   519  ASN519     -0.2864
     55  CB        29.7710   30.0560   -0.5180 C.3   519  ASN519      0.1181
     56  CG        28.5440   29.3110   -0.0540 C.2   519  ASN519      0.2629
     57  OD1       27.7110   28.9100   -0.8670 O.2   519  ASN519     -0.2716
     58  ND2       28.4330   29.0990    1.2510 N.am  519  ASN519     -0.0877
     59  N         21.5690   29.0280    7.3910 N.3   539  SER539     -0.1202
     60  CA        21.3200   29.8550    6.2170 C.3   539  SER539      0.2020
     61  C         22.6560   30.2720    5.6670 C.2   539  SER539      0.2619
     62  O         23.5450   30.6410    6.4220 O.2   539  SER539     -0.2717
     63  CB        20.5320   31.1080    6.5870 C.3   539  SER539      0.2103
     64  OG        19.5900   30.8400    7.6060 O.3   539  SER539     -0.2182
     65  N         22.8080   30.2010    4.3550 N.am  540  GLY540     -0.1942
     66  CA        24.0250   30.6500    3.7140 C.3   540  GLY540      0.2014
     67  C         25.0830   29.5750    3.5960 C.2   540  GLY540      0.2640
     68  O         26.1470   29.8150    3.0240 O.2   540  GLY540     -0.2714
     69  N         24.7970   28.3910    4.1320 N.am  541  SER541     -0.1935
     70  CA        25.7570   27.2950    4.0970 C.3   541  SER541      0.2055
     71  C         25.9560   26.7160    2.6950 C.2   541  SER541      0.2644
     72  O         27.0090   26.1480    2.4080 O.2   541  SER541     -0.2714
     73  CB        25.3750   26.1970    5.0880 C.3   541  SER541      0.2130
     74  OG        24.0400   25.7670    4.9070 O.3   541  SER541     -0.2179
     75  N         24.9530   26.8660    1.8310 N.am  542  GLY542     -0.1939
     76  CA        25.0340   26.3990    0.4550 C.3   542  GLY542      0.2014
     77  C         24.0720   25.2810    0.0600 C.2   542  GLY542      0.2639
     78  O         24.2620   24.6120   -0.9520 O.2   542  GLY542     -0.2714
     79  N         23.0260   25.0790    0.8450 N.am  543  LYS543     -0.1963
     80  CA        22.0640   24.0220    0.5640 C.3   543  LYS543      0.1728
     81  C         21.4060   24.1550   -0.8200 C.2   543  LYS543      0.2617
     82  O         21.4880   23.2360   -1.6350 O.2   543  LYS543     -0.2715
     83  CB        21.0120   23.9560    1.6780 C.3   543  LYS543      0.0311
     84  CG        21.6180   23.8960    3.0730 C.3   543  LYS543      0.0038
     85  CD        20.6060   23.5370    4.1280 C.3   543  LYS543      0.0206
     86  CE        19.6740   24.6930    4.4010 C.3   543  LYS543      0.1093
     87  NZ        20.4440   25.9060    4.7470 N.3   543  LYS543     -0.1314
     88  N         20.7580   25.2880   -1.0880 N.am  544  SER544     -0.1936
     89  CA        20.1560   25.5230   -2.3960 C.3   544  SER544      0.2055
     90  C         21.1880   25.4780   -3.5130 C.2   544  SER544      0.2643
     91  O         20.9290   24.9500   -4.5920 O.2   544  SER544     -0.2714
     92  CB        19.4320   26.8610   -2.4300 C.3   544  SER544      0.2130
     93  OG        18.0250   26.6900   -2.3510 O.3   544  SER544     -0.2179
     94  N         22.3620   26.0370   -3.2480 N.am  545  SER545     -0.1949
     95  CA        23.4400   26.0560   -4.2330 C.3   545  SER545      0.1924
     96  C         23.7670   24.6490   -4.7300 C.2   545  SER545      0.2314
     97  O         23.7690   24.3790   -5.9290 O.2   545  SER545     -0.2863
     98  CB        24.6880   26.7180   -3.6460 C.3   545  SER545      0.2116
     99  OG        24.3850   27.9920   -3.1000 O.3   545  SER545     -0.2180
    100  N         15.8250   19.5010    1.5570 N.3   784  ILE784     -0.1245
    101  CA        16.5260   20.5880    2.2180 C.3   784  ILE784      0.1561
    102  C         15.6320   21.0620    3.3380 C.2   784  ILE784      0.2260
    103  O         14.5730   21.6220    3.0800 O.2   784  ILE784     -0.2867
    104  CB        16.7140   21.7840    1.2950 C.3   784  ILE784      0.0252
    105  CG1       17.5050   21.3860    0.0540 C.3   784  ILE784      0.0019
    106  CG2       17.4000   22.9130    2.0500 C.3   784  ILE784      0.0019
    107  CD1       17.6320   22.5010   -0.9440 C.3   784  ILE784      0.0001
    108  N         15.2600   22.6340    7.6260 N.3   786  HIS786     -0.1241
    109  CA        15.7410   23.0600    8.9220 C.3   786  HIS786      0.1621
    110  C         14.8050   22.4910    9.9700 C.2   786  HIS786      0.2264
    111  O         15.0680   22.5830   11.1630 O.2   786  HIS786     -0.2867
    112  CB        15.7470   24.5830    9.0350 C.3   786  HIS786      0.0745
    113  CG        16.7200   25.2600    8.1260 C.ar  786  HIS786      0.0817
    114  ND1       16.3270   25.9570    7.0080 N.ar  786  HIS786     -0.2268
    115  CD2       18.0700   25.3490    8.1710 C.ar  786  HIS786      0.1154
    116  CE1       17.3930   26.4520    6.4030 C.ar  786  HIS786      0.1986
    117  NE2       18.4640   26.0940    7.0890 N.ar  786  HIS786     -0.2212
@<TRIPOS>BOND
     1    49    48    2
     2    43    44    1
     3    97    96    2
     4    48    50   am
     5    48    47    1
     6    44    47    1
     7    44    45    1
     8    96    95    1
     9    91    90    2
    10    46    45    2
    11    95    98    1
    12    95    94    1
    13    45    51   am
    14    98    99    1
    15    90    94   am
    16    90    89    1
    17    15    16    2
    18    15    14    1
    19    51    52    1
    20    20    19    1
    21    20    21    2
    22    19    18    1
    23    92    89    1
    24    92    93    1
    25    89    88    1
    26    14    13    1
    27    14    17    1
    28    22    21    1
    29    52    53    1
    30    52    55    1
    31    21    23    1
    32    82    81    2
    33    18    17    1
    34    53    54    2
    35    24    25    1
    36    88    81   am
    37    25    26    1
    38    25    28    1
    39    78    77    2
    40   107   105    1
    41    57    56    2
    42    81    80    1
    43    26    27    2
    44    55    56    1
    45    28    29    1
    46    56    58   am
    47   105   104    1
    48    77    76    1
    49    77    79   am
    50    76    75    1
    51    80    79    1
    52    80    83    1
    53    37    36   ar
    54   104   106    1
    55   104   101    1
    56   100   101    1
    57    83    84    1
    58    75    71   am
    59    36    38   ar
    60    36    35    1
    61   101   102    1
    62    72    71    2
    63    34    35    1
    64    34    31    1
    65    71    70    1
    66    68    67    2
    67    84    85    1
    68   103   102    2
    69    32    31    1
    70    32    33    2
    71    30    31    1
    72    67    66    1
    73    67    69   am
    74    66    65    1
    75    70    69    1
    76    70    73    1
    77    85    86    1
    78    65    61   am
    79     9     7   ar
    80     9    11   ar
    81    86    87    1
    82     4     3    2
    83     7     6   ar
    84    12    11    1
    85    74    73    1
    86    11    10   ar
    87     3     2    1
    88    61    60    1
    89    61    62    2
    90    40    39    1
    91    40    41    1
    92     6     5    1
    93     6     8   ar
    94    60    63    1
    95    60    59    1
    96   116   114   ar
    97   116   117   ar
    98    10     8   ar
    99    63    64    1
   100     5     2    1
   101    42    41    2
   102     2     1    1
   103   114   113   ar
   104   117   115   ar
   105   108   109    1
   106   113   115   ar
   107   113   112    1
   108   109   112    1
   109   109   110    1
   110   110   111    2
