@<TRIPOS>MOLECULE
tmp/3pihA01.pdb
 94 89 0 0 0
SMALL
GASTEIGER

@<TRIPOS>ATOM
      1  N        -13.1900   34.2820    3.9490 N.3    11  HIS11      -0.1241
      2  CA       -12.9910   32.8940    3.5610 C.3    11  HIS11       0.1621
      3  C        -13.7410   31.9320    4.4830 C.2    11  HIS11       0.2264
      4  O        -14.9480   32.0610    4.6970 O.2    11  HIS11      -0.2867
      5  CB       -11.5000   32.5640    3.5370 C.3    11  HIS11       0.0745
      6  CG       -11.1750   31.3080    2.7930 C.ar   11  HIS11       0.0817
      7  ND1       -9.9070   30.7670    2.7630 N.ar   11  HIS11      -0.2268
      8  CD2      -11.9520   30.4840    2.0500 C.ar   11  HIS11       0.1154
      9  CE1       -9.9160   29.6650    2.0340 C.ar   11  HIS11       0.1986
     10  NE2      -11.1460   29.4700    1.5910 N.ar   11  HIS11      -0.2212
     11  N         -2.4930   23.7510    8.8290 N.3    32  SER32      -0.1202
     12  CA        -2.5410   24.3720    7.5050 C.3    32  SER32       0.2020
     13  C         -3.8880   24.1530    6.8410 C.2    32  SER32       0.2619
     14  O         -4.2990   23.0080    6.6110 O.2    32  SER32      -0.2717
     15  CB        -1.4250   23.8360    6.6100 C.3    32  SER32       0.2103
     16  OG        -1.5910   24.2780    5.2780 O.3    32  SER32      -0.2182
     17  N         -4.5560   25.2650    6.5370 N.am   33  GLY33      -0.1942
     18  CA        -5.9020   25.2680    5.9900 C.3    33  GLY33       0.2014
     19  C         -6.9250   25.8640    6.9430 C.2    33  GLY33       0.2640
     20  O         -7.9920   26.3130    6.5320 O.2    33  GLY33      -0.2714
     21  N         -6.5910   25.8700    8.2270 N.am   34  SER34      -0.1935
     22  CA        -7.5060   26.3190    9.2710 C.3    34  SER34       0.2055
     23  C         -8.0600   27.7220    9.0470 C.2    34  SER34       0.2644
     24  O         -9.1230   28.0590    9.5700 O.2    34  SER34      -0.2714
     25  CB        -6.8220   26.2440   10.6390 C.3    34  SER34       0.2130
     26  OG        -5.6060   26.9680   10.6430 O.3    34  SER34      -0.2179
     27  N         -7.3330   28.5330    8.2810 N.am   35  GLY35      -0.1939
     28  CA        -7.7580   29.8830    7.9600 C.3    35  GLY35       0.2014
     29  C         -7.2680   30.9360    8.9380 C.2    35  GLY35       0.2639
     30  O         -7.9150   31.9620    9.1450 O.2    35  GLY35      -0.2714
     31  N         -6.1180   30.6880    9.5470 N.am   36  LYS36      -0.1963
     32  CA        -5.5550   31.6530   10.4700 C.3    36  LYS36       0.1728
     33  C         -4.7310   32.6820    9.7010 C.2    36  LYS36       0.2617
     34  O         -4.3890   33.7370   10.2190 O.2    36  LYS36      -0.2715
     35  CB        -4.7300   30.9500   11.5420 C.3    36  LYS36       0.0311
     36  CG        -3.9540   29.7370   11.0460 C.3    36  LYS36       0.0038
     37  CD        -2.4610   30.0090   11.0260 C.3    36  LYS36       0.0206
     38  CE        -1.6740   28.7280   10.9450 C.3    36  LYS36       0.1093
     39  NZ        -1.9990   27.9430    9.7330 N.3    36  LYS36      -0.1314
     40  N         -4.4300   32.3790    8.4490 N.am   37  SER37      -0.1936
     41  CA        -3.7980   33.3570    7.5830 C.3    37  SER37       0.2055
     42  C         -4.8670   34.2700    7.0320 C.2    37  SER37       0.2643
     43  O         -4.5930   35.4040    6.6550 O.2    37  SER37      -0.2714
     44  CB        -3.0640   32.6740    6.4330 C.3    37  SER37       0.2130
     45  OG        -1.9130   31.9950    6.9020 O.3    37  SER37      -0.2179
     46  N         -6.0930   33.7630    6.9840 N.am   38  SER38      -0.1949
     47  CA        -7.2110   34.5400    6.4800 C.3    38  SER38       0.1924
     48  C         -7.6170   35.5770    7.5130 C.2    38  SER38       0.2314
     49  O         -8.2830   36.5580    7.1890 O.2    38  SER38      -0.2863
     50  CB        -8.3920   33.6290    6.1330 C.3    38  SER38       0.2116
     51  OG        -8.1170   32.8520    4.9800 O.3    38  SER38      -0.2180
     52  N          4.3510   36.3370    7.9800 N.3   411  ASP411     -0.1239
     53  CA         4.0290   34.9530    7.6980 C.3   411  ASP411      0.1674
     54  C          5.2570   34.0610    7.7860 C.2   411  ASP411      0.2266
     55  O          6.1630   34.1560    6.9560 O.2   411  ASP411     -0.2867
     56  CB         3.3620   34.7920    6.3360 C.3   411  ASP411      0.1410
     57  CG         2.7360   33.4040    6.1530 C.2   411  ASP411      0.3668
     58  OD1        1.6300   33.1510    6.7060 O.co2 411  ASP411     -0.2456
     59  OD2        3.3570   32.5700    5.4550 O.co2 411  ASP411     -0.2456
     60  N          2.0760   34.6010   12.0070 N.3   442  VAL442     -0.1245
     61  CA         1.5690   33.2800   11.6540 C.3   442  VAL442      0.1561
     62  C          2.7670   32.3440   11.6080 C.2   442  VAL442      0.2260
     63  O          3.6210   32.4570   10.7390 O.2   442  VAL442     -0.2867
     64  CB         0.8030   33.2620   10.2910 C.3   442  VAL442      0.0252
     65  CG1        0.5830   31.8320    9.8150 C.3   442  VAL442      0.0019
     66  CG2       -0.5390   33.9880   10.4080 C.3   442  VAL442      0.0019
     67  N          4.4560   28.1620   12.8110 N.3   444  HIS444     -0.1241
     68  CA         4.2030   26.7920   13.2110 C.3   444  HIS444      0.1621
     69  C          5.2820   26.3300   14.1840 C.2   444  HIS444      0.2264
     70  O          5.0550   25.4340   14.9950 O.2   444  HIS444     -0.2867
     71  CB         4.1430   25.8830   11.9840 C.3   444  HIS444      0.0745
     72  CG         3.1060   26.2900   10.9830 C.ar  444  HIS444      0.0817
     73  ND1        3.4280   26.8420    9.7610 N.ar  444  HIS444     -0.2268
     74  CD2        1.7520   26.2350   11.0270 C.ar  444  HIS444      0.1154
     75  CE1        2.3160   27.1030    9.0930 C.ar  444  HIS444      0.1986
     76  NE2        1.2850   26.7430    9.8400 N.ar  444  HIS444     -0.2212
     77  N         -5.0550   28.5840   -0.1370 N.3   727  SER727     -0.1202
     78  CA        -4.0750   29.0600    0.8240 C.3   727  SER727      0.2020
     79  C         -2.6960   28.5980    0.3970 C.2   727  SER727      0.2619
     80  O         -2.5630   27.7730   -0.5050 O.2   727  SER727     -0.2717
     81  CB        -4.3830   28.5270    2.2140 C.3   727  SER727      0.2103
     82  OG        -3.3730   27.6300    2.6270 O.3   727  SER727     -0.2182
     83  N         -1.6710   29.1210    1.0580 N.am  728  GLY728     -0.1942
     84  CA        -0.2970   28.8360    0.6900 C.3   728  GLY728      0.2014
     85  C          0.1310   27.4160    0.9900 C.2   728  GLY728      0.2639
     86  O          0.8010   26.7920    0.1810 O.2   728  GLY728     -0.2714
     87  N         -0.2490   26.9080    2.1570 N.am  729  GLY729     -0.1954
     88  CA         0.1300   25.5680    2.5710 C.3   729  GLY729      0.1869
     89  C         -0.6750   24.5220    1.8270 C.2   729  GLY729      0.2309
     90  O         -0.2830   23.3640    1.7380 O.2   729  GLY729     -0.2863
     91  N          4.7520   26.4470    5.6070 N.3   758  GLY758     -0.1225
     92  CA         3.3160   26.6350    5.6480 C.3   758  GLY758      0.1811
     93  C          2.6060   25.4380    6.2300 C.2   758  GLY758      0.2280
     94  O          1.3860   25.3530    6.1730 O.2   758  GLY758     -0.2866
@<TRIPOS>BOND
     1    80    79    2
     2    77    78    1
     3    86    85    2
     4    79    78    1
     5    79    83   am
     6    84    85    1
     7    84    83    1
     8    78    81    1
     9    85    87   am
    10    10     9   ar
    11    10     8   ar
    12    90    89    2
    13    89    88    1
    14     9     7   ar
    15     8     6   ar
    16    87    88    1
    17    81    82    1
    18     7     6   ar
    19     6     5    1
    20     5     2    1
    21     2     1    1
    22     2     3    1
    23     3     4    2
    24    51    50    1
    25    16    15    1
    26    59    57   ar
    27    91    92    1
    28    92    93    1
    29    18    17    1
    30    18    19    1
    31    50    47    1
    32    57    56    1
    33    57    58   ar
    34    94    93    2
    35    56    53    1
    36    44    45    1
    37    44    41    1
    38    47    46    1
    39    47    48    1
    40    20    19    2
    41    17    13   am
    42    15    12    1
    43    14    13    2
    44    43    42    2
    45    13    12    1
    46    19    21   am
    47    55    54    2
    48    46    42   am
    49    42    41    1
    50    49    48    2
    51    12    11    1
    52    41    40    1
    53    53    54    1
    54    53    52    1
    55    28    27    1
    56    28    29    1
    57    21    22    1
    58    27    23   am
    59    40    33   am
    60    29    30    2
    61    29    31   am
    62    23    22    1
    63    23    24    2
    64    75    73   ar
    65    75    76   ar
    66    22    25    1
    67    31    32    1
    68    33    34    2
    69    33    32    1
    70    39    38    1
    71    73    72   ar
    72    65    64    1
    73    76    74   ar
    74    64    66    1
    75    64    61    1
    76    32    35    1
    77    25    26    1
    78    63    62    2
    79    38    37    1
    80    72    74   ar
    81    72    71    1
    82    37    36    1
    83    36    35    1
    84    62    61    1
    85    61    60    1
    86    71    68    1
    87    67    68    1
    88    68    69    1
    89    69    70    2
