@<TRIPOS>MOLECULE
tmp/3pijB00.pdb
 140 137 0 0 0
SMALL
GASTEIGER

@<TRIPOS>ATOM
      1  N         26.5310   39.1210   27.2690 N.3    53  ASN53      -0.1225
      2  CA        27.1120   40.2490   27.9500 C.3    53  ASN53       0.1785
      3  C         26.5780   41.5880   27.4430 C.2    53  ASN53       0.2597
      4  O         25.3410   41.8290   27.5470 O.2    53  ASN53      -0.2718
      5  CB        28.6630   40.1970   28.1830 C.3    53  ASN53       0.1169
      6  CG        29.4830   39.8750   26.9440 C.2    53  ASN53       0.2627
      7  OD1       29.3980   38.7910   26.3620 O.2    53  ASN53      -0.2716
      8  ND2       30.3410   40.8200   26.5740 N.am   53  ASN53      -0.0877
      9  N         27.4450   42.4570   26.9810 N.am   54  ASP54      -0.1974
     10  CA        27.0720   43.8980   26.8140 C.3    54  ASP54       0.1709
     11  C         25.8160   44.0810   25.9890 C.2    54  ASP54       0.2293
     12  O         25.6260   43.4170   24.9610 O.2    54  ASP54      -0.2864
     13  CB        28.1390   44.6660   26.0430 C.3    54  ASP54       0.1436
     14  CG        29.5550   44.3270   26.4620 C.2    54  ASP54       0.3671
     15  OD1       29.7830   43.5350   27.4210 O.co2  54  ASP54      -0.2456
     16  OD2       30.4420   44.9180   25.8050 O.co2  54  ASP54      -0.2456
     17  N         25.6680   41.0360   23.2110 N.3    70  GLN70      -0.1245
     18  CA        26.7570   40.0980   22.9830 C.3    70  GLN70       0.1566
     19  C         26.2410   38.7780   23.4760 C.2    70  GLN70       0.2260
     20  O         25.6260   38.7000   24.5390 O.2    70  GLN70      -0.2867
     21  CB        27.9570   40.5330   23.8190 C.3    70  GLN70       0.0367
     22  CG        28.6270   41.8210   23.2480 C.3    70  GLN70       0.0905
     23  CD        29.4460   41.4690   22.0380 C.2    70  GLN70       0.2608
     24  OE1       30.5280   40.9220   22.1790 O.2    70  GLN70      -0.2717
     25  NE2       28.9020   41.6670   20.8590 N.am   70  GLN70      -0.0878
     26  N         31.7120   32.9540   28.3090 N.3    78  TRP78      -0.1241
     27  CA        31.9790   33.8180   27.1810 C.3    78  TRP78       0.1605
     28  C         32.6780   32.9290   26.0820 C.2    78  TRP78       0.2264
     29  O         33.4240   32.0310   26.4170 O.2    78  TRP78      -0.2867
     30  CB        32.9040   34.9310   27.6480 C.3    78  TRP78       0.0550
     31  CG        33.1700   35.9150   26.5930 C.ar   78  TRP78       0.0003
     32  CD1       32.4510   37.0480   26.3330 C.ar   78  TRP78       0.0946
     33  CD2       34.2460   35.8790   25.6530 C.ar   78  TRP78       0.0152
     34  NE1       33.0220   37.7330   25.2800 N.ar   78  TRP78      -0.2442
     35  CE2       34.1250   37.0380   24.8420 C.ar   78  TRP78       0.0810
     36  CE3       35.3110   34.9860   25.4230 C.ar   78  TRP78       0.0012
     37  CZ2       35.0270   37.3250   23.7940 C.ar   78  TRP78       0.0191
     38  CZ3       36.2080   35.2480   24.3810 C.ar   78  TRP78       0.0001
     39  CH2       36.0500   36.4300   23.5640 C.ar   78  TRP78       0.0015
     40  N         31.7730   35.4360   19.8470 N.3    81  MET81      -0.1245
     41  CA        30.7270   36.4700   20.0310 C.3    81  MET81       0.1570
     42  C         29.8130   36.6770   18.8060 C.2    81  MET81       0.2261
     43  O         30.2970   36.8340   17.6580 O.2    81  MET81      -0.2867
     44  CB        31.3620   37.7900   20.4330 C.3    81  MET81       0.0387
     45  CG        31.7980   37.8640   21.8800 C.3    81  MET81       0.0595
     46  SD        30.3300   38.0270   22.9780 S.3    81  MET81      -0.1393
     47  CE        30.1630   36.3550   23.5510 C.3    81  MET81       0.0692
     48  N         32.0910   41.8270   18.1700 N.3   113  PHE113     -0.1227
     49  CA        32.1770   42.4630   19.4490 C.3   113  PHE113      0.1736
     50  C         31.1410   43.6170   19.5560 C.2   113  PHE113      0.2596
     51  O         30.2490   43.7410   18.7120 O.2   113  PHE113     -0.2718
     52  CB        33.6100   42.9290   19.6640 C.3   113  PHE113      0.0547
     53  CG        34.4600   41.9290   20.3520 C.ar  113  PHE113     -0.0202
     54  CD1       34.1770   40.5660   20.2380 C.ar  113  PHE113     -0.0042
     55  CD2       35.5680   42.3470   21.1120 C.ar  113  PHE113     -0.0042
     56  CE1       34.9700   39.6110   20.8700 C.ar  113  PHE113     -0.0003
     57  CE2       36.3680   41.3870   21.7690 C.ar  113  PHE113     -0.0003
     58  CZ        36.0560   40.0300   21.6260 C.ar  113  PHE113     -0.0000
     59  N         31.2560   44.4240   20.5900 N.am  114  SER114     -0.1952
     60  CA        30.1570   45.3530   20.9130 C.3   114  SER114      0.1924
     61  C         30.0520   46.4590   19.8520 C.2   114  SER114      0.2314
     62  O         31.0410   46.7520   19.1050 O.2   114  SER114     -0.2863
     63  CB        30.3270   45.9020   22.3390 C.3   114  SER114      0.2116
     64  OG        29.9510   44.8610   23.2470 O.3   114  SER114     -0.2180
     65  N         38.3530   49.1930   20.5850 N.3   180  ARG180     -0.1231
     66  CA        36.9930   48.6830   20.3740 C.3   180  ARG180      0.1694
     67  C         35.8920   49.5230   21.0310 C.2   180  ARG180      0.2592
     68  O         36.1870   50.3570   21.8670 O.2   180  ARG180     -0.2718
     69  CB        36.9060   47.2530   20.9570 C.3   180  ARG180      0.0321
     70  CG        37.2940   47.1390   22.4280 C.3   180  ARG180      0.0489
     71  CD        37.0500   45.7130   23.0350 C.3   180  ARG180      0.2205
     72  NE        37.4940   45.6540   24.4630 N.pl3 180  ARG180     -0.0865
     73  CZ        38.7840   45.5100   24.8330 C.cat 180  ARG180      0.5346
     74  NH1       39.7400   45.3660   23.9100 N.pl3 180  ARG180      0.1354
     75  NH2       39.1260   45.4710   26.1230 N.pl3 180  ARG180      0.1354
     76  N         34.6600   49.2060   20.6070 N.am  181  ASP181     -0.1974
     77  CA        33.3510   49.5640   21.1810 C.3   181  ASP181      0.1709
     78  C         32.9120   50.9480   20.6770 C.2   181  ASP181      0.2293
     79  O         33.0240   51.9060   21.4090 O.2   181  ASP181     -0.2864
     80  CB        33.3080   49.4450   22.6960 C.3   181  ASP181      0.1436
     81  CG        33.7380   48.0580   23.1890 C.2   181  ASP181      0.3671
     82  OD1       33.6650   47.0970   22.3850 O.co2 181  ASP181     -0.2456
     83  OD2       34.2090   47.9590   24.3580 O.co2 181  ASP181     -0.2456
     84  N         36.5990   50.4290   28.0630 N.3   235  GLU235     -0.1231
     85  CA        35.5970   49.6820   27.2770 C.3   235  GLU235      0.1699
     86  C         34.2640   50.3850   27.2060 C.2   235  GLU235      0.2592
     87  O         33.9860   51.2250   28.0560 O.2   235  GLU235     -0.2718
     88  CB        35.3590   48.2870   27.9210 C.3   235  GLU235      0.0402
     89  CG        36.6360   47.4730   27.9470 C.3   235  GLU235      0.1161
     90  CD        36.3870   46.0430   28.4240 C.2   235  GLU235      0.3649
     91  OE1       35.8570   45.8360   29.5470 O.co2 235  GLU235     -0.2457
     92  OE2       36.7880   45.1250   27.6930 O.co2 235  GLU235     -0.2457
     93  N         33.4780   50.0860   26.1590 N.am  236  CYS236     -0.1970
     94  CA        32.1260   50.5980   25.9860 C.3   236  CYS236      0.1712
     95  C         31.9660   52.1270   26.3010 C.2   236  CYS236      0.2296
     96  O         31.1160   52.5200   27.1090 O.2   236  CYS236     -0.2864
     97  CB        31.1530   49.7640   26.8310 C.3   236  CYS236      0.0983
     98  SG        31.2420   48.0140   26.3570 S.3   236  CYS236     -0.0798
     99  N         27.9480   46.1350   34.3630 N.3   302  TYR302     -0.1227
    100  CA        29.0800   46.5330   33.5030 C.3   302  TYR302      0.1736
    101  C         28.5850   46.8950   32.1160 C.2   302  TYR302      0.2595
    102  O         27.4530   46.5600   31.7170 O.2   302  TYR302     -0.2718
    103  CB        30.0550   45.3920   33.3360 C.3   302  TYR302      0.0548
    104  CG        31.4540   45.8290   32.8970 C.ar  302  TYR302     -0.0200
    105  CD1       32.2060   46.7110   33.6600 C.ar  302  TYR302     -0.0009
    106  CD2       32.0150   45.3450   31.7080 C.ar  302  TYR302     -0.0009
    107  CE1       33.4740   47.0860   33.2850 C.ar  302  TYR302      0.0417
    108  CE2       33.2810   45.6780   31.3510 C.ar  302  TYR302      0.0417
    109  CZ        34.0070   46.5570   32.1410 C.ar  302  TYR302      0.1957
    110  OH        35.2640   46.9410   31.7530 O.3   302  TYR302     -0.2866
    111  N         29.4600   47.5670   31.3640 N.am  303  ALA303     -0.1980
    112  CA        29.2410   47.7660   29.9370 C.3   303  ALA303      0.1597
    113  C         27.9210   48.4600   29.5400 C.2   303  ALA303      0.2287
    114  O         27.2330   47.9900   28.6150 O.2   303  ALA303     -0.2864
    115  CB        29.4160   46.3630   29.1950 C.3   303  ALA303      0.0319
    116  N         24.7240   45.5460   31.4760 N.3   318  TRP318     -0.1241
    117  CA        24.7840   44.1090   31.6390 C.3   318  TRP318      0.1605
    118  C         25.0630   43.8160   33.0830 C.2   318  TRP318      0.2264
    119  O         26.0110   44.3780   33.6960 O.2   318  TRP318     -0.2867
    120  CB        25.8720   43.5500   30.7000 C.3   318  TRP318      0.0550
    121  CG        26.4000   42.1730   31.0480 C.ar  318  TRP318      0.0003
    122  CD1       25.6970   41.0460   31.3520 C.ar  318  TRP318      0.0946
    123  CD2       27.7710   41.8230   31.1010 C.ar  318  TRP318      0.0152
    124  NE1       26.5840   39.9640   31.5770 N.ar  318  TRP318     -0.2442
    125  CE2       27.8570   40.4370   31.4250 C.ar  318  TRP318      0.0810
    126  CE3       28.9360   42.5320   30.8640 C.ar  318  TRP318      0.0012
    127  CZ2       29.0860   39.7710   31.5590 C.ar  318  TRP318      0.0191
    128  CZ3       30.1720   41.8690   30.9760 C.ar  318  TRP318      0.0001
    129  CH2       30.2290   40.5030   31.3350 C.ar  318  TRP318      0.0015
    130  N         31.4350   38.5440   37.3340 N.3   322  PHE322     -0.1241
    131  CA        32.8970   38.3970   37.1990 C.3   322  PHE322      0.1605
    132  C         33.5360   37.4950   38.2470 C.2   322  PHE322      0.2264
    133  O         34.7550   37.1550   38.1440 O.2   322  PHE322     -0.2867
    134  CB        33.5790   39.7560   37.2580 C.3   322  PHE322      0.0534
    135  CG        33.2730   40.6690   36.0890 C.ar  322  PHE322     -0.0203
    136  CD1       33.3460   40.2060   34.7610 C.ar  322  PHE322     -0.0042
    137  CD2       33.0010   42.0090   36.3120 C.ar  322  PHE322     -0.0042
    138  CE1       33.0980   41.1090   33.6650 C.ar  322  PHE322     -0.0003
    139  CE2       32.7580   42.9310   35.2140 C.ar  322  PHE322     -0.0003
    140  CZ        32.8150   42.4600   33.9100 C.ar  322  PHE322     -0.0000
@<TRIPOS>BOND
     1    43    42    2
     2    48    49    1
     3    51    50    2
     4    42    41    1
     5    62    61    2
     6    49    50    1
     7    49    52    1
     8    50    59   am
     9    52    53    1
    10    40    41    1
    11    61    60    1
    12    41    44    1
    13    54    53   ar
    14    54    56   ar
    15    53    55   ar
    16    66    65    1
    17    66    69    1
    18    66    67    1
    19    44    45    1
    20    59    60    1
    21    76    67   am
    22    76    77    1
    23    78    77    1
    24    78    79    2
    25    25    23   am
    26    56    58   ar
    27    60    63    1
    28    69    70    1
    29    67    68    2
    30    55    57   ar
    31    77    80    1
    32    58    57   ar
    33    45    46    1
    34    23    24    2
    35    23    22    1
    36    63    64    1
    37    82    81   ar
    38    70    71    1
    39    80    81    1
    40    46    47    1
    41    18    17    1
    42    18    19    1
    43    18    21    1
    44    71    72    1
    45    81    83   ar
    46    22    21    1
    47    19    20    2
    48    39    37   ar
    49    39    38   ar
    50    37    35   ar
    51    74    73    1
    52    38    36   ar
    53    72    73    2
    54    73    75    1
    55    35    34   ar
    56    35    33   ar
    57    12    11    2
    58    34    32   ar
    59    36    33   ar
    60    33    31   ar
    61    16    14   ar
    62    94    93    1
    63    94    95    1
    64    94    97    1
    65    11    10    1
    66    13    14    1
    67    13    10    1
    68    28    29    2
    69    28    27    1
    70    93    86   am
    71    95    96    2
    72    32    31   ar
    73    98    97    1
    74     7     6    2
    75    14    15   ar
    76     8     6   am
    77    31    30    1
    78    10     9    1
    79     6     5    1
    80     9     3   am
    81    27    30    1
    82    27    26    1
    83    86    85    1
    84    86    87    2
    85     1     2    1
    86    85    88    1
    87    85    84    1
    88     3     4    2
    89     3     2    1
    90    92    90   ar
    91    88    89    1
    92    89    90    1
    93     2     5    1
    94    90    91   ar
    95   114   113    2
    96   115   112    1
    97   113   112    1
    98   112   111    1
    99   120   121    1
   100   120   117    1
   101   126   128   ar
   102   126   123   ar
   103   128   129   ar
   104   121   123   ar
   105   121   122   ar
   106   123   125   ar
   107   129   127   ar
   108   108   106   ar
   109   108   109   ar
   110   122   124   ar
   111   111   101   am
   112   125   127   ar
   113   125   124   ar
   114   116   117    1
   115   117   118    1
   116   106   104   ar
   117   102   101    2
   118   110   109    1
   119   101   100    1
   120   109   107   ar
   121   104   103    1
   122   104   105   ar
   123   118   119    2
   124   107   105   ar
   125   103   100    1
   126   100    99    1
   127   138   140   ar
   128   138   136   ar
   129   140   139   ar
   130   136   135   ar
   131   139   137   ar
   132   135   137   ar
   133   135   134    1
   134   131   134    1
   135   131   130    1
   136   131   132    1
   137   133   132    2
