@<TRIPOS>MOLECULE
tmp/3pixA00.pdb
 159 148 0 0 0
SMALL
GASTEIGER

@<TRIPOS>ATOM
      1  N         19.7160   -4.8900   -4.3110 N.3    16  LYS16      -0.1245
      2  CA        20.7990   -3.9500   -4.5980 C.3    16  LYS16       0.1561
      3  C         21.1480   -3.1100   -3.3720 C.2    16  LYS16       0.2260
      4  O         20.2570   -2.6460   -2.6580 O.2    16  LYS16      -0.2867
      5  CB        20.3650   -3.0400   -5.7510 C.3    16  LYS16       0.0271
      6  CG        21.3630   -1.9830   -6.1780 C.3    16  LYS16       0.0035
      7  CD        20.7230   -1.0230   -7.1730 C.3    16  LYS16       0.0206
      8  CE        19.6500   -0.1600   -6.5150 C.3    16  LYS16       0.1093
      9  NZ        18.9940    0.7440   -7.4960 N.3    16  LYS16      -0.1314
     10  N         22.0810    0.2070   -1.6280 N.3    18  LEU18      -0.1231
     11  CA        21.8640    1.6350   -1.8700 C.3    18  LEU18       0.1693
     12  C         22.9280    2.4990   -1.1970 C.2    18  LEU18       0.2592
     13  O         23.3760    3.5010   -1.7630 O.2    18  LEU18      -0.2718
     14  CB        20.4710    2.0670   -1.3920 C.3    18  LEU18       0.0284
     15  CG        19.2320    1.4540   -2.0520 C.3    18  LEU18       0.0019
     16  CD1       18.0030    1.7070   -1.1980 C.3    18  LEU18       0.0001
     17  CD2       19.0190    1.9780   -3.4670 C.3    18  LEU18       0.0001
     18  N         23.3300    2.1100    0.0090 N.am   19  GLY19      -0.1957
     19  CA        24.3130    2.8730    0.7670 C.3    19  GLY19       0.1869
     20  C         24.8090    2.1590    2.0050 C.2    19  GLY19       0.2309
     21  O         24.2630    1.1290    2.4080 O.2    19  GLY19      -0.2863
     22  N         22.2180    0.0370    3.8980 N.3    26  VAL26      -0.1245
     23  CA        20.8620    0.1520    3.3720 C.3    26  VAL26       0.1561
     24  C         20.7980   -0.5700    2.0350 C.2    26  VAL26       0.2260
     25  O         21.6130   -0.3160    1.1430 O.2    26  VAL26      -0.2867
     26  CB        20.4310    1.6210    3.1500 C.3    26  VAL26       0.0252
     27  CG1       18.9040    1.7130    2.9940 C.3    26  VAL26       0.0019
     28  CG2       20.9060    2.5120    4.2840 C.3    26  VAL26       0.0019
     29  N         13.1140   -0.0400    1.1270 N.3    38  ALA38      -0.1245
     30  CA        14.4710    0.2010    1.5730 C.3    38  ALA38       0.1562
     31  C         14.6200   -0.5710    2.8730 C.2    38  ALA38       0.2260
     32  O         13.8080   -0.4180    3.7860 O.2    38  ALA38      -0.2867
     33  CB        14.6940    1.6700    1.8010 C.3    38  ALA38       0.0290
     34  N          7.9470    9.9090    4.3470 N.3    68  VAL68      -0.1245
     35  CA         8.4920    8.5840    4.0320 C.3    68  VAL68       0.1561
     36  C          8.0430    7.5740    5.1030 C.2    68  VAL68       0.2260
     37  O          8.3690    7.7150    6.2890 O.2    68  VAL68      -0.2867
     38  CB        10.0330    8.6310    3.8700 C.3    68  VAL68       0.0252
     39  CG1       10.6180    7.2260    3.7170 C.3    68  VAL68       0.0019
     40  CG2       10.4060    9.4930    2.6660 C.3    68  VAL68       0.0019
     41  N         11.4110    0.4620    5.3060 N.3    84  THR84      -0.1203
     42  CA        10.7150    1.6940    4.9330 C.3    84  THR84       0.1994
     43  C         10.2940    1.6770    3.4670 C.2    84  THR84       0.2618
     44  O         10.7720    0.8520    2.6780 O.2    84  THR84      -0.2717
     45  CB        11.5950    2.9500    5.1640 C.3    84  THR84       0.1784
     46  OG1       12.5220    3.0880    4.0840 O.3    84  THR84      -0.2211
     47  CG2       12.3580    2.8730    6.4780 C.3    84  THR84       0.0376
     48  N          9.4190    2.6120    3.1030 N.am   85  GLU85      -0.1965
     49  CA         9.0050    2.7850    1.7200 C.3    85  GLU85       0.1733
     50  C         10.2080    3.1690    0.8720 C.2    85  GLU85       0.2616
     51  O         11.1060    3.8890    1.3270 O.2    85  GLU85      -0.2715
     52  CB         7.8610    3.8130    1.6140 C.3    85  GLU85       0.0429
     53  CG         8.1320    5.0820    0.8230 C.3    85  GLU85       0.1163
     54  CD         6.9350    6.0310    0.8130 C.2    85  GLU85       0.3649
     55  OE1        6.3850    6.2820   -0.2760 O.co2  85  GLU85      -0.2457
     56  OE2        6.5480    6.5380    1.8880 O.co2  85  GLU85      -0.2457
     57  N         10.2340    2.6650   -0.3540 N.am   86  TYR86      -0.1960
     58  CA        11.3580    2.9070   -1.2430 C.3    86  TYR86       0.1771
     59  C         11.1710    4.1840   -2.0640 C.2    86  TYR86       0.2619
     60  O         10.0960    4.4330   -2.6150 O.2    86  TYR86      -0.2715
     61  CB        11.5900    1.6990   -2.1500 C.3    86  TYR86       0.0574
     62  CG        12.7450    1.8670   -3.1030 C.ar   86  TYR86      -0.0198
     63  CD1       14.0400    2.0480   -2.6310 C.ar   86  TYR86      -0.0009
     64  CD2       12.5440    1.8370   -4.4780 C.ar   86  TYR86      -0.0009
     65  CE1       15.1020    2.2030   -3.5050 C.ar   86  TYR86       0.0417
     66  CE2       13.6040    1.9860   -5.3600 C.ar   86  TYR86       0.0417
     67  CZ        14.8720    2.1700   -4.8660 C.ar   86  TYR86       0.1957
     68  OH        15.9220    2.3220   -5.7360 O.3    86  TYR86      -0.2866
     69  N         12.2320    4.9850   -2.1170 N.am   87  MET87      -0.1963
     70  CA        12.2660    6.2430   -2.8610 C.3    87  MET87       0.1736
     71  C         13.3500    6.1460   -3.9270 C.2    87  MET87       0.2616
     72  O         14.5400    6.2970   -3.6340 O.2    87  MET87      -0.2715
     73  CB        12.5380    7.4210   -1.9140 C.3    87  MET87       0.0427
     74  CG        11.5780    7.5050   -0.7220 C.3    87  MET87       0.0599
     75  SD         9.8830    7.9050   -1.1910 S.3    87  MET87      -0.1393
     76  CE        10.0160    9.6550   -1.5340 C.3    87  MET87       0.0692
     77  N         12.9260    5.8860   -5.1610 N.am   88  ALA88      -0.1963
     78  CA        13.8390    5.4880   -6.2430 C.3    88  ALA88       0.1728
     79  C         14.8470    6.5530   -6.6790 C.2    88  ALA88       0.2616
     80  O         15.8990    6.2170   -7.2210 O.2    88  ALA88      -0.2715
     81  CB        13.0520    4.9780   -7.4470 C.3    88  ALA88       0.0334
     82  N         14.5370    7.8260   -6.4480 N.am   89  ASN89      -0.1958
     83  CA        15.4540    8.9000   -6.8500 C.3    89  ASN89       0.1819
     84  C         16.3480    9.4040   -5.7200 C.2    89  ASN89       0.2622
     85  O         17.1460   10.3330   -5.8970 O.2    89  ASN89      -0.2715
     86  CB        14.6900   10.0300   -7.5460 C.3    89  ASN89       0.1195
     87  CG        14.4310    9.7300   -9.0160 C.2    89  ASN89       0.2630
     88  OD1       15.3630    9.4890   -9.7680 O.2    89  ASN89      -0.2716
     89  ND2       13.1640    9.7310   -9.4220 N.am   89  ASN89      -0.0877
     90  N         16.2090    8.7680   -4.5630 N.am   90  GLY90      -0.1940
     91  CA        17.0660    9.0140   -3.4140 C.3    90  GLY90       0.2014
     92  C         16.9130   10.3810   -2.7890 C.2    90  GLY90       0.2639
     93  O         15.8260   10.9520   -2.7520 O.2    90  GLY90      -0.2714
     94  N         18.0370   10.9020   -2.3190 N.am   91  CYS91      -0.1967
     95  CA        18.0930   12.1460   -1.5700 C.3    91  CYS91       0.1712
     96  C         17.7710   13.3550   -2.4620 C.2    91  CYS91       0.2296
     97  O         18.2840   13.4620   -3.5790 O.2    91  CYS91      -0.2864
     98  CB        19.4860   12.2400   -0.9470 C.3    91  CYS91       0.0983
     99  SG        19.9980   13.8260   -0.3960 S.3    91  CYS91      -0.0798
    100  N         20.8890   15.5520   -3.7690 N.3    94  ASN94      -0.1240
    101  CA        21.5670   14.9880   -4.9400 C.3    94  ASN94       0.1653
    102  C         20.7110   15.0760   -6.2060 C.2    94  ASN94       0.2266
    103  O         21.2170   15.3300   -7.3030 O.2    94  ASN94      -0.2867
    104  CB        21.9700   13.5400   -4.6660 C.3    94  ASN94       0.1155
    105  CG        22.9250   13.4100   -3.4880 C.2    94  ASN94       0.2627
    106  OD1       22.9690   12.3760   -2.8280 O.2    94  ASN94      -0.2716
    107  ND2       23.6870   14.4660   -3.2160 N.am   94  ASN94      -0.0877
    108  N         21.6410   17.1520   -9.9390 N.3    98  GLU98      -0.1245
    109  CA        21.7560   16.4930  -11.2380 C.3    98  GLU98       0.1567
    110  C         21.2120   17.4270  -12.3230 C.2    98  GLU98       0.2260
    111  O         19.9950   17.6120  -12.4570 O.2    98  GLU98      -0.2867
    112  CB        21.0400   15.1370  -11.2440 C.3    98  GLU98       0.0388
    113  CG        21.0070   14.4350  -12.6030 C.3    98  GLU98       0.1160
    114  CD        22.3930   14.2020  -13.1800 C.2    98  GLU98       0.3649
    115  OE1       22.8330   15.0160  -14.0230 O.co2  98  GLU98      -0.2457
    116  OE2       23.0440   13.2140  -12.7780 O.co2  98  GLU98      -0.2457
    117  N         13.5210   12.8140    0.5490 N.3   138  LEU138     -0.1245
    118  CA        13.7730   11.8010   -0.4680 C.3   138  LEU138      0.1561
    119  C         12.8100   11.9800   -1.6360 C.2   138  LEU138      0.2260
    120  O         11.7630   12.6050   -1.4860 O.2   138  LEU138     -0.2867
    121  CB        13.6220   10.4020    0.1300 C.3   138  LEU138      0.0270
    122  CG        14.5140   10.0580    1.3250 C.3   138  LEU138      0.0019
    123  CD1       14.1380    8.6930    1.8850 C.3   138  LEU138      0.0001
    124  CD2       15.9780   10.0950    0.9320 C.3   138  LEU138      0.0001
    125  N         11.7500   12.8680    5.2820 N.3   148  SER148     -0.1217
    126  CA        12.2040   11.7120    6.0430 C.3   148  SER148      0.1889
    127  C         13.0500   12.2250    7.2190 C.2   148  SER148      0.2288
    128  O         12.8400   13.3500    7.6810 O.2   148  SER148     -0.2866
    129  CB        12.9890   10.7480    5.1420 C.3   148  SER148      0.2089
    130  OG        13.1780    9.4890    5.7700 O.3   148  SER148     -0.2183
    131  N         13.8450    6.6280   10.9370 N.3   153  SER153     -0.1217
    132  CA        14.4190    6.9840    9.6430 C.3   153  SER153      0.1889
    133  C         15.6800    7.8480    9.7610 C.2   153  SER153      0.2288
    134  O         16.4450    7.9600    8.8030 O.2   153  SER153     -0.2866
    135  CB        13.3770    7.6340    8.7270 C.3   153  SER153      0.2089
    136  OG        12.9260    8.8640    9.2480 O.3   153  SER153     -0.2183
    137  N         18.1400    5.1630    9.5200 N.3   156  VAL156     -0.1231
    138  CA        18.1500    4.6730    8.1430 C.3   156  VAL156      0.1692
    139  C         19.0070    5.5720    7.2400 C.2   156  VAL156      0.2592
    140  O         19.7660    5.0740    6.4080 O.2   156  VAL156     -0.2718
    141  CB        16.7200    4.5450    7.5630 C.3   156  VAL156      0.0266
    142  CG1       16.7640    3.9940    6.1440 C.3   156  VAL156      0.0020
    143  CG2       15.8750    3.6400    8.4410 C.3   156  VAL156      0.0020
    144  N         18.8990    6.8860    7.4330 N.am  157  LEU157     -0.1966
    145  CA        19.5740    7.8620    6.5730 C.3   157  LEU157      0.1728
    146  C         20.9790    8.2140    7.0450 C.2   157  LEU157      0.2616
    147  O         21.6580    9.0310    6.4150 O.2   157  LEU157     -0.2715
    148  CB        18.7340    9.1410    6.4330 C.3   157  LEU157      0.0311
    149  CG        17.3790    9.0450    5.7210 C.3   157  LEU157      0.0022
    150  CD1       16.8510   10.4400    5.4150 C.3   157  LEU157      0.0001
    151  CD2       17.4730    8.2150    4.4410 C.3   157  LEU157      0.0001
    152  N         21.4060    7.5910    8.1450 N.am  158  ASP158     -0.1971
    153  CA        22.7000    7.8700    8.7730 C.3   158  ASP158      0.1709
    154  C         22.8520    9.3620    9.0740 C.2   158  ASP158      0.2293
    155  O         23.8840    9.9680    8.7760 O.2   158  ASP158     -0.2864
    156  CB        23.8540    7.3450    7.9090 C.3   158  ASP158      0.1436
    157  CG        23.8040    5.8390    7.7230 C.2   158  ASP158      0.3671
    158  OD1       23.9970    5.1060    8.7170 O.co2 158  ASP158     -0.2456
    159  OD2       23.5820    5.3850    6.5780 O.co2 158  ASP158     -0.2456
@<TRIPOS>BOND
     1   115   114   ar
     2   114   116   ar
     3   114   113    1
     4   113   112    1
     5   111   110    2
     6   110   109    1
     7   112   109    1
     8   109   108    1
     9    88    87    2
    10    89    87   am
    11    87    86    1
    12    86    83    1
    13     9     8    1
    14    81    78    1
    15   103   102    2
    16    80    79    2
    17     7     8    1
    18     7     6    1
    19    83    82    1
    20    83    84    1
    21    79    82   am
    22    79    78    1
    23    78    77    1
    24   102   101    1
    25     6     5    1
    26    85    84    2
    27     5     2    1
    28    68    67    1
    29    84    90   am
    30    66    67   ar
    31    66    64   ar
    32    77    71   am
    33   101   104    1
    34   101   100    1
    35    67    65   ar
    36   104   105    1
    37     2     1    1
    38     2     3    1
    39    90    91    1
    40    64    62   ar
    41    71    72    2
    42    71    70    1
    43    97    96    2
    44    65    63   ar
    45   105   107   am
    46   105   106    2
    47    17    15    1
    48    91    92    1
    49     3     4    2
    50    62    63   ar
    51    62    61    1
    52    70    69    1
    53    70    73    1
    54    92    93    2
    55    92    94   am
    56    60    59    2
    57    96    95    1
    58    94    95    1
    59    61    58    1
    60    69    59   am
    61    59    58    1
    62    15    14    1
    63    15    16    1
    64    73    74    1
    65    11    10    1
    66    11    14    1
    67    11    12    1
    68    13    12    2
    69   119   120    2
    70   119   118    1
    71    95    98    1
    72    76    75    1
    73    58    57    1
    74    12    18   am
    75    75    74    1
    76    98    99    1
    77   118   121    1
    78   118   117    1
    79    57    50   am
    80    55    54   ar
    81    18    19    1
    82   121   122    1
    83    19    20    1
    84    54    53    1
    85    54    56   ar
    86    53    52    1
    87    50    51    2
    88    50    49    1
    89   124   122    1
    90    29    30    1
    91    25    24    2
    92   122   123    1
    93    30    33    1
    94    30    31    1
    95    52    49    1
    96    49    48    1
    97    20    21    2
    98    24    23    1
    99    40    38    1
   100    44    43    2
   101    31    32    2
   102    27    26    1
   103    48    43   am
   104    26    23    1
   105    26    28    1
   106    23    22    1
   107    43    42    1
   108    39    38    1
   109    38    35    1
   110    35    34    1
   111    35    36    1
   112    46    45    1
   113   151   149    1
   114    42    45    1
   115    42    41    1
   116    36    37    2
   117   129   130    1
   118   129   126    1
   119    45    47    1
   120   125   126    1
   121   150   149    1
   122   149   148    1
   123   126   127    1
   124   142   141    1
   125   140   139    2
   126   147   146    2
   127   148   145    1
   128   145   146    1
   129   145   144    1
   130   159   157   ar
   131   146   152   am
   132   127   128    2
   133   139   144   am
   134   139   138    1
   135   141   138    1
   136   141   143    1
   137   157   156    1
   138   157   158   ar
   139   156   153    1
   140   138   137    1
   141   152   153    1
   142   135   136    1
   143   135   132    1
   144   153   154    1
   145   155   154    2
   146   134   133    2
   147   132   133    1
   148   132   131    1
