@<TRIPOS>MOLECULE
tmp/3piyA00.pdb
 151 142 0 0 0
SMALL
GASTEIGER

@<TRIPOS>ATOM
      1  N        -12.0350    1.7090  -19.3000 N.3    18  LEU18      -0.1231
      2  CA       -12.4610    3.0920  -19.6050 C.3    18  LEU18       0.1693
      3  C        -11.6720    4.1610  -18.8290 C.2    18  LEU18       0.2593
      4  O        -11.5280    5.3020  -19.2820 O.2    18  LEU18      -0.2718
      5  CB       -13.9760    3.2770  -19.3990 C.3    18  LEU18       0.0284
      6  CG       -14.9350    2.3900  -20.2010 C.3    18  LEU18       0.0019
      7  CD1      -16.3750    2.5240  -19.6980 C.3    18  LEU18       0.0001
      8  CD2      -14.8430    2.6520  -21.7030 C.3    18  LEU18       0.0001
      9  N        -11.1670    3.7860  -17.6630 N.am   19  GLY19      -0.1942
     10  CA       -10.4430    4.7140  -16.8090 C.3    19  GLY19       0.2014
     11  C         -9.9430    4.0120  -15.5750 C.2    19  GLY19       0.2639
     12  O        -10.4370    2.9450  -15.2100 O.2    19  GLY19      -0.2714
     13  N         -8.9720    4.6240  -14.9160 N.am   20  THR20      -0.1950
     14  CA        -8.1800    3.9250  -13.9250 C.3    20  THR20       0.1897
     15  C         -7.5270    4.9590  -13.0350 C.2    20  THR20       0.2313
     16  O         -7.0440    5.9780  -13.5190 O.2    20  THR20      -0.2863
     17  CB        -7.1150    3.0100  -14.6200 C.3    20  THR20       0.1794
     18  OG1       -6.6370    2.0100  -13.7100 O.3    20  THR20      -0.2208
     19  CG2       -5.9500    3.8230  -15.2030 C.3    20  THR20       0.0378
     20  N        -12.6990    1.6570  -13.8890 N.3    26  VAL26      -0.1245
     21  CA       -13.9690    1.5110  -14.5870 C.3    26  VAL26       0.1561
     22  C        -13.7400    0.7860  -15.9070 C.2    26  VAL26       0.2260
     23  O        -12.9470    1.2270  -16.7340 O.2    26  VAL26      -0.2867
     24  CB       -14.6930    2.8750  -14.8180 C.3    26  VAL26       0.0252
     25  CG1      -16.1730    2.6510  -15.0990 C.3    26  VAL26       0.0019
     26  CG2      -14.5150    3.8100  -13.6220 C.3    26  VAL26       0.0019
     27  N        -21.2340   -0.0250  -17.4380 N.3    38  ALA38      -0.1245
     28  CA       -19.9510    0.3930  -16.9810 C.3    38  ALA38       0.1562
     29  C        -19.8540   -0.2700  -15.6360 C.2    38  ALA38       0.2260
     30  O        -20.8390   -0.3060  -14.8730 O.2    38  ALA38      -0.2867
     31  CB       -19.9040    1.8910  -16.8500 C.3    38  ALA38       0.0290
     32  N        -17.6360   -0.3990  -12.2420 N.3    40  LYS40      -0.1245
     33  CA       -16.7490    0.3910  -11.4300 C.3    40  LYS40       0.1561
     34  C        -16.2960   -0.4380  -10.2330 C.2    40  LYS40       0.2260
     35  O        -17.0890   -0.7140   -9.3310 O.2    40  LYS40      -0.2867
     36  CB       -17.4870    1.6410  -10.9660 C.3    40  LYS40       0.0271
     37  CG       -16.5950    2.8340  -10.6490 C.3    40  LYS40       0.0035
     38  CD       -17.2120    3.7520   -9.6050 C.3    40  LYS40       0.0206
     39  CE       -16.3390    4.9640   -9.4060 C.3    40  LYS40       0.1093
     40  NZ       -16.9270    5.7950   -8.3600 N.3    40  LYS40      -0.1314
     41  N        -27.4050    9.1370  -14.6000 N.3    62  VAL62      -0.1245
     42  CA       -26.7500    7.8630  -14.8840 C.3    62  VAL62       0.1561
     43  C        -27.2670    6.7920  -13.8950 C.2    62  VAL62       0.2260
     44  O        -27.0480    6.8890  -12.6750 O.2    62  VAL62      -0.2867
     45  CB       -25.1980    8.0010  -14.7900 C.3    62  VAL62       0.0252
     46  CG1      -24.4900    6.7440  -15.2810 C.3    62  VAL62       0.0019
     47  CG2      -24.7200    9.1930  -15.5630 C.3    62  VAL62       0.0019
     48  N        -23.3380    0.4630  -13.5670 N.3    78  THR78      -0.1203
     49  CA       -24.2510    1.5360  -13.9910 C.3    78  THR78       0.1994
     50  C        -24.5690    1.4300  -15.4850 C.2    78  THR78       0.2618
     51  O        -24.0440    0.5610  -16.1850 O.2    78  THR78      -0.2717
     52  CB       -23.6800    2.9460  -13.7450 C.3    78  THR78       0.1784
     53  OG1      -22.5950    3.1720  -14.6380 O.3    78  THR78      -0.2211
     54  CG2      -23.2060    3.1660  -12.3160 C.3    78  THR78       0.0376
     55  N        -25.4160    2.3310  -15.9890 N.am   79  GLU79      -0.1965
     56  CA       -25.7190    2.3050  -17.4090 C.3    79  GLU79       0.1733
     57  C        -24.5020    2.7960  -18.1500 C.2    79  GLU79       0.2616
     58  O        -23.6770    3.5060  -17.5770 O.2    79  GLU79      -0.2715
     59  CB       -26.9840    3.0890  -17.7430 C.3    79  GLU79       0.0429
     60  CG       -26.8260    4.5290  -18.0520 C.3    79  GLU79       0.1163
     61  CD       -28.1700    5.2140  -18.1340 C.2    79  GLU79       0.3649
     62  OE1      -28.6900    5.3950  -19.2520 O.co2  79  GLU79      -0.2457
     63  OE2      -28.7230    5.5410  -17.0660 O.co2  79  GLU79      -0.2457
     64  N        -24.3820    2.3900  -19.4080 N.am   80  TYR80      -0.1960
     65  CA       -23.2140    2.7180  -20.2040 C.3    80  TYR80       0.1771
     66  C        -23.5040    3.8950  -21.0910 C.2    80  TYR80       0.2619
     67  O        -24.5410    3.9250  -21.7570 O.2    80  TYR80      -0.2715
     68  CB       -22.7860    1.5400  -21.0650 C.3    80  TYR80       0.0574
     69  CG       -21.5480    1.8290  -21.8990 C.ar   80  TYR80      -0.0198
     70  CD1      -20.3060    2.0980  -21.3020 C.ar   80  TYR80      -0.0009
     71  CD2      -21.6260    1.8480  -23.2690 C.ar   80  TYR80      -0.0009
     72  CE1      -19.1850    2.3660  -22.0810 C.ar   80  TYR80       0.0417
     73  CE2      -20.5230    2.1090  -24.0430 C.ar   80  TYR80       0.0417
     74  CZ       -19.3050    2.3650  -23.4570 C.ar   80  TYR80       0.1957
     75  OH       -18.2340    2.6190  -24.2880 O.3    80  TYR80      -0.2866
     76  N        -22.5800    4.8540  -21.0940 N.am   81  MET81      -0.1963
     77  CA       -22.7260    6.0830  -21.8640 C.3    81  MET81       0.1736
     78  C        -21.6480    6.1000  -22.9470 C.2    81  MET81       0.2616
     79  O        -20.4620    6.3890  -22.6820 O.2    81  MET81      -0.2715
     80  CB       -22.6420    7.2920  -20.9500 C.3    81  MET81       0.0427
     81  CG       -23.5900    7.2450  -19.7430 C.3    81  MET81       0.0599
     82  SD       -25.3310    7.5170  -20.1440 S.3    81  MET81      -0.1393
     83  CE       -25.2650    9.2450  -20.5790 C.3    81  MET81       0.0692
     84  N        -22.0680    5.7360  -24.1620 N.am   82  ALA82      -0.1963
     85  CA       -21.1490    5.3850  -25.2350 C.3    82  ALA82       0.1728
     86  C        -20.2970    6.5450  -25.7780 C.2    82  ALA82       0.2616
     87  O        -19.2520    6.3030  -26.3670 O.2    82  ALA82      -0.2715
     88  CB       -21.9060    4.6960  -26.3500 C.3    82  ALA82       0.0334
     89  N        -20.7310    7.7920  -25.5830 N.am   83  ASN83      -0.1958
     90  CA       -19.9710    8.9620  -26.0480 C.3    83  ASN83       0.1819
     91  C        -19.2140    9.6820  -24.9230 C.2    83  ASN83       0.2622
     92  O        -18.7180   10.7950  -25.0980 O.2    83  ASN83      -0.2715
     93  CB       -20.8590    9.9390  -26.8120 C.3    83  ASN83       0.1195
     94  CG       -21.2010    9.4600  -28.2000 C.2    83  ASN83       0.2630
     95  OD1      -20.3170    9.2600  -29.0400 O.2    83  ASN83      -0.2716
     96  ND2      -22.5010    9.3060  -28.4650 N.am   83  ASN83      -0.0877
     97  N        -19.1410    9.0250  -23.7710 N.am   84  GLY84      -0.1940
     98  CA       -18.1510    9.3430  -22.7750 C.3    84  GLY84       0.2014
     99  C        -18.3870   10.6170  -22.0110 C.2    84  GLY84       0.2639
    100  O        -19.4910   10.9000  -21.6000 O.2    84  GLY84      -0.2714
    101  N        -17.3280   11.3890  -21.8220 N.am   85  CYS85      -0.1967
    102  CA       -17.3750   12.5530  -20.9350 C.3    85  CYS85       0.1712
    103  C        -17.7980   13.7980  -21.6980 C.2    85  CYS85       0.2296
    104  O        -17.2080   14.1300  -22.7370 O.2    85  CYS85      -0.2864
    105  CB       -16.0100   12.7620  -20.2700 C.3    85  CYS85       0.0983
    106  SG       -15.9340   14.2840  -19.3320 S.3    85  CYS85      -0.0798
    107  N        -15.1400   16.2610  -22.7490 N.3    88  ASN88      -0.1240
    108  CA       -14.3960   15.7780  -23.9390 C.3    88  ASN88       0.1653
    109  C        -15.2330   15.8010  -25.2200 C.2    88  ASN88       0.2266
    110  O        -14.7390   16.1730  -26.2850 O.2    88  ASN88      -0.2867
    111  CB       -13.7390   14.3910  -23.7280 C.3    88  ASN88       0.1155
    112  CG       -12.4880   14.4490  -22.8290 C.2    88  ASN88       0.2627
    113  OD1      -12.3180   15.3640  -22.0160 O.2    88  ASN88      -0.2716
    114  ND2      -11.6230   13.4510  -22.9580 N.am   88  ASN88      -0.0877
    115  N        -22.1350   12.7950  -18.6470 N.3   132  LEU132     -0.1245
    116  CA       -21.8150   11.8020  -19.6800 C.3   132  LEU132      0.1561
    117  C        -22.8780   11.8430  -20.7740 C.2   132  LEU132      0.2260
    118  O        -24.0110   12.2740  -20.5240 O.2   132  LEU132     -0.2867
    119  CB       -21.7240   10.3850  -19.0850 C.3   132  LEU132      0.0270
    120  CG       -20.6790   10.0270  -18.0080 C.3   132  LEU132      0.0019
    121  CD1      -21.0060    8.6690  -17.3600 C.3   132  LEU132      0.0001
    122  CD2      -19.2620   10.0160  -18.5170 C.3   132  LEU132      0.0001
    123  N        -17.5300   11.6110  -11.0320 N.3   146  LEU146     -0.1231
    124  CA       -16.9460   10.4220  -11.6740 C.3   146  LEU146      0.1693
    125  C        -15.6300   10.0480  -11.0160 C.2   146  LEU146      0.2592
    126  O        -15.3300    8.8760  -10.8020 O.2   146  LEU146     -0.2718
    127  CB       -16.6850   10.6860  -13.1550 C.3   146  LEU146      0.0284
    128  CG       -17.8380   10.8310  -14.1320 C.3   146  LEU146      0.0019
    129  CD1      -17.2580   10.6740  -15.5400 C.3   146  LEU146      0.0001
    130  CD2      -18.9630    9.8050  -13.8730 C.3   146  LEU146      0.0001
    131  N        -14.8600   11.0870  -10.7040 N.am  147  SER147     -0.1952
    132  CA       -13.5320   11.0110  -10.0920 C.3   147  SER147      0.1924
    133  C        -13.5120   10.1870   -8.8070 C.2   147  SER147      0.2314
    134  O        -12.4630    9.6860   -8.4030 O.2   147  SER147     -0.2863
    135  CB       -13.0680   12.4400   -9.7740 C.3   147  SER147      0.2116
    136  OG       -11.7040   12.6220  -10.0890 O.3   147  SER147     -0.2180
    137  N        -12.0170    6.5860   -8.0320 N.3   150  VAL150     -0.1231
    138  CA       -11.1180    6.2210   -9.1250 C.3   150  VAL150      0.1692
    139  C         -9.7630    6.9150   -8.9180 C.2   150  VAL150      0.2591
    140  O         -8.7650    6.2420   -8.6410 O.2   150  VAL150     -0.2718
    141  CB       -11.7170    6.4970  -10.5380 C.3   150  VAL150      0.0266
    142  CG1      -10.6540    6.3060  -11.6330 C.3   150  VAL150      0.0020
    143  CG2      -12.9110    5.5960  -10.7980 C.3   150  VAL150      0.0020
    144  N         -9.7490    8.2490   -9.0120 N.am  151  LEU151     -0.1980
    145  CA        -8.5120    9.0430   -8.9310 C.3   151  LEU151      0.1596
    146  C         -8.2630    9.6290   -7.5300 C.2   151  LEU151      0.2287
    147  O         -7.1140    9.6670   -7.0510 O.2   151  LEU151     -0.2864
    148  CB        -8.5160   10.1630   -9.9850 C.3   151  LEU151      0.0297
    149  CG        -8.6980    9.8260  -11.4790 C.3   151  LEU151      0.0022
    150  CD1       -9.2600   11.0330  -12.2270 C.3   151  LEU151      0.0001
    151  CD2       -7.4080    9.3240  -12.1380 C.3   151  LEU151      0.0001
@<TRIPOS>BOND
     1    95    94    2
     2    96    94   am
     3    94    93    1
     4    93    90    1
     5    87    86    2
     6    88    85    1
     7   110   109    2
     8    90    89    1
     9    90    91    1
    10    86    89   am
    11    86    85    1
    12    85    84    1
    13   109   108    1
    14    92    91    2
    15    91    97   am
    16    75    74    1
    17    84    78   am
    18    73    74   ar
    19    73    71   ar
    20   108   111    1
    21   108   107    1
    22    97    98    1
    23   111   112    1
    24    74    72   ar
    25    71    69   ar
    26   114   112   am
    27    78    79    2
    28    78    77    1
    29   112   113    2
    30    98    99    1
    31   104   103    2
    32    72    70   ar
    33    99   101   am
    34    99   100    2
    35    69    70   ar
    36    69    68    1
    37    77    76    1
    38    77    80    1
    39   101   102    1
    40    67    66    2
    41     8     6    1
    42   103   102    1
    43    76    66   am
    44    66    65    1
    45    68    65    1
    46    80    81    1
    47   102   105    1
    48   117   118    2
    49   117   116    1
    50    83    82    1
    51   105   106    1
    52    65    64    1
    53     6     7    1
    54     6     5    1
    55    82    81    1
    56   116   119    1
    57   116   115    1
    58     2     5    1
    59     2     1    1
    60     2     3    1
    61    64    57   am
    62     4     3    2
    63    62    61   ar
    64   119   120    1
    65     3     9   am
    66   122   120    1
    67    57    58    2
    68    57    56    1
    69    61    60    1
    70    61    63   ar
    71    60    59    1
    72   120   121    1
    73    59    56    1
    74     9    10    1
    75    27    28    1
    76    56    55    1
    77    28    31    1
    78    28    29    1
    79    10    11    1
    80    23    22    2
    81    51    50    2
    82    55    50   am
    83    22    21    1
    84    29    30    2
    85    11    12    2
    86    11    13   am
    87    47    45    1
    88   129   128    1
    89    50    49    1
    90    46    45    1
    91    19    17    1
    92    25    24    1
    93    13    14    1
    94    42    45    1
    95    42    41    1
    96    42    43    1
    97    24    21    1
    98    24    26    1
    99    53    52    1
   100    17    14    1
   101    17    18    1
   102    21    20    1
   103   128   130    1
   104   128   127    1
   105    49    52    1
   106    49    48    1
   107    14    15    1
   108    43    44    2
   109    52    54    1
   110    16    15    2
   111   127   124    1
   112    32    33    1
   113   150   149    1
   114   151   149    1
   115   124   123    1
   116   124   125    1
   117   142   141    1
   118   149   148    1
   119    33    36    1
   120    33    34    1
   121   125   126    2
   122   125   131   am
   123    36    37    1
   124   143   141    1
   125   131   132    1
   126    37    38    1
   127   141   138    1
   128    34    35    2
   129   132   135    1
   130   132   133    1
   131   136   135    1
   132   148   145    1
   133    38    39    1
   134    39    40    1
   135   138   139    1
   136   138   137    1
   137   144   145    1
   138   144   139   am
   139   145   146    1
   140   139   140    2
   141   133   134    2
   142   146   147    2
