@<TRIPOS>MOLECULE
tmp/3pizA00.pdb
 153 143 0 0 0
SMALL
GASTEIGER

@<TRIPOS>ATOM
      1  N        -11.8410    1.3270  -19.6600 N.3    18  LEU18      -0.1231
      2  CA       -12.1980    2.7080  -19.9970 C.3    18  LEU18       0.1693
      3  C        -11.4090    3.7480  -19.2000 C.2    18  LEU18       0.2593
      4  O        -11.3860    4.9270  -19.5670 O.2    18  LEU18      -0.2718
      5  CB       -13.7030    2.9380  -19.8030 C.3    18  LEU18       0.0284
      6  CG       -14.6950    1.9810  -20.4720 C.3    18  LEU18       0.0019
      7  CD1      -16.0740    2.1180  -19.8420 C.3    18  LEU18       0.0001
      8  CD2      -14.7590    2.1900  -21.9790 C.3    18  LEU18       0.0001
      9  N        -10.7720    3.3090  -18.1150 N.am   19  GLY19      -0.1942
     10  CA       -10.0130    4.2020  -17.2390 C.3    19  GLY19       0.2014
     11  C         -9.7380    3.6170  -15.8640 C.2    19  GLY19       0.2639
     12  O        -10.2130    2.5220  -15.5390 O.2    19  GLY19      -0.2714
     13  N         -8.9700    4.3560  -15.0600 N.am   20  THR20      -0.1950
     14  CA        -8.5750    3.9270  -13.7120 C.3    20  THR20       0.1897
     15  C         -8.2070    5.1040  -12.7970 C.2    20  THR20       0.2313
     16  O         -7.9240    6.2100  -13.2610 O.2    20  THR20      -0.2863
     17  CB        -7.4080    2.9030  -13.7470 C.3    20  THR20       0.1794
     18  OG1       -7.0570    2.5250  -12.4100 O.3    20  THR20      -0.2208
     19  CG2       -6.1840    3.4830  -14.4580 C.3    20  THR20       0.0378
     20  N        -12.5760    1.4170  -14.0520 N.3    23  VAL23      -0.1245
     21  CA       -13.7990    1.4880  -14.8590 C.3    23  VAL23       0.1561
     22  C        -13.6730    0.6790  -16.1500 C.2    23  VAL23       0.2260
     23  O        -12.7440    0.8880  -16.9340 O.2    23  VAL23      -0.2867
     24  CB       -14.1810    2.9620  -15.1920 C.3    23  VAL23       0.0252
     25  CG1      -15.3180    3.0240  -16.2120 C.3    23  VAL23       0.0019
     26  CG2      -14.5550    3.7190  -13.9260 C.3    23  VAL23       0.0019
     27  N        -21.5910    0.0190  -17.7180 N.3    35  ALA35      -0.1231
     28  CA       -20.2740    0.3900  -17.2250 C.3    35  ALA35       0.1694
     29  C        -20.1240   -0.2400  -15.8460 C.2    35  ALA35       0.2592
     30  O        -21.0970   -0.3410  -15.0930 O.2    35  ALA35      -0.2718
     31  CB       -20.1190    1.8960  -17.1610 C.3    35  ALA35       0.0304
     32  N        -18.9120   -0.6880  -15.5380 N.am   36  ILE36      -0.1966
     33  CA       -18.6230   -1.3560  -14.2730 C.3    36  ILE36       0.1727
     34  C        -17.4870   -0.6320  -13.5590 C.2    36  ILE36       0.2616
     35  O        -16.3920   -0.4960  -14.1090 O.2    36  ILE36      -0.2715
     36  CB       -18.2290   -2.8400  -14.4840 C.3    36  ILE36       0.0290
     37  CG1      -19.3130   -3.5870  -15.2660 C.3    36  ILE36       0.0022
     38  CG2      -17.9620   -3.5250  -13.1360 C.3    36  ILE36       0.0023
     39  CD1      -18.8460   -4.8910  -15.8970 C.3    36  ILE36       0.0001
     40  N        -17.7500   -0.1700  -12.3390 N.am   37  LYS37      -0.1977
     41  CA       -16.7170    0.4510  -11.5190 C.3    37  LYS37       0.1596
     42  C        -16.1960   -0.5210  -10.4640 C.2    37  LYS37       0.2287
     43  O        -16.9600   -1.0290   -9.6440 O.2    37  LYS37      -0.2864
     44  CB       -17.2200    1.7430  -10.8590 C.3    37  LYS37       0.0298
     45  CG       -16.1020    2.5920  -10.2520 C.3    37  LYS37       0.0038
     46  CD       -16.6220    3.6610   -9.3020 C.3    37  LYS37       0.0206
     47  CE       -16.7900    4.9990   -9.9970 C.3    37  LYS37       0.1093
     48  NZ       -16.9060    6.1150   -9.0190 N.3    37  LYS37      -0.1314
     49  N        -21.5660    5.6780   -2.8810 N.3    47  GLU47      -0.1245
     50  CA       -22.0210    6.1460   -4.1920 C.3    47  GLU47       0.1567
     51  C        -23.2580    5.3590   -4.6410 C.2    47  GLU47       0.2260
     52  O        -24.2710    5.9500   -5.0220 O.2    47  GLU47      -0.2867
     53  CB       -20.8890    6.0410   -5.2310 C.3    47  GLU47       0.0388
     54  CG       -21.2410    6.5850   -6.6190 C.3    47  GLU47       0.1160
     55  CD       -20.0690    6.5780   -7.5980 C.2    47  GLU47       0.3649
     56  OE1      -19.1290    5.7790   -7.4180 O.co2  47  GLU47      -0.2457
     57  OE2      -20.0940    7.3750   -8.5630 O.co2  47  GLU47      -0.2457
     58  N        -27.3810    6.1580   -5.0210 N.3    51  MET51      -0.1245
     59  CA       -27.9670    5.8770   -6.3330 C.3    51  MET51       0.1570
     60  C        -29.1540    4.9140   -6.2820 C.2    51  MET51       0.2261
     61  O        -29.9510    4.8650   -7.2180 O.2    51  MET51      -0.2867
     62  CB       -26.8930    5.3800   -7.3070 C.3    51  MET51       0.0387
     63  CG       -25.8420    6.4270   -7.6250 C.3    51  MET51       0.0595
     64  SD       -24.5640    5.8930   -8.7710 S.3    51  MET51      -0.1393
     65  CE       -25.4740    5.8820  -10.3120 C.3    51  MET51       0.0692
     66  N        -27.5580    9.2400  -14.4320 N.3    60  VAL60      -0.1245
     67  CA       -26.9140    7.9540  -14.7380 C.3    60  VAL60       0.1561
     68  C        -27.4680    6.8810  -13.8030 C.2    60  VAL60       0.2260
     69  O        -27.3900    7.0270  -12.5940 O.2    60  VAL60      -0.2867
     70  CB       -25.3730    8.0430  -14.6220 C.3    60  VAL60       0.0252
     71  CG1      -24.7300    6.6750  -14.8310 C.3    60  VAL60       0.0019
     72  CG2      -24.8280    9.0390  -15.6260 C.3    60  VAL60       0.0019
     73  N        -19.5340   -1.7430   -8.9060 N.3    74  ILE74      -0.1245
     74  CA       -20.7600   -0.9810   -9.1230 C.3    74  ILE74       0.1561
     75  C        -21.0850   -1.0440  -10.6150 C.2    74  ILE74       0.2260
     76  O        -20.2160   -0.8010  -11.4550 O.2    74  ILE74      -0.2867
     77  CB       -20.6350    0.4970   -8.6680 C.3    74  ILE74       0.0252
     78  CG1      -20.3130    0.5760   -7.1680 C.3    74  ILE74       0.0019
     79  CG2      -21.9160    1.2650   -8.9930 C.3    74  ILE74       0.0019
     80  CD1      -19.9120    1.9570   -6.6850 C.3    74  ILE74       0.0001
     81  N        -23.6940    0.2050  -13.7590 N.3    76  THR76      -0.1203
     82  CA       -24.6740    1.2000  -14.1910 C.3    76  THR76       0.1994
     83  C        -24.9230    1.1360  -15.6910 C.2    76  THR76       0.2618
     84  O        -24.2130    0.4380  -16.4190 O.2    76  THR76      -0.2717
     85  CB       -24.2190    2.6480  -13.8800 C.3    76  THR76       0.1784
     86  OG1      -23.1880    3.0270  -14.7910 O.3    76  THR76      -0.2211
     87  CG2      -23.7240    2.8000  -12.4540 C.3    76  THR76       0.0376
     88  N        -25.9130    1.8970  -16.1550 N.am   77  GLU77      -0.1965
     89  CA       -26.0910    2.1090  -17.5900 C.3    77  GLU77       0.1733
     90  C        -24.8030    2.6240  -18.2430 C.2    77  GLU77       0.2616
     91  O        -24.0340    3.3790  -17.6370 O.2    77  GLU77      -0.2715
     92  CB       -27.2620    3.0520  -17.8820 C.3    77  GLU77       0.0429
     93  CG       -27.0380    4.5030  -17.5370 C.3    77  GLU77       0.1163
     94  CD       -28.2130    5.3700  -17.9380 C.2    77  GLU77       0.3649
     95  OE1      -28.4930    5.4910  -19.1540 O.co2  77  GLU77      -0.2457
     96  OE2      -28.8590    5.9260  -17.0280 O.co2  77  GLU77      -0.2457
     97  N        -24.5900    2.2020  -19.4820 N.am   78  TYR78      -0.1960
     98  CA       -23.3960    2.5490  -20.2350 C.3    78  TYR78       0.1771
     99  C        -23.6530    3.7900  -21.0740 C.2    78  TYR78       0.2619
    100  O        -24.6940    3.8930  -21.7270 O.2    78  TYR78      -0.2715
    101  CB       -23.0130    1.3780  -21.1390 C.3    78  TYR78       0.0574
    102  CG       -21.8100    1.6330  -22.0130 C.ar   78  TYR78      -0.0198
    103  CD1      -20.5350    1.7540  -21.4580 C.ar   78  TYR78      -0.0009
    104  CD2      -21.9400    1.7380  -23.3940 C.ar   78  TYR78      -0.0009
    105  CE1      -19.4220    1.9810  -22.2580 C.ar   78  TYR78       0.0417
    106  CE2      -20.8320    1.9570  -24.2000 C.ar   78  TYR78       0.0417
    107  CZ       -19.5800    2.0840  -23.6220 C.ar   78  TYR78       0.1957
    108  OH       -18.4800    2.3110  -24.4130 O.3    78  TYR78      -0.2866
    109  N        -22.6980    4.7230  -21.0550 N.am   79  MET79      -0.1963
    110  CA       -22.8120    5.9820  -21.8020 C.3    79  MET79       0.1736
    111  C        -21.7680    6.0370  -22.9080 C.2    79  MET79       0.2616
    112  O        -20.6480    6.5090  -22.7000 O.2    79  MET79      -0.2715
    113  CB       -22.6780    7.1800  -20.8540 C.3    79  MET79       0.0427
    114  CG       -23.5940    7.1050  -19.6260 C.3    79  MET79       0.0599
    115  SD       -25.3530    7.2310  -20.0180 S.3    79  MET79      -0.1393
    116  CE       -25.4970    8.9540  -20.4820 C.3    79  MET79       0.0692
    117  N        -22.1490    5.5530  -24.0880 N.am   80  ALA80      -0.1977
    118  CA       -21.2100    5.2970  -25.1920 C.3    80  ALA80       0.1597
    119  C        -20.3420    6.4850  -25.6050 C.2    80  ALA80       0.2287
    120  O        -19.1770    6.3040  -25.9610 O.2    80  ALA80      -0.2864
    121  CB       -21.9570    4.7330  -26.4070 C.3    80  ALA80       0.0319
    122  N        -19.2910    8.8110  -23.7180 N.3    82  GLY82      -0.1210
    123  CA       -18.3860    9.1680  -22.6270 C.3    82  GLY82       0.1956
    124  C        -18.6810   10.4890  -21.9370 C.2    82  GLY82       0.2612
    125  O        -19.8370   10.8480  -21.7130 O.2    82  GLY82      -0.2717
    126  N        -17.6110   11.2040  -21.6080 N.am   83  CYS83      -0.1970
    127  CA       -17.6830   12.4210  -20.8290 C.3    83  CYS83       0.1712
    128  C        -18.1310   13.6190  -21.6640 C.2    83  CYS83       0.2296
    129  O        -17.6530   13.8110  -22.7820 O.2    83  CYS83      -0.2864
    130  CB       -16.3190   12.6930  -20.2180 C.3    83  CYS83       0.0983
    131  SG       -16.2750   14.1980  -19.2910 S.3    83  CYS83      -0.0798
    132  N        -22.3430   12.6720  -18.4910 N.3   130  LEU130     -0.1245
    133  CA       -22.0380   11.6620  -19.4960 C.3   130  LEU130      0.1561
    134  C        -23.0380   11.7260  -20.6410 C.2   130  LEU130      0.2260
    135  O        -24.1390   12.2780  -20.4920 O.2   130  LEU130     -0.2867
    136  CB       -22.0040   10.2570  -18.8690 C.3   130  LEU130      0.0270
    137  CG       -20.9420    9.9370  -17.8070 C.3   130  LEU130      0.0019
    138  CD1      -21.1780    8.5550  -17.1850 C.3   130  LEU130      0.0001
    139  CD2      -19.5260   10.0290  -18.3810 C.3   130  LEU130      0.0001
    140  N        -23.8580   12.6610  -13.7260 N.3   140  SER140     -0.1202
    141  CA       -23.1730   11.5480  -13.1060 C.3   140  SER140      0.2020
    142  C        -22.4750   11.9990  -11.8310 C.2   140  SER140      0.2618
    143  O        -22.5580   13.1710  -11.4480 O.2   140  SER140     -0.2717
    144  CB       -22.1510   10.9790  -14.0830 C.3   140  SER140      0.2103
    145  OG       -21.9220    9.6140  -13.8120 O.3   140  SER140     -0.2182
    146  N        -21.7990   11.0580  -11.1710 N.am  141  ASP141     -0.1973
    147  CA       -20.9160   11.3650  -10.0440 C.3   141  ASP141      0.1709
    148  C        -21.6080   12.1010   -8.9050 C.2   141  ASP141      0.2293
    149  O        -20.9550   12.7960   -8.1210 O.2   141  ASP141     -0.2864
    150  CB       -19.7250   12.1980  -10.5300 C.3   141  ASP141      0.1436
    151  CG       -18.4870   11.3730  -10.7430 C.2   141  ASP141      0.3671
    152  OD1      -17.4510   11.7450  -10.1500 O.co2 141  ASP141     -0.2456
    153  OD2      -18.5420   10.3660  -11.4880 O.co2 141  ASP141     -0.2456
@<TRIPOS>BOND
     1   121   118    1
     2   120   119    2
     3   119   118    1
     4   118   117    1
     5   108   107    1
     6   106   107   ar
     7   106   104   ar
     8   117   111   am
     9   122   123    1
    10   107   105   ar
    11   104   102   ar
    12   111   112    2
    13   111   110    1
    14   129   128    2
    15   123   124    1
    16   105   103   ar
    17   102   103   ar
    18   102   101    1
    19     8     6    1
    20   124   125    2
    21   124   126   am
    22   110   109    1
    23   110   113    1
    24   100    99    2
    25   128   127    1
    26   126   127    1
    27   101    98    1
    28    99   109   am
    29    99    98    1
    30   113   114    1
    31   127   130    1
    32   134   135    2
    33   134   133    1
    34   116   115    1
    35     6     7    1
    36     6     5    1
    37    98    97    1
    38   130   131    1
    39   115   114    1
    40     2     5    1
    41     2     1    1
    42     2     3    1
    43     4     3    2
    44   133   136    1
    45   133   132    1
    46    97    90   am
    47     3     9   am
    48    95    94   ar
    49   136   137    1
    50   139   137    1
    51    90    91    2
    52    90    89    1
    53     9    10    1
    54    94    93    1
    55    94    96   ar
    56    92    89    1
    57    92    93    1
    58   137   138    1
    59    27    28    1
    60    89    88    1
    61    10    11    1
    62    28    31    1
    63    28    29    1
    64    23    22    2
    65    84    83    2
    66    25    24    1
    67    88    83   am
    68    22    21    1
    69    39    37    1
    70    11    12    2
    71    11    13   am
    72    29    32   am
    73    29    30    2
    74    83    82    1
    75    72    70    1
    76    32    33    1
    77    37    36    1
    78    24    21    1
    79    24    26    1
    80    13    14    1
    81    21    20    1
    82    71    70    1
    83    86    85    1
    84    67    70    1
    85    67    66    1
    86    67    68    1
    87    36    33    1
    88    36    38    1
    89    19    17    1
    90    33    34    1
    91    82    85    1
    92    82    81    1
    93    35    34    2
    94   144   145    1
    95   144   141    1
    96    85    87    1
    97    68    69    2
    98    17    14    1
    99    17    18    1
   100   140   141    1
   101    14    15    1
   102    34    40   am
   103    16    15    2
   104   141   142    1
   105    40    41    1
   106   142   143    2
   107   142   146   am
   108    41    44    1
   109    41    42    1
   110   153   151   ar
   111    76    75    2
   112   146   147    1
   113    44    45    1
   114   151   150    1
   115   151   152   ar
   116    75    74    1
   117   150   147    1
   118    42    43    2
   119    65    64    1
   120    45    46    1
   121   147   148    1
   122    47    46    1
   123    47    48    1
   124    74    73    1
   125    74    77    1
   126    79    77    1
   127   148   149    2
   128    64    63    1
   129    77    78    1
   130    57    55   ar
   131    63    62    1
   132    55    56   ar
   133    55    54    1
   134    62    59    1
   135    61    60    2
   136    78    80    1
   137    54    53    1
   138    59    60    1
   139    59    58    1
   140    53    50    1
   141    52    51    2
   142    51    50    1
   143    50    49    1
