@<TRIPOS>MOLECULE
tmp/3pj0A01.pdb
 79 75 0 0 0
SMALL
GASTEIGER

@<TRIPOS>ATOM
      1  N         28.4460   21.3320   47.8750 N.3    62  LYS62      -0.1245
      2  CA        27.1960   21.3710   48.6360 C.3    62  LYS62       0.1561
      3  C         26.0750   20.6890   47.8420 C.2    62  LYS62       0.2260
      4  O         26.1500   20.5640   46.6060 O.2    62  LYS62      -0.2867
      5  CB        26.8190   22.8150   49.0010 C.3    62  LYS62       0.0271
      6  CG        27.8210   23.5580   49.8640 C.3    62  LYS62       0.0035
      7  CD        28.0910   22.8040   51.1510 C.3    62  LYS62       0.0206
      8  CE        29.1820   23.4600   52.0150 C.3    62  LYS62       0.1093
      9  NZ        29.3370   22.6360   53.2750 N.3    62  LYS62      -0.1314
     10  N         35.8950   25.3070   63.2190 N.3   162  SER162     -0.1217
     11  CA        34.8470   24.4250   62.6950 C.3   162  SER162      0.1889
     12  C         34.5680   23.3000   63.6730 C.2   162  SER162      0.2288
     13  O         33.4140   23.0250   64.0020 O.2   162  SER162     -0.2866
     14  CB        35.2560   23.8300   61.3300 C.3   162  SER162      0.2089
     15  OG        34.1770   23.0900   60.7510 O.3   162  SER162     -0.2183
     16  N         32.7790   24.6200   66.8280 N.3   165  CYS165     -0.1221
     17  CA        31.3900   24.9380   66.5300 C.3   165  CYS165      0.1808
     18  C         30.5690   23.6400   66.3830 C.2   165  CYS165      0.2601
     19  O         29.4570   23.5510   66.8970 O.2   165  CYS165     -0.2717
     20  CB        31.2740   25.8880   65.3370 C.3   165  CYS165      0.0970
     21  SG        31.8530   27.5670   65.6840 S.3   165  CYS165     -0.0800
     22  N         31.1280   22.6310   65.7260 N.am  166  HIS166     -0.1975
     23  CA        30.4520   21.3610   65.6010 C.3   166  HIS166      0.1656
     24  C         30.1300   20.7340   66.9860 C.2   166  HIS166      0.2291
     25  O         29.0020   20.3140   67.2340 O.2   166  HIS166     -0.2864
     26  CB        31.2330   20.4120   64.6970 C.3   166  HIS166      0.0771
     27  CG        30.5340   19.1090   64.4360 C.ar  166  HIS166      0.0820
     28  ND1       29.5230   18.9780   63.5060 N.ar  166  HIS166     -0.2267
     29  CD2       30.7090   17.8780   64.9770 C.ar  166  HIS166      0.1154
     30  CE1       29.1020   17.7240   63.4900 C.ar  166  HIS166      0.1986
     31  NE2       29.8070   17.0370   64.3710 N.ar  166  HIS166     -0.2212
     32  N         26.9120   24.9620   67.1700 N.3   170  ILE170     -0.1245
     33  CA        26.8840   26.3050   66.5650 C.3   170  ILE170      0.1561
     34  C         27.0430   26.1460   65.0370 C.2   170  ILE170      0.2260
     35  O         28.0190   25.5460   64.5840 O.2   170  ILE170     -0.2867
     36  CB        28.0290   27.2140   67.0890 C.3   170  ILE170      0.0252
     37  CG1       27.9070   27.4420   68.5980 C.3   170  ILE170      0.0019
     38  CG2       27.9910   28.5610   66.3640 C.3   170  ILE170      0.0019
     39  CD1       29.1250   28.0050   69.2480 C.3   170  ILE170      0.0001
     40  N         28.0320   27.2070   61.2910 N.3   172  LEU172     -0.1245
     41  CA        29.1520   28.0170   60.8150 C.3   172  LEU172      0.1561
     42  C         28.8160   28.4070   59.3880 C.2   172  LEU172      0.2260
     43  O         28.5420   27.5270   58.5550 O.2   172  LEU172     -0.2867
     44  CB        30.4790   27.2380   60.8830 C.3   172  LEU172      0.0270
     45  CG        31.7860   28.0710   60.8500 C.3   172  LEU172      0.0019
     46  CD1       31.9270   28.9790   62.0680 C.3   172  LEU172      0.0001
     47  CD2       33.0440   27.1620   60.7010 C.3   172  LEU172      0.0001
     48  N         33.7940   22.9370   52.9740 N.3   195  ALA195     -0.1231
     49  CA        33.4680   21.7150   53.7320 C.3   195  ALA195      0.1694
     50  C         33.4570   21.9260   55.2480 C.2   195  ALA195      0.2592
     51  O         32.9000   21.0960   55.9900 O.2   195  ALA195     -0.2718
     52  CB        34.4290   20.5610   53.3810 C.3   195  ALA195      0.0304
     53  N         34.0950   23.0010   55.7070 N.am  196  LEU196     -0.1966
     54  CA        34.1590   23.2780   57.1340 C.3   196  LEU196      0.1728
     55  C         32.9420   24.0830   57.6130 C.2   196  LEU196      0.2616
     56  O         32.8150   24.3400   58.8120 O.2   196  LEU196     -0.2715
     57  CB        35.4310   24.0710   57.4480 C.3   196  LEU196      0.0311
     58  CG        36.7740   23.4140   57.1410 C.3   196  LEU196      0.0022
     59  CD1       37.9000   24.4350   57.4790 C.3   196  LEU196      0.0001
     60  CD2       36.9120   22.1500   57.9430 C.3   196  LEU196      0.0001
     61  N         32.0460   24.4390   56.6880 N.am  197  PHE197     -0.1960
     62  CA        30.9160   25.3170   56.9560 C.3   197  PHE197      0.1771
     63  C         29.5920   24.6530   56.6510 C.2   197  PHE197      0.2619
     64  O         29.5010   23.8090   55.7790 O.2   197  PHE197     -0.2715
     65  CB        31.0320   26.5800   56.0570 C.3   197  PHE197      0.0574
     66  CG        32.1910   27.4620   56.4150 C.ar  197  PHE197     -0.0200
     67  CD1       32.0320   28.4620   57.3690 C.ar  197  PHE197     -0.0042
     68  CD2       33.4330   27.2780   55.8220 C.ar  197  PHE197     -0.0042
     69  CE1       33.1050   29.2900   57.7290 C.ar  197  PHE197     -0.0003
     70  CE2       34.5230   28.0940   56.1790 C.ar  197  PHE197     -0.0003
     71  CZ        34.3450   29.1090   57.1260 C.ar  197  PHE197     -0.0000
     72  N         28.5780   25.0450   57.3920 N.am  198  ASP198     -0.1971
     73  CA        27.2170   24.6100   57.1370 C.3   198  ASP198      0.1709
     74  C         26.6300   25.2780   55.8970 C.2   198  ASP198      0.2293
     75  O         25.8630   24.6660   55.1720 O.2   198  ASP198     -0.2864
     76  CB        26.3520   24.9670   58.3390 C.3   198  ASP198      0.1436
     77  CG        26.6760   24.1280   59.5210 C.2   198  ASP198      0.3671
     78  OD1       26.3240   22.9310   59.4650 O.co2 198  ASP198     -0.2456
     79  OD2       27.2920   24.6200   60.4800 O.co2 198  ASP198     -0.2456
@<TRIPOS>BOND
     1     4     3    2
     2     3     2    1
     3     1     2    1
     4     2     5    1
     5     5     6    1
     6     6     7    1
     7     7     8    1
     8     8     9    1
     9    48    49    1
    10    52    49    1
    11    49    50    1
    12    75    74    2
    13    50    53   am
    14    50    51    2
    15    53    54    1
    16    64    63    2
    17    68    70   ar
    18    68    66   ar
    19    74    73    1
    20    65    66    1
    21    65    62    1
    22    70    71   ar
    23    66    67   ar
    24    63    62    1
    25    63    72   am
    26    61    62    1
    27    61    55   am
    28    71    69   ar
    29    54    57    1
    30    54    55    1
    31    73    72    1
    32    73    76    1
    33    58    57    1
    34    58    59    1
    35    58    60    1
    36    67    69   ar
    37    55    56    2
    38    76    77    1
    39    43    42    2
    40    42    41    1
    41    78    77   ar
    42    77    79   ar
    43    47    45    1
    44    15    14    1
    45    41    44    1
    46    41    40    1
    47    45    44    1
    48    45    46    1
    49    14    11    1
    50    11    10    1
    51    11    12    1
    52    30    28   ar
    53    30    31   ar
    54    28    27   ar
    55    12    13    2
    56    31    29   ar
    57    27    26    1
    58    27    29   ar
    59    35    34    2
    60    26    23    1
    61    34    33    1
    62    20    21    1
    63    20    17    1
    64    23    22    1
    65    23    24    1
    66    22    18   am
    67    38    36    1
    68    18    17    1
    69    18    19    2
    70    17    16    1
    71    33    36    1
    72    33    32    1
    73    24    25    2
    74    36    37    1
    75    37    39    1
