@<TRIPOS>MOLECULE
tmp/3pj0A00.pdb
 97 94 0 0 0
SMALL
GASTEIGER

@<TRIPOS>ATOM
      1  N         38.1310   41.5480   54.6450 N.3   146  ARG146     -0.1231
      2  CA        38.4230   42.6870   53.7670 C.3   146  ARG146      0.1694
      3  C         38.7110   44.0250   54.4500 C.2   146  ARG146      0.2591
      4  O         39.6250   44.7300   54.0380 O.2   146  ARG146     -0.2718
      5  CB        37.2690   42.8660   52.7860 C.3   146  ARG146      0.0321
      6  CG        37.4220   44.0330   51.8070 C.3   146  ARG146      0.0489
      7  CD        36.7200   45.3270   52.2900 C.3   146  ARG146      0.2205
      8  NE        36.7040   46.2810   51.1910 N.pl3 146  ARG146     -0.0865
      9  CZ        35.8240   47.2720   50.9840 C.cat 146  ARG146      0.5346
     10  NH1       34.8310   47.5220   51.8240 N.pl3 146  ARG146      0.1354
     11  NH2       35.9490   48.0350   49.8990 N.pl3 146  ARG146      0.1354
     12  N         37.9430   44.3680   55.4780 N.am  147  GLU147     -0.1979
     13  CA        38.0910   45.6800   56.1250 C.3   147  GLU147      0.1602
     14  C         39.4170   45.8600   56.8570 C.2   147  GLU147      0.2287
     15  O         39.8020   46.9860   57.1740 O.2   147  GLU147     -0.2864
     16  CB        36.9230   45.9680   57.0600 C.3   147  GLU147      0.0415
     17  CG        35.5890   46.0100   56.3430 C.3   147  GLU147      0.1163
     18  CD        35.3380   47.2480   55.4930 C.2   147  GLU147      0.3649
     19  OE1       35.9200   48.3130   55.7470 O.co2 147  GLU147     -0.2457
     20  OE2       34.4980   47.1400   54.5770 O.co2 147  GLU147     -0.2457
     21  N         45.8080   46.5790   51.7810 N.3   288  HIS288     -0.1241
     22  CA        45.6670   48.0000   52.0710 C.3   288  HIS288      0.1621
     23  C         47.0650   48.6090   52.1390 C.2   288  HIS288      0.2264
     24  O         47.9790   47.9810   52.6030 O.2   288  HIS288     -0.2867
     25  CB        44.9480   48.1580   53.4010 C.3   288  HIS288      0.0745
     26  CG        43.4980   47.8520   53.3200 C.ar  288  HIS288      0.0817
     27  ND1       42.6370   47.9970   54.3870 N.ar  288  HIS288     -0.2268
     28  CD2       42.7440   47.4430   52.2730 C.ar  288  HIS288      0.1154
     29  CE1       41.4220   47.6530   54.0010 C.ar  288  HIS288      0.1986
     30  NE2       41.4590   47.3540   52.7120 N.ar  288  HIS288     -0.2212
     31  N         49.2940   51.8340   53.5570 N.3   290  TYR290     -0.1241
     32  CA        49.2650   52.8350   54.6080 C.3   290  TYR290      0.1605
     33  C         50.4490   53.7500   54.4710 C.2   290  TYR290      0.2264
     34  O         51.5590   53.2970   54.1870 O.2   290  TYR290     -0.2867
     35  CB        49.3270   52.1630   55.9850 C.3   290  TYR290      0.0534
     36  CG        48.0050   51.7060   56.5470 C.ar  290  TYR290     -0.0201
     37  CD1       47.3590   50.5660   56.0490 C.ar  290  TYR290     -0.0009
     38  CD2       47.4080   52.4010   57.5960 C.ar  290  TYR290     -0.0009
     39  CE1       46.1360   50.1470   56.5670 C.ar  290  TYR290      0.0417
     40  CE2       46.1930   51.9790   58.1430 C.ar  290  TYR290      0.0417
     41  CZ        45.5600   50.8430   57.6250 C.ar  290  TYR290      0.1957
     42  OH        44.3480   50.4350   58.1470 O.3   290  TYR290     -0.2866
     43  N         40.7250   57.7060   46.0670 N.3   316  TYR316     -0.1241
     44  CA        40.3890   58.2170   47.3760 C.3   316  TYR316      0.1605
     45  C         41.4800   57.8370   48.3580 C.2   316  TYR316      0.2264
     46  O         42.2950   56.9270   48.1160 O.2   316  TYR316     -0.2867
     47  CB        39.0990   57.5730   47.8700 C.3   316  TYR316      0.0534
     48  CG        39.3250   56.1140   48.2150 C.ar  316  TYR316     -0.0201
     49  CD1       39.2070   55.1350   47.2450 C.ar  316  TYR316     -0.0009
     50  CD2       39.7220   55.7270   49.5010 C.ar  316  TYR316     -0.0009
     51  CE1       39.4700   53.8030   47.5390 C.ar  316  TYR316      0.0417
     52  CE2       39.9590   54.3860   49.8150 C.ar  316  TYR316      0.0417
     53  CZ        39.8380   53.4380   48.8330 C.ar  316  TYR316      0.1957
     54  OH        40.0930   52.1200   49.1140 O.3   316  TYR316     -0.2866
     55  N         41.6500   57.2390   52.6540 N.3   318  GLN318     -0.1245
     56  CA        40.9280   57.2000   53.9160 C.3   318  GLN318      0.1566
     57  C         41.8270   57.7290   55.0270 C.2   318  GLN318      0.2260
     58  O         42.9180   57.2140   55.2330 O.2   318  GLN318     -0.2867
     59  CB        40.5050   55.7550   54.2340 C.3   318  GLN318      0.0367
     60  CG        39.7780   55.5970   55.5460 C.3   318  GLN318      0.0905
     61  CD        38.4960   56.4050   55.6120 C.2   318  GLN318      0.2608
     62  OE1       37.5740   56.1700   54.8310 O.2   318  GLN318     -0.2717
     63  NE2       38.4210   57.3460   56.5580 N.am  318  GLN318     -0.0878
     64  N         43.1480   57.8980   58.5740 N.3   320  LYS320     -0.1245
     65  CA        43.1900   56.9310   59.7090 C.3   320  LYS320      0.1561
     66  C         43.5280   57.5890   61.0620 C.2   320  LYS320      0.2260
     67  O         43.0480   57.1500   62.1090 O.2   320  LYS320     -0.2867
     68  CB        44.1660   55.7910   59.4140 C.3   320  LYS320      0.0271
     69  CG        43.6430   54.7680   58.4270 C.3   320  LYS320      0.0035
     70  CD        42.3980   54.0690   58.9710 C.3   320  LYS320      0.0206
     71  CE        42.1170   52.7910   58.2290 C.3   320  LYS320      0.1093
     72  NZ        41.9960   53.0040   56.7700 N.3   320  LYS320     -0.1314
     73  N         45.2420   55.7340   54.2950 N.3   326  ALA326     -0.1231
     74  CA        45.3470   54.4580   53.5930 C.3   326  ALA326      0.1694
     75  C         44.3610   54.3100   52.4420 C.2   326  ALA326      0.2592
     76  O         43.4070   55.0730   52.3430 O.2   326  ALA326     -0.2718
     77  CB        45.1230   53.2900   54.6150 C.3   326  ALA326      0.0304
     78  N         44.5900   53.2890   51.6050 N.am  327  PHE327     -0.1962
     79  CA        43.6570   52.9230   50.5450 C.3   327  PHE327      0.1771
     80  C         43.8000   51.4600   50.2430 C.2   327  PHE327      0.2619
     81  O         44.7620   50.8130   50.6760 O.2   327  PHE327     -0.2715
     82  CB        43.8160   53.7410   49.2570 C.3   327  PHE327      0.0574
     83  CG        45.0930   53.4710   48.5180 C.ar  327  PHE327     -0.0200
     84  CD1       45.1690   52.4500   47.6000 C.ar  327  PHE327     -0.0042
     85  CD2       46.2180   54.2420   48.7350 C.ar  327  PHE327     -0.0042
     86  CE1       46.3700   52.2040   46.9270 C.ar  327  PHE327     -0.0003
     87  CE2       47.3760   54.0210   48.0290 C.ar  327  PHE327     -0.0003
     88  CZ        47.4540   52.9850   47.1440 C.ar  327  PHE327     -0.0000
     89  N         42.7950   50.9310   49.5680 N.am  328  GLU328     -0.1977
     90  CA        42.7530   49.5270   49.2070 C.3   328  GLU328      0.1602
     91  C         43.0760   49.2750   47.7310 C.2   328  GLU328      0.2287
     92  O         42.6310   50.0320   46.8520 O.2   328  GLU328     -0.2864
     93  CB        41.3370   49.0080   49.5070 C.3   328  GLU328      0.0415
     94  CG        40.9910   47.6520   49.0010 C.3   328  GLU328      0.1163
     95  CD        39.6230   47.2460   49.4660 C.2   328  GLU328      0.3649
     96  OE1       39.5130   46.8670   50.6460 O.co2 328  GLU328     -0.2457
     97  OE2       38.6550   47.3740   48.6650 O.co2 328  GLU328     -0.2457
@<TRIPOS>BOND
     1    43    44    1
     2    92    91    2
     3    86    88   ar
     4    86    84   ar
     5    88    87   ar
     6    49    51   ar
     7    49    48   ar
     8    44    47    1
     9    44    45    1
    10    51    53   ar
    11    84    83   ar
    12    91    90    1
    13    47    48    1
    14    87    85   ar
    15    46    45    2
    16    48    50   ar
    17    83    85   ar
    18    83    82    1
    19    97    95   ar
    20    53    54    1
    21    53    52   ar
    22    94    95    1
    23    94    93    1
    24    90    93    1
    25    90    89    1
    26    82    79    1
    27    95    96   ar
    28    50    52   ar
    29    89    80   am
    30    11     9    1
    31    80    79    1
    32    80    81    2
    33    79    78    1
    34     9     8    2
    35     9    10    1
    36     8     7    1
    37    78    75   am
    38    21    22    1
    39     6     7    1
    40     6     5    1
    41    22    23    1
    42    22    25    1
    43    23    24    2
    44    28    30   ar
    45    28    26   ar
    46    76    75    2
    47    75    74    1
    48    55    56    1
    49    30    29   ar
    50     5     2    1
    51    26    25    1
    52    26    27   ar
    53    31    32    1
    54    74    73    1
    55    74    77    1
    56     2     3    1
    57     2     1    1
    58    56    59    1
    59    56    57    1
    60    29    27   ar
    61     4     3    2
    62    34    33    2
    63    59    60    1
    64     3    12   am
    65    33    32    1
    66    20    18   ar
    67    32    35    1
    68    62    61    2
    69    57    58    2
    70    12    13    1
    71    18    19   ar
    72    18    17    1
    73    60    61    1
    74    61    63   am
    75    35    36    1
    76    37    36   ar
    77    37    39   ar
    78    13    14    1
    79    13    16    1
    80    17    16    1
    81    36    38   ar
    82    39    41   ar
    83    72    71    1
    84    14    15    2
    85    38    40   ar
    86    41    40   ar
    87    41    42    1
    88    71    70    1
    89    69    70    1
    90    69    68    1
    91    64    65    1
    92    68    65    1
    93    65    66    1
    94    66    67    2
