@<TRIPOS>MOLECULE
tmp/3pj1A00.pdb
 182 173 0 0 0
SMALL
GASTEIGER

@<TRIPOS>ATOM
      1  N        -12.1610   -1.5930  -21.1200 N.3    17  GLU17      -0.1231
      2  CA       -11.9490   -0.6190  -20.0560 C.3    17  GLU17       0.1699
      3  C        -12.3730    0.7740  -20.5150 C.2    17  GLU17       0.2592
      4  O        -12.1180    1.1690  -21.6540 O.2    17  GLU17      -0.2718
      5  CB       -10.4840   -0.6150  -19.6090 C.3    17  GLU17       0.0402
      6  CG       -10.2260    0.1260  -18.3010 C.3    17  GLU17       0.1161
      7  CD        -8.7760    0.0440  -17.8500 C.2    17  GLU17       0.3649
      8  OE1       -8.2780   -1.0840  -17.6310 O.co2  17  GLU17      -0.2457
      9  OE2       -8.1380    1.1090  -17.7030 O.co2  17  GLU17      -0.2457
     10  N        -13.0290    1.5040  -19.6170 N.am   18  LEU18      -0.1966
     11  CA       -13.5000    2.8560  -19.8980 C.3    18  LEU18       0.1728
     12  C        -12.6700    3.8940  -19.1500 C.2    18  LEU18       0.2616
     13  O        -12.5590    5.0390  -19.5870 O.2    18  LEU18      -0.2715
     14  CB       -14.9820    2.9950  -19.5330 C.3    18  LEU18       0.0311
     15  CG       -15.9840    2.0420  -20.2000 C.3    18  LEU18       0.0022
     16  CD1      -17.3790    2.2430  -19.6250 C.3    18  LEU18       0.0001
     17  CD2      -15.9990    2.1970  -21.7200 C.3    18  LEU18       0.0001
     18  N        -12.0930    3.4810  -18.0240 N.am   19  GLY19      -0.1955
     19  CA       -11.2470    4.3460  -17.2060 C.3    19  GLY19       0.1869
     20  C        -10.7410    3.6360  -15.9660 C.2    19  GLY19       0.2309
     21  O        -11.2670    2.5880  -15.5870 O.2    19  GLY19      -0.2863
     22  N        -13.2850    1.1580  -14.2430 N.3    23  VAL23      -0.1245
     23  CA       -14.5950    1.1130  -14.8940 C.3    23  VAL23       0.1561
     24  C        -14.5130    0.4200  -16.2500 C.2    23  VAL23       0.2260
     25  O        -13.6840    0.7720  -17.0890 O.2    23  VAL23      -0.2867
     26  CB       -15.2100    2.5320  -15.0550 C.3    23  VAL23       0.0252
     27  CG1      -16.5830    2.4600  -15.7170 C.3    23  VAL23       0.0019
     28  CG2      -15.3090    3.2370  -13.7050 C.3    23  VAL23       0.0019
     29  N        -22.2810   -0.4780  -17.6240 N.3    35  ALA35      -0.1231
     30  CA       -20.9830   -0.0200  -17.1600 C.3    35  ALA35       0.1694
     31  C        -20.7550   -0.6080  -15.7740 C.2    35  ALA35       0.2592
     32  O        -21.6680   -0.6320  -14.9440 O.2    35  ALA35      -0.2718
     33  CB       -20.9380    1.4800  -17.1130 C.3    35  ALA35       0.0304
     34  N        -19.5380   -1.0930  -15.5400 N.am   36  ILE36      -0.1966
     35  CA       -19.2010   -1.7910  -14.3040 C.3    36  ILE36       0.1727
     36  C        -18.0070   -1.1280  -13.6280 C.2    36  ILE36       0.2616
     37  O        -16.9080   -1.0880  -14.1860 O.2    36  ILE36      -0.2715
     38  CB       -18.8900   -3.2940  -14.5540 C.3    36  ILE36       0.0290
     39  CG1      -19.9940   -3.9480  -15.3930 C.3    36  ILE36       0.0022
     40  CG2      -18.7160   -4.0370  -13.2280 C.3    36  ILE36       0.0023
     41  CD1      -19.5460   -5.1840  -16.1620 C.3    36  ILE36       0.0001
     42  N        -18.2360   -0.6090  -12.4250 N.am   37  LYS37      -0.1977
     43  CA       -17.1720   -0.0180  -11.6270 C.3    37  LYS37       0.1596
     44  C        -16.6580   -1.0050  -10.5800 C.2    37  LYS37       0.2287
     45  O        -17.4420   -1.6320   -9.8650 O.2    37  LYS37      -0.2864
     46  CB       -17.6350    1.2890  -10.9730 C.3    37  LYS37       0.0298
     47  CG       -16.6170    1.9010  -10.0040 C.3    37  LYS37       0.0038
     48  CD       -16.4990    3.4090  -10.1620 C.3    37  LYS37       0.0206
     49  CE       -17.5910    4.1500   -9.4210 C.3    37  LYS37       0.1093
     50  NZ       -17.3880    5.6240   -9.4920 N.3    37  LYS37      -0.1314
     51  N        -21.8900    5.2920   -2.7140 N.3    47  GLU47      -0.1245
     52  CA       -22.3230    5.8520   -3.9930 C.3    47  GLU47       0.1567
     53  C        -23.5880    5.1440   -4.4720 C.2    47  GLU47       0.2260
     54  O        -24.5880    5.7920   -4.7820 O.2    47  GLU47      -0.2867
     55  CB       -21.2090    5.7550   -5.0430 C.3    47  GLU47       0.0388
     56  CG       -21.5930    6.3380   -6.4050 C.3    47  GLU47       0.1160
     57  CD       -20.4410    6.3920   -7.3910 C.2    47  GLU47       0.3649
     58  OE1      -19.5910    5.4780   -7.3880 O.co2  47  GLU47      -0.2457
     59  OE2      -20.3920    7.3560   -8.1820 O.co2  47  GLU47      -0.2457
     60  N        -27.6160    6.2480   -5.0240 N.3    51  MET51      -0.1245
     61  CA       -28.2370    6.0370   -6.3380 C.3    51  MET51       0.1570
     62  C        -29.4880    5.1570   -6.3080 C.2    51  MET51       0.2261
     63  O        -30.3380    5.2480   -7.1990 O.2    51  MET51      -0.2867
     64  CB       -27.2160    5.4570   -7.3220 C.3    51  MET51       0.0387
     65  CG       -26.0470    6.3880   -7.6300 C.3    51  MET51       0.0595
     66  SD       -24.8070    5.6140   -8.6820 S.3    51  MET51      -0.1393
     67  CE       -25.5940    5.7090  -10.2840 C.3    51  MET51       0.0692
     68  N        -27.7320    9.2330  -14.5310 N.3    60  VAL60      -0.1245
     69  CA       -27.1590    7.8950  -14.7280 C.3    60  VAL60       0.1561
     70  C        -27.8450    6.9020  -13.7830 C.2    60  VAL60       0.2260
     71  O        -27.8300    7.0850  -12.5640 O.2    60  VAL60      -0.2867
     72  CB       -25.6300    7.8680  -14.5270 C.3    60  VAL60       0.0252
     73  CG1      -25.0930    6.4470  -14.6880 C.3    60  VAL60       0.0019
     74  CG2      -24.9420    8.8080  -15.5120 C.3    60  VAL60       0.0019
     75  N        -20.1550   -1.9620   -8.7410 N.3    72  ILE72      -0.1245
     76  CA       -21.3540   -1.1450   -8.9480 C.3    72  ILE72       0.1561
     77  C        -21.6860   -1.1430  -10.4450 C.2    72  ILE72       0.2260
     78  O        -20.8450   -0.7990  -11.2740 O.2    72  ILE72      -0.2867
     79  CB       -21.1930    0.3090   -8.4400 C.3    72  ILE72       0.0252
     80  CG1      -20.7720    0.3300   -6.9660 C.3    72  ILE72       0.0019
     81  CG2      -22.5030    1.0860   -8.6410 C.3    72  ILE72       0.0019
     82  CD1      -20.5090    1.7200   -6.4030 C.3    72  ILE72       0.0001
     83  N        -24.1690    0.1250  -13.6140 N.3    74  THR74      -0.1203
     84  CA       -25.1100    1.1520  -14.0770 C.3    74  THR74       0.1994
     85  C        -25.4060    1.0130  -15.5740 C.2    74  THR74       0.2618
     86  O        -24.8180    0.1690  -16.2610 O.2    74  THR74      -0.2717
     87  CB       -24.5700    2.5880  -13.8300 C.3    74  THR74       0.1784
     88  OG1      -23.4590    2.8380  -14.6970 O.3    74  THR74      -0.2211
     89  CG2      -24.1480    2.7950  -12.3830 C.3    74  THR74       0.0376
     90  N        -26.3070    1.8580  -16.0770 N.am   75  GLU75      -0.1965
     91  CA       -26.5040    2.0050  -17.5170 C.3    75  GLU75       0.1733
     92  C        -25.2150    2.4630  -18.2000 C.2    75  GLU75       0.2616
     93  O        -24.3750    3.1390  -17.5880 O.2    75  GLU75      -0.2715
     94  CB       -27.6670    2.9600  -17.8310 C.3    75  GLU75       0.0429
     95  CG       -27.3570    4.4380  -17.7070 C.3    75  GLU75       0.1163
     96  CD       -28.5570    5.3120  -18.0210 C.2    75  GLU75       0.3649
     97  OE1      -28.9910    5.3560  -19.1890 O.co2  75  GLU75      -0.2457
     98  OE2      -29.0590    5.9660  -17.0910 O.co2  75  GLU75      -0.2457
     99  N        -25.0700    2.0750  -19.4640 N.am   76  TYR76      -0.1960
    100  CA       -23.8980    2.3950  -20.2590 C.3    76  TYR76       0.1771
    101  C        -24.1370    3.6470  -21.0920 C.2    76  TYR76       0.2619
    102  O        -25.1620    3.7850  -21.7640 O.2    76  TYR76      -0.2715
    103  CB       -23.5270    1.2140  -21.1660 C.3    76  TYR76       0.0574
    104  CG       -22.3610    1.4700  -22.1040 C.ar   76  TYR76      -0.0198
    105  CD1      -21.1080    1.8360  -21.6100 C.ar   76  TYR76      -0.0009
    106  CD2      -22.5100    1.3290  -23.4830 C.ar   76  TYR76      -0.0009
    107  CE1      -20.0370    2.0680  -22.4660 C.ar   76  TYR76       0.0417
    108  CE2      -21.4390    1.5520  -24.3490 C.ar   76  TYR76       0.0417
    109  CZ       -20.2120    1.9260  -23.8320 C.ar   76  TYR76       0.1957
    110  OH       -19.1510    2.1530  -24.6740 O.3    76  TYR76      -0.2866
    111  N        -23.1750    4.5570  -21.0330 N.am   77  MET77      -0.1963
    112  CA       -23.2350    5.7980  -21.7830 C.3    77  MET77       0.1736
    113  C        -22.1430    5.7590  -22.8410 C.2    77  MET77       0.2616
    114  O        -20.9890    6.0650  -22.5570 O.2    77  MET77      -0.2715
    115  CB       -23.0440    6.9840  -20.8370 C.3    77  MET77       0.0427
    116  CG       -24.0280    6.9950  -19.6700 C.3    77  MET77       0.0599
    117  SD       -25.7000    7.4090  -20.1990 S.3    77  MET77      -0.1393
    118  CE       -25.5070    9.1480  -20.5670 C.3    77  MET77       0.0692
    119  N        -22.5190    5.3730  -24.0580 N.am   78  ALA78      -0.1963
    120  CA       -21.5510    5.0310  -25.1080 C.3    78  ALA78       0.1728
    121  C        -20.6080    6.1600  -25.5310 C.2    78  ALA78       0.2616
    122  O        -19.4570    5.8970  -25.8820 O.2    78  ALA78      -0.2715
    123  CB       -22.2660    4.4390  -26.3280 C.3    78  ALA78       0.0334
    124  N        -21.0860    7.4040  -25.5030 N.am   79  ASN79      -0.1958
    125  CA       -20.2710    8.5410  -25.9460 C.3    79  ASN79       0.1819
    126  C        -19.3930    9.1960  -24.8660 C.2    79  ASN79       0.2622
    127  O        -18.8000   10.2570  -25.0930 O.2    79  ASN79      -0.2715
    128  CB       -21.1370    9.5760  -26.6760 C.3    79  ASN79       0.1195
    129  CG       -21.2730    9.2710  -28.1550 C.2    79  ASN79       0.2630
    130  OD1      -20.2750    9.0500  -28.8440 O.2    79  ASN79      -0.2716
    131  ND2      -22.5050    9.2530  -28.6490 N.am   79  ASN79      -0.0877
    132  N        -19.3080    8.5540  -23.7030 N.am   80  GLY80      -0.1940
    133  CA       -18.3860    8.9740  -22.6540 C.3    80  GLY80       0.2014
    134  C        -18.6830   10.3180  -22.0130 C.2    80  GLY80       0.2639
    135  O        -19.8380   10.7540  -21.9360 O.2    80  GLY80      -0.2714
    136  N        -17.6180   10.9650  -21.5560 N.am   81  CYS81      -0.1967
    137  CA       -17.7020   12.2000  -20.7960 C.3    81  CYS81       0.1712
    138  C        -18.1410   13.3680  -21.6780 C.2    81  CYS81       0.2296
    139  O        -17.6520   13.5140  -22.7950 O.2    81  CYS81      -0.2864
    140  CB       -16.3370   12.4910  -20.1800 C.3    81  CYS81       0.0983
    141  SG       -16.2420   14.0440  -19.3230 S.3    81  CYS81      -0.0798
    142  N        -15.2780   15.7000  -22.9970 N.3    84  ASN84      -0.1240
    143  CA       -14.6230   15.1310  -24.1850 C.3    84  ASN84       0.1653
    144  C        -15.5150   15.2200  -25.4280 C.2    84  ASN84       0.2266
    145  O        -15.0470   15.5690  -26.5100 O.2    84  ASN84      -0.2867
    146  CB       -14.2020   13.6780  -23.9420 C.3    84  ASN84       0.1155
    147  CG       -13.1710   13.5400  -22.8370 C.2    84  ASN84       0.2627
    148  OD1      -13.4350   13.8530  -21.6750 O.2    84  ASN84      -0.2716
    149  ND2      -11.9930   13.0450  -23.1930 N.am   84  ASN84      -0.0877
    150  N        -22.3180   12.5020  -18.5920 N.3   126  LEU126     -0.1245
    151  CA       -22.0560   11.4880  -19.6040 C.3   126  LEU126      0.1561
    152  C        -23.0280   11.6340  -20.7680 C.2   126  LEU126      0.2260
    153  O        -24.0590   12.3010  -20.6420 O.2   126  LEU126     -0.2867
    154  CB       -22.1190   10.0740  -18.9960 C.3   126  LEU126      0.0270
    155  CG       -20.9940    9.6760  -18.0350 C.3   126  LEU126      0.0019
    156  CD1      -21.3470    8.3940  -17.2740 C.3   126  LEU126      0.0001
    157  CD2      -19.6480    9.5310  -18.7470 C.3   126  LEU126      0.0001
    158  N        -23.9560   12.6070  -13.8880 N.3   136  SER136     -0.1202
    159  CA       -23.2710   11.4640  -13.3170 C.3   136  SER136      0.2020
    160  C        -22.5270   11.8600  -12.0360 C.2   136  SER136      0.2619
    161  O        -22.5950   13.0130  -11.5950 O.2   136  SER136     -0.2717
    162  CB       -22.2870   10.9030  -14.3440 C.3   136  SER136      0.2103
    163  OG       -21.8650    9.6070  -13.9750 O.3   136  SER136     -0.2182
    164  N        -21.8240   10.8960  -11.4440 N.am  137  ASP137     -0.1959
    165  CA       -20.9950   11.1340  -10.2540 C.3   137  ASP137      0.1840
    166  C        -21.7130   11.9290   -9.1620 C.2   137  ASP137      0.2622
    167  O        -21.1030   12.7710   -8.4960 O.2   137  ASP137     -0.2715
    168  CB       -19.6820   11.8350  -10.6430 C.3   137  ASP137      0.1450
    169  CG       -18.6690   10.8890  -11.2570 C.2   137  ASP137      0.3671
    170  OD1      -17.5040   10.8870  -10.7960 O.co2 137  ASP137     -0.2456
    171  OD2      -19.0200   10.1520  -12.2060 O.co2 137  ASP137     -0.2456
    172  N        -23.0060   11.6640   -8.9910 N.am  138  PHE138     -0.1974
    173  CA       -23.8150   12.3680   -7.9950 C.3   138  PHE138      0.1639
    174  C        -23.8390   11.6560   -6.6390 C.2   138  PHE138      0.2290
    175  O        -24.2040   12.2530   -5.6240 O.2   138  PHE138     -0.2864
    176  CB       -25.2390   12.6460   -8.5110 C.3   138  PHE138      0.0560
    177  CG       -26.0050   11.4130   -8.9230 C.ar  138  PHE138     -0.0200
    178  CD1      -25.8740   10.8860  -10.2070 C.ar  138  PHE138     -0.0042
    179  CD2      -26.8840   10.7980   -8.0370 C.ar  138  PHE138     -0.0042
    180  CE1      -26.5900    9.7470  -10.5920 C.ar  138  PHE138     -0.0003
    181  CE2      -27.6080    9.6620   -8.4130 C.ar  138  PHE138     -0.0003
    182  CZ       -27.4630    9.1390   -9.6890 C.ar  138  PHE138     -0.0000
@<TRIPOS>BOND
     1   130   129    2
     2   131   129   am
     3   129   128    1
     4   128   125    1
     5   145   144    2
     6   123   120    1
     7   125   124    1
     8   125   126    1
     9   122   121    2
    10   121   124   am
    11   121   120    1
    12   144   143    1
    13   120   119    1
    14   127   126    2
    15   126   132   am
    16   110   109    1
    17   108   109   ar
    18   108   106   ar
    19   143   146    1
    20   143   142    1
    21   119   113   am
    22   146   147    1
    23   109   107   ar
    24   132   133    1
    25   106   104   ar
    26   149   147   am
    27   113   114    2
    28   113   112    1
    29   147   148    2
    30   139   138    2
    31   133   134    1
    32   107   105   ar
    33   104   105   ar
    34   104   103    1
    35   134   135    2
    36   134   136   am
    37   112   111    1
    38   112   115    1
    39   102   101    2
    40    17    15    1
    41   138   137    1
    42     4     3    2
    43   136   137    1
    44   103   100    1
    45     1     2    1
    46   101   111   am
    47   101   100    1
    48   115   116    1
    49   137   140    1
    50   152   153    2
    51   152   151    1
    52   118   117    1
    53     3     2    1
    54     3    10   am
    55   100    99    1
    56    15    16    1
    57    15    14    1
    58   117   116    1
    59   140   141    1
    60     2     5    1
    61    11    10    1
    62    11    14    1
    63    11    12    1
    64     5     6    1
    65   151   154    1
    66   151   150    1
    67    13    12    2
    68    99    92   am
    69    97    96   ar
    70    12    18   am
    71   154   155    1
    72   157   155    1
    73     6     7    1
    74    92    93    2
    75    92    91    1
    76   155   156    1
    77    18    19    1
    78    96    95    1
    79    96    98   ar
    80     7     9   ar
    81     7     8   ar
    82    94    95    1
    83    94    91    1
    84    29    30    1
    85    91    90    1
    86    19    20    1
    87    30    33    1
    88    30    31    1
    89    25    24    2
    90    86    85    2
    91    24    23    1
    92    41    39    1
    93    90    85   am
    94    20    21    2
    95    31    34   am
    96    31    32    2
    97    27    26    1
    98    85    84    1
    99    34    35    1
   100    74    72    1
   101    39    38    1
   102    26    23    1
   103    26    28    1
   104    23    22    1
   105    69    68    1
   106    69    72    1
   107    69    70    1
   108    88    87    1
   109    73    72    1
   110    38    35    1
   111    38    40    1
   112   162   163    1
   113   162   159    1
   114    35    36    1
   115    37    36    2
   116    84    87    1
   117    84    83    1
   118   158   159    1
   119    87    89    1
   120    70    71    2
   121    36    42   am
   122   159   160    1
   123    42    43    1
   124   171   169   ar
   125   160   161    2
   126   160   164   am
   127    43    46    1
   128    43    44    1
   129   164   165    1
   130    78    77    2
   131   169   170   ar
   132   169   168    1
   133    46    47    1
   134   168   165    1
   135   180   178   ar
   136   180   182   ar
   137    44    45    2
   138    77    76    1
   139    67    66    1
   140   165   166    1
   141   178   177   ar
   142    48    47    1
   143    48    49    1
   144   182   181   ar
   145    50    49    1
   146   166   172   am
   147   166   167    2
   148   172   173    1
   149    76    75    1
   150    76    79    1
   151   177   176    1
   152   177   179   ar
   153    66    65    1
   154    81    79    1
   155   176   173    1
   156    79    80    1
   157   181   179   ar
   158    59    57   ar
   159   173   174    1
   160    65    64    1
   161    57    58   ar
   162    57    56    1
   163    64    61    1
   164    63    62    2
   165    80    82    1
   166   174   175    2
   167    56    55    1
   168    61    62    1
   169    61    60    1
   170    55    52    1
   171    54    53    2
   172    53    52    1
   173    52    51    1
