@<TRIPOS>MOLECULE
tmp/3pj2A00.pdb
 166 158 0 0 0
SMALL
GASTEIGER

@<TRIPOS>ATOM
      1  N        -14.1930   -3.8470  -22.4980 N.3    16  LYS16      -0.1231
      2  CA       -13.2450   -2.7430  -22.6920 C.3    16  LYS16       0.1693
      3  C        -13.0640   -1.9200  -21.4200 C.2    16  LYS16       0.2592
      4  O        -13.9990   -1.7770  -20.6360 O.2    16  LYS16      -0.2718
      5  CB       -13.7180   -1.8240  -23.8240 C.3    16  LYS16       0.0285
      6  CG       -13.8160   -2.4900  -25.1890 C.3    16  LYS16       0.0035
      7  CD       -14.4220   -1.5620  -26.2250 C.3    16  LYS16       0.0206
      8  CE       -14.6830   -2.3070  -27.5240 C.3    16  LYS16       0.1093
      9  NZ       -15.1370   -1.3950  -28.6080 N.3    16  LYS16      -0.1314
     10  N        -11.8630   -1.3760  -21.2240 N.am   17  GLU17      -0.1966
     11  CA       -11.5990   -0.4740  -20.1030 C.3    17  GLU17       0.1733
     12  C        -11.9770    0.9600  -20.4790 C.2    17  GLU17       0.2616
     13  O        -11.7010    1.4110  -21.5940 O.2    17  GLU17      -0.2715
     14  CB       -10.1320   -0.5520  -19.6660 C.3    17  GLU17       0.0429
     15  CG        -9.8420    0.1130  -18.3170 C.3    17  GLU17       0.1163
     16  CD        -8.3990   -0.0560  -17.8660 C.2    17  GLU17       0.3649
     17  OE1       -7.9720   -1.2090  -17.6370 O.co2  17  GLU17      -0.2457
     18  OE2       -7.6960    0.9700  -17.7250 O.co2  17  GLU17      -0.2457
     19  N        -12.6110    1.6650  -19.5450 N.am   18  LEU18      -0.1963
     20  CA       -13.1000    3.0220  -19.7910 C.3    18  LEU18       0.1728
     21  C        -12.2990    4.0810  -19.0340 C.2    18  LEU18       0.2616
     22  O        -12.1300    5.2010  -19.5180 O.2    18  LEU18      -0.2715
     23  CB       -14.5890    3.1350  -19.4390 C.3    18  LEU18       0.0311
     24  CG       -15.5990    2.2280  -20.1550 C.3    18  LEU18       0.0022
     25  CD1      -16.9630    2.3160  -19.4840 C.3    18  LEU18       0.0001
     26  CD2      -15.7100    2.5580  -21.6400 C.3    18  LEU18       0.0001
     27  N        -11.8170    3.7220  -17.8460 N.am   19  GLY19      -0.1955
     28  CA       -11.0420    4.6350  -17.0070 C.3    19  GLY19       0.1869
     29  C        -10.5240    3.9740  -15.7430 C.2    19  GLY19       0.2309
     30  O        -11.0920    2.9860  -15.2720 O.2    19  GLY19      -0.2863
     31  N        -13.0560    1.4650  -14.0790 N.3    23  VAL23      -0.1245
     32  CA       -14.3420    1.4040  -14.7760 C.3    23  VAL23       0.1561
     33  C        -14.1830    0.7120  -16.1310 C.2    23  VAL23       0.2260
     34  O        -13.3010    1.0620  -16.9190 O.2    23  VAL23      -0.2867
     35  CB       -14.9760    2.8100  -14.9630 C.3    23  VAL23       0.0252
     36  CG1      -16.4100    2.6920  -15.4770 C.3    23  VAL23       0.0019
     37  CG2      -14.9490    3.6010  -13.6550 C.3    23  VAL23       0.0019
     38  N        -21.7930   -0.3120  -17.6440 N.3    35  ALA35      -0.1245
     39  CA       -20.4800    0.0560  -17.1390 C.3    35  ALA35       0.1562
     40  C        -20.2940   -0.6240  -15.7920 C.2    35  ALA35       0.2260
     41  O        -21.2160   -0.6590  -14.9720 O.2    35  ALA35      -0.2867
     42  CB       -20.3560    1.5510  -17.0010 C.3    35  ALA35       0.0290
     43  N        -17.9710   -0.5570  -12.4710 N.3    37  LYS37      -0.1245
     44  CA       -16.9960    0.1540  -11.6520 C.3    37  LYS37       0.1561
     45  C        -16.4370   -0.7870  -10.5870 C.2    37  LYS37       0.2260
     46  O        -17.1820   -1.3080   -9.7550 O.2    37  LYS37      -0.2867
     47  CB       -17.6380    1.3860  -11.0050 C.3    37  LYS37       0.0271
     48  CG       -16.6480    2.3790  -10.4020 C.3    37  LYS37       0.0035
     49  CD       -17.3600    3.6160   -9.8820 C.3    37  LYS37       0.0206
     50  CE       -16.3730    4.6360   -9.3310 C.3    37  LYS37       0.1093
     51  NZ       -17.0650    5.8630   -8.8440 N.3    37  LYS37      -0.1314
     52  N        -27.5830    6.2210   -4.6990 N.3    56  MET56      -0.1245
     53  CA       -27.9300    5.8420   -6.0710 C.3    56  MET56       0.1570
     54  C        -29.1360    4.9080   -6.1430 C.2    56  MET56       0.2261
     55  O        -29.8360    4.8680   -7.1540 O.2    56  MET56      -0.2867
     56  CB       -26.7280    5.2130   -6.7730 C.3    56  MET56       0.0387
     57  CG       -25.5460    6.1610   -6.9200 C.3    56  MET56       0.0595
     58  SD       -24.3770    5.6300   -8.1760 S.3    56  MET56      -0.1393
     59  CE       -25.3350    5.8650   -9.6760 C.3    56  MET56       0.0692
     60  N        -27.5660    9.2310  -14.4910 N.3    65  VAL65      -0.1245
     61  CA       -26.9640    7.9160  -14.7870 C.3    65  VAL65       0.1561
     62  C        -27.4890    6.8700  -13.7950 C.2    65  VAL65       0.2260
     63  O        -27.3090    7.0040  -12.5800 O.2    65  VAL65      -0.2867
     64  CB       -25.4100    7.9500  -14.7790 C.3    65  VAL65       0.0252
     65  CG1      -24.8390    6.5860  -15.1400 C.3    65  VAL65       0.0019
     66  CG2      -24.8840    9.0020  -15.7550 C.3    65  VAL65       0.0019
     67  N        -19.8000   -2.0050   -8.9980 N.3    79  ILE79      -0.1245
     68  CA       -20.9670   -1.1550   -9.2020 C.3    79  ILE79       0.1561
     69  C        -21.3320   -1.2540  -10.6810 C.2    79  ILE79       0.2260
     70  O        -20.4720   -1.0830  -11.5440 O.2    79  ILE79      -0.2867
     71  CB       -20.6740    0.3260   -8.8260 C.3    79  ILE79       0.0252
     72  CG1      -20.2660    0.4550   -7.3480 C.3    79  ILE79       0.0019
     73  CG2      -21.8610    1.2330   -9.1660 C.3    79  ILE79       0.0019
     74  CD1      -21.3620    0.1090   -6.3460 C.3    79  ILE79       0.0001
     75  N        -23.7880    0.1500  -13.7390 N.3    81  THR81      -0.1203
     76  CA       -24.6690    1.2350  -14.1800 C.3    81  THR81       0.1994
     77  C        -25.0180    1.1330  -15.6660 C.2    81  THR81       0.2618
     78  O        -24.4380    0.3280  -16.4020 O.2    81  THR81      -0.2717
     79  CB       -24.0390    2.6350  -13.9410 C.3    81  THR81       0.1784
     80  OG1      -23.0300    2.8860  -14.9250 O.3    81  THR81      -0.2211
     81  CG2      -23.4340    2.7560  -12.5450 C.3    81  THR81       0.0376
     82  N        -25.9580    1.9700  -16.1030 N.am   82  GLU82      -0.1965
     83  CA       -26.2510    2.1110  -17.5230 C.3    82  GLU82       0.1733
     84  C        -25.0180    2.6230  -18.2590 C.2    82  GLU82       0.2616
     85  O        -24.2300    3.4040  -17.7090 O.2    82  GLU82      -0.2715
     86  CB       -27.4560    3.0270  -17.7590 C.3    82  GLU82       0.0429
     87  CG       -27.1860    4.5060  -17.6850 C.3    82  GLU82       0.1163
     88  CD       -28.4320    5.3260  -17.9490 C.2    82  GLU82       0.3649
     89  OE1      -28.8800    5.3950  -19.1120 O.co2  82  GLU82      -0.2457
     90  OE2      -28.9590    5.9020  -16.9830 O.co2  82  GLU82      -0.2457
     91  N        -24.8430    2.1560  -19.4890 N.am   83  TYR83      -0.1960
     92  CA       -23.6750    2.5150  -20.2760 C.3    83  TYR83       0.1771
     93  C        -23.9640    3.7440  -21.1250 C.2    83  TYR83       0.2619
     94  O        -24.9980    3.8280  -21.7860 O.2    83  TYR83      -0.2715
     95  CB       -23.2170    1.3370  -21.1460 C.3    83  TYR83       0.0574
     96  CG       -22.0040    1.6390  -21.9920 C.ar   83  TYR83      -0.0198
     97  CD1      -20.7820    1.9720  -21.4030 C.ar   83  TYR83      -0.0009
     98  CD2      -22.0760    1.5970  -23.3820 C.ar   83  TYR83      -0.0009
     99  CE1      -19.6660    2.2580  -22.1830 C.ar   83  TYR83       0.0417
    100  CE2      -20.9700    1.8770  -24.1650 C.ar   83  TYR83       0.0417
    101  CZ       -19.7710    2.2080  -23.5610 C.ar   83  TYR83       0.1957
    102  OH       -18.6720    2.4810  -24.3430 O.3    83  TYR83      -0.2866
    103  N        -23.0420    4.6980  -21.0810 N.am   84  MET84      -0.1963
    104  CA       -23.1660    5.9350  -21.8420 C.3    84  MET84       0.1736
    105  C        -22.1180    5.9320  -22.9470 C.2    84  MET84       0.2616
    106  O        -20.9550    6.2600  -22.7130 O.2    84  MET84      -0.2715
    107  CB       -23.0010    7.1380  -20.9090 C.3    84  MET84       0.0427
    108  CG       -23.9230    7.0820  -19.6910 C.3    84  MET84       0.0599
    109  SD       -25.6560    7.3510  -20.1170 S.3    84  MET84      -0.1393
    110  CE       -25.6150    9.0950  -20.5050 C.3    84  MET84       0.0692
    111  N        -22.5430    5.5370  -24.1470 N.am   85  ALA85      -0.1963
    112  CA       -21.6250    5.2240  -25.2550 C.3    85  ALA85       0.1728
    113  C        -20.6940    6.3610  -25.6740 C.2    85  ALA85       0.2616
    114  O        -19.5870    6.1130  -26.1510 O.2    85  ALA85      -0.2715
    115  CB       -22.4040    4.7070  -26.4590 C.3    85  ALA85       0.0334
    116  N        -21.1380    7.6020  -25.4970 N.am   86  ASN86      -0.1958
    117  CA       -20.3530    8.7570  -25.9360 C.3    86  ASN86       0.1819
    118  C        -19.4810    9.3970  -24.8490 C.2    86  ASN86       0.2622
    119  O        -18.8650   10.4460  -25.0680 O.2    86  ASN86      -0.2715
    120  CB       -21.2540    9.7800  -26.6410 C.3    86  ASN86       0.1195
    121  CG       -21.5420    9.4000  -28.0860 C.2    86  ASN86       0.2630
    122  OD1      -20.6250    9.1120  -28.8540 O.2    86  ASN86      -0.2716
    123  ND2      -22.8180    9.3940  -28.4610 N.am   86  ASN86      -0.0877
    124  N        -19.4210    8.7480  -23.6890 N.am   87  GLY87      -0.1940
    125  CA       -18.4910    9.1240  -22.6290 C.3    87  GLY87       0.2014
    126  C        -18.7640   10.4690  -21.9890 C.2    87  GLY87       0.2639
    127  O        -19.9010   10.9390  -21.9610 O.2    87  GLY87      -0.2714
    128  N        -17.7000   11.0820  -21.4860 N.am   88  CYS88      -0.1967
    129  CA       -17.7770   12.3240  -20.7310 C.3    88  CYS88       0.1712
    130  C        -18.2060   13.5080  -21.5970 C.2    88  CYS88       0.2296
    131  O        -17.6820   13.7030  -22.6950 O.2    88  CYS88      -0.2864
    132  CB       -16.4160   12.6020  -20.1030 C.3    88  CYS88       0.0983
    133  SG       -16.3560   14.0930  -19.1380 S.3    88  CYS88      -0.0798
    134  N        -22.3070   12.5670  -18.5100 N.3   135  LEU135     -0.1245
    135  CA       -22.0210   11.5880  -19.5500 C.3   135  LEU135      0.1561
    136  C        -23.0440   11.6860  -20.6790 C.2   135  LEU135      0.2260
    137  O        -24.1200   12.2620  -20.5070 O.2   135  LEU135     -0.2867
    138  CB       -21.9820   10.1660  -18.9690 C.3   135  LEU135      0.0270
    139  CG       -20.8740    9.8370  -17.9610 C.3   135  LEU135      0.0019
    140  CD1      -21.2540    8.6260  -17.1080 C.3   135  LEU135      0.0001
    141  CD2      -19.5260    9.6110  -18.6430 C.3   135  LEU135      0.0001
    142  N        -23.9430   12.5580  -13.5780 N.3   145  SER145     -0.1202
    143  CA       -23.3820   11.4930  -12.7450 C.3   145  SER145      0.2020
    144  C        -22.6880   12.0640  -11.5030 C.2   145  SER145      0.2619
    145  O        -22.7500   13.2720  -11.2490 O.2   145  SER145     -0.2717
    146  CB       -22.4030   10.6390  -13.5590 C.3   145  SER145      0.2103
    147  OG       -21.3380   11.4180  -14.0690 O.3   145  SER145     -0.2182
    148  N        -22.0500   11.1820  -10.7290 N.am  146  ASP146     -0.1959
    149  CA       -21.2230   11.5610   -9.5720 C.3   146  ASP146      0.1840
    150  C        -21.9120   12.4980   -8.5770 C.2   146  ASP146      0.2622
    151  O        -21.2620   13.3660   -7.9870 O.2   146  ASP146     -0.2715
    152  CB       -19.9060   12.1920  -10.0450 C.3   146  ASP146      0.1450
    153  CG       -18.8790   11.1610  -10.4770 C.2   146  ASP146      0.3671
    154  OD1      -19.2660   10.0710  -10.9610 O.co2 146  ASP146     -0.2456
    155  OD2      -17.6710   11.4530  -10.3370 O.co2 146  ASP146     -0.2456
    156  N        -23.2180   12.3200   -8.3870 N.am  147  PHE147     -0.1974
    157  CA       -23.9960   13.2500   -7.5680 C.3   147  PHE147      0.1639
    158  C        -23.7440   13.0880   -6.0710 C.2   147  PHE147      0.2290
    159  O        -23.2830   14.0270   -5.4070 O.2   147  PHE147     -0.2864
    160  CB       -25.4960   13.2060   -7.9120 C.3   147  PHE147      0.0560
    161  CG       -25.9870   11.8640   -8.3880 C.ar  147  PHE147     -0.0200
    162  CD1      -25.9130   11.5190   -9.7350 C.ar  147  PHE147     -0.0042
    163  CD2      -26.5470   10.9570   -7.4950 C.ar  147  PHE147     -0.0042
    164  CE1      -26.3750   10.2820  -10.1800 C.ar  147  PHE147     -0.0003
    165  CE2      -27.0150    9.7190   -7.9330 C.ar  147  PHE147     -0.0003
    166  CZ       -26.9290    9.3830   -9.2750 C.ar  147  PHE147     -0.0000
@<TRIPOS>BOND
     1   122   121    2
     2     9     8    1
     3   123   121   am
     4   121   120    1
     5     8     7    1
     6   120   117    1
     7   115   112    1
     8     7     6    1
     9   114   113    2
    10   117   116    1
    11   117   118    1
    12   113   116   am
    13   113   112    1
    14   112   111    1
    15     6     5    1
    16   119   118    2
    17   118   124   am
    18   102   101    1
    19   100   101   ar
    20   100    98   ar
    21   111   105   am
    22     5     2    1
    23   124   125    1
    24   101    99   ar
    25    98    96   ar
    26   105   106    2
    27   105   104    1
    28   131   130    2
    29     2     1    1
    30     2     3    1
    31   125   126    1
    32    99    97   ar
    33    96    97   ar
    34    96    95    1
    35   126   127    2
    36   126   128   am
    37   104   103    1
    38   104   107    1
    39    94    93    2
    40    26    24    1
    41   130   129    1
    42    13    12    2
    43   128   129    1
    44     3    10   am
    45     3     4    2
    46    10    11    1
    47    95    92    1
    48    93   103   am
    49    93    92    1
    50   107   108    1
    51   129   132    1
    52   136   137    2
    53   136   135    1
    54   110   109    1
    55    12    11    1
    56    12    19   am
    57    92    91    1
    58    24    25    1
    59    24    23    1
    60   109   108    1
    61    11    14    1
    62   132   133    1
    63    20    19    1
    64    20    23    1
    65    20    21    1
    66    14    15    1
    67   135   138    1
    68   135   134    1
    69    22    21    2
    70    91    84   am
    71    89    88   ar
    72    21    27   am
    73   138   139    1
    74   141   139    1
    75    15    16    1
    76    84    85    2
    77    84    83    1
    78   139   140    1
    79    88    87    1
    80    88    90   ar
    81    16    18   ar
    82    16    17   ar
    83    27    28    1
    84    86    87    1
    85    86    83    1
    86    38    39    1
    87    83    82    1
    88    39    42    1
    89    39    40    1
    90    28    29    1
    91    34    33    2
    92    78    77    2
    93    33    32    1
    94    82    77   am
    95    40    41    2
    96    66    64    1
    97    29    30    2
    98    77    76    1
    99    36    35    1
   100    65    64    1
   101    35    32    1
   102    35    37    1
   103    80    79    1
   104    61    64    1
   105    61    60    1
   106    61    62    1
   107    32    31    1
   108    76    79    1
   109    76    75    1
   110   147   146    1
   111    79    81    1
   112    62    63    2
   113   142   143    1
   114   146   143    1
   115   143   144    1
   116    43    44    1
   117    44    47    1
   118    44    45    1
   119    70    69    2
   120   144   145    2
   121   144   148   am
   122    47    48    1
   123   154   153   ar
   124   148   149    1
   125    69    68    1
   126    45    46    2
   127   153   155   ar
   128   153   152    1
   129    48    49    1
   130   164   162   ar
   131   164   166   ar
   132   152   149    1
   133    49    50    1
   134   162   161   ar
   135    59    58    1
   136   149   150    1
   137    50    51    1
   138   166   165   ar
   139    68    67    1
   140    68    71    1
   141    73    71    1
   142    71    72    1
   143   150   156   am
   144   150   151    2
   145   161   160    1
   146   161   163   ar
   147   156   157    1
   148    58    57    1
   149   165   163   ar
   150   160   157    1
   151   157   158    1
   152    72    74    1
   153    55    54    2
   154    57    56    1
   155    56    53    1
   156    54    53    1
   157    53    52    1
   158   158   159    2
