@<TRIPOS>MOLECULE
tmp/3pj3A00.pdb
 201 189 0 0 0
SMALL
GASTEIGER

@<TRIPOS>ATOM
      1  N        -12.4330    1.7790  -19.1650 N.3    18  LEU18      -0.1245
      2  CA       -12.9750    3.0960  -19.5140 C.3    18  LEU18       0.1561
      3  C        -12.2970    4.2520  -18.7760 C.2    18  LEU18       0.2260
      4  O        -12.2180    5.3650  -19.3010 O.2    18  LEU18      -0.2867
      5  CB       -14.4870    3.1400  -19.2610 C.3    18  LEU18       0.0270
      6  CG       -15.4040    2.2240  -20.0780 C.3    18  LEU18       0.0019
      7  CD1      -16.8180    2.2600  -19.5160 C.3    18  LEU18       0.0001
      8  CD2      -15.4000    2.5910  -21.5600 C.3    18  LEU18       0.0001
      9  N        -13.2640    1.8770  -13.6830 N.3    23  VAL23      -0.1245
     10  CA       -14.5200    1.6910  -14.4140 C.3    23  VAL23       0.1561
     11  C        -14.2770    0.9450  -15.7290 C.2    23  VAL23       0.2260
     12  O        -13.3970    1.3170  -16.5110 O.2    23  VAL23      -0.2867
     13  CB       -15.2420    3.0400  -14.6980 C.3    23  VAL23       0.0252
     14  CG1      -16.6340    2.7970  -15.2890 C.3    23  VAL23       0.0019
     15  CG2      -15.3480    3.8750  -13.4320 C.3    23  VAL23       0.0019
     16  N        -21.6820   -0.1950  -17.5340 N.3    35  ALA35      -0.1245
     17  CA       -20.3950    0.2130  -16.9910 C.3    35  ALA35       0.1562
     18  C        -20.2660   -0.3680  -15.5880 C.2    35  ALA35       0.2260
     19  O        -21.2400   -0.4100  -14.8320 O.2    35  ALA35      -0.2867
     20  CB       -20.2710    1.7190  -16.9630 C.3    35  ALA35       0.0290
     21  N        -17.9980   -0.2640  -12.0260 N.3    37  LYS37      -0.1245
     22  CA       -17.0420    0.4730  -11.2000 C.3    37  LYS37       0.1561
     23  C        -16.4920   -0.3990  -10.0760 C.2    37  LYS37       0.2260
     24  O        -17.2390   -0.8340   -9.1950 O.2    37  LYS37      -0.2867
     25  CB       -17.6990    1.7270  -10.6110 C.3    37  LYS37       0.0271
     26  CG       -16.7320    2.7500  -10.0290 C.3    37  LYS37       0.0035
     27  CD       -17.4690    4.0060   -9.5930 C.3    37  LYS37       0.0206
     28  CE       -16.5190    5.1750   -9.4150 C.3    37  LYS37       0.1093
     29  NZ       -17.2150    6.3760   -8.8750 N.3    37  LYS37      -0.1314
     30  N        -22.2220    5.6780   -2.1610 N.3    45  GLU45      -0.1245
     31  CA       -22.6770    6.1390   -3.4750 C.3    45  GLU45       0.1567
     32  C        -23.8700    5.3210   -3.9780 C.2    45  GLU45       0.2260
     33  O        -24.8580    5.8830   -4.4470 O.2    45  GLU45      -0.2867
     34  CB       -21.5300    6.1010   -4.4960 C.3    45  GLU45       0.0388
     35  CG       -21.8730    6.7570   -5.8380 C.3    45  GLU45       0.1160
     36  CD       -20.8100    6.5620   -6.9100 C.2    45  GLU45       0.3649
     37  OE1      -19.9520    5.6650   -6.7700 O.co2  45  GLU45      -0.2457
     38  OE2      -20.8420    7.3090   -7.9090 O.co2  45  GLU45      -0.2457
     39  N        -27.2220    6.0980   -2.1250 N.3    48  VAL48      -0.1231
     40  CA       -27.7630    7.3300   -2.7040 C.3    48  VAL48       0.1692
     41  C        -28.4550    7.0330   -4.0420 C.2    48  VAL48       0.2591
     42  O        -29.5730    7.4890   -4.2910 O.2    48  VAL48      -0.2718
     43  CB       -26.6340    8.3840   -2.8940 C.3    48  VAL48       0.0266
     44  CG1      -27.0860    9.5380   -3.7790 C.3    48  VAL48       0.0020
     45  CG2      -26.1500    8.9000   -1.5450 C.3    48  VAL48       0.0020
     46  N        -27.7910    6.2420   -4.8810 N.am   49  MET49      -0.1979
     47  CA       -28.2900    5.9180   -6.2220 C.3    49  MET49       0.1605
     48  C        -29.5060    4.9910   -6.2320 C.2    49  MET49       0.2287
     49  O        -30.3150    5.0380   -7.1630 O.2    49  MET49      -0.2864
     50  CB       -27.1680    5.3400   -7.0840 C.3    49  MET49       0.0413
     51  CG       -26.0800    6.3500   -7.4070 C.3    49  MET49       0.0598
     52  SD       -24.7420    5.6650   -8.3820 S.3    49  MET49      -0.1393
     53  CE       -25.5050    5.5910  -10.0070 C.3    49  MET49       0.0692
     54  N        -32.5260    7.3640   -6.0410 N.3    52  LEU52      -0.1245
     55  CA       -32.7160    8.3750   -7.0710 C.3    52  LEU52       0.1561
     56  C        -32.8420    7.7170   -8.4340 C.2    52  LEU52       0.2260
     57  O        -32.0030    6.8950   -8.8080 O.2    52  LEU52      -0.2867
     58  CB       -31.5530    9.3720   -7.0680 C.3    52  LEU52       0.0270
     59  CG       -31.3180   10.2230   -5.8130 C.3    52  LEU52       0.0019
     60  CD1      -29.9680   10.9050   -5.8970 C.3    52  LEU52       0.0001
     61  CD2      -32.4340   11.2540   -5.5970 C.3    52  LEU52       0.0001
     62  N        -30.5010   11.0260  -15.3140 N.3    57  LEU57      -0.1231
     63  CA       -29.5460   10.7080  -14.2690 C.3    57  LEU57       0.1693
     64  C        -28.9880    9.3240  -14.6040 C.2    57  LEU57       0.2591
     65  O        -29.7600    8.4000  -14.8990 O.2    57  LEU57      -0.2718
     66  CB       -30.2910   10.6580  -12.9340 C.3    57  LEU57       0.0284
     67  CG       -29.8930   11.4580  -11.6960 C.3    57  LEU57       0.0019
     68  CD1      -29.4760   12.8830  -12.0200 C.3    57  LEU57       0.0001
     69  CD2      -31.0560   11.4520  -10.7030 C.3    57  LEU57       0.0001
     70  N        -27.6640    9.1730  -14.5750 N.am   58  VAL58      -0.1980
     71  CA       -27.0460    7.8660  -14.8610 C.3    58  VAL58       0.1595
     72  C        -27.6130    6.8060  -13.9120 C.2    58  VAL58       0.2287
     73  O        -27.4870    6.9300  -12.6900 O.2    58  VAL58      -0.2864
     74  CB       -25.4990    7.9070  -14.7860 C.3    58  VAL58       0.0276
     75  CG1      -24.9100    6.5150  -15.0070 C.3    58  VAL58       0.0022
     76  CG2      -24.9460    8.8670  -15.8300 C.3    58  VAL58       0.0022
     77  N        -19.9650   -1.6700   -8.6420 N.3    72  ILE72      -0.1245
     78  CA       -21.1830   -0.8880   -8.8590 C.3    72  ILE72       0.1561
     79  C        -21.4530   -0.8680  -10.3630 C.2    72  ILE72       0.2260
     80  O        -20.5630   -0.5470  -11.1520 O.2    72  ILE72      -0.2867
     81  CB       -21.0700    0.5600   -8.3200 C.3    72  ILE72       0.0252
     82  CG1      -20.7490    0.5620   -6.8210 C.3    72  ILE72       0.0019
     83  CG2      -22.3640    1.3280   -8.5800 C.3    72  ILE72       0.0019
     84  CD1      -20.4810    1.9440   -6.2440 C.3    72  ILE72       0.0001
     85  N        -23.8020    0.3490  -13.6920 N.3    74  THR74      -0.1203
     86  CA       -24.7590    1.3060  -14.2540 C.3    74  THR74       0.1994
     87  C        -24.9990    1.0850  -15.7410 C.2    74  THR74       0.2618
     88  O        -24.2820    0.3210  -16.3950 O.2    74  THR74      -0.2717
     89  CB       -24.2970    2.7830  -14.0810 C.3    74  THR74       0.1784
     90  OG1      -23.1240    3.0260  -14.8700 O.3    74  THR74      -0.2211
     91  CG2      -24.0310    3.1170  -12.6250 C.3    74  THR74       0.0376
     92  N        -26.0030    1.7810  -16.2680 N.am   75  GLU75      -0.1965
     93  CA       -26.1940    1.9020  -17.7080 C.3    75  GLU75       0.1733
     94  C        -24.9140    2.4320  -18.3550 C.2    75  GLU75       0.2616
     95  O        -24.1500    3.1770  -17.7250 O.2    75  GLU75      -0.2715
     96  CB       -27.3740    2.8290  -18.0270 C.3    75  GLU75       0.0429
     97  CG       -27.2120    4.2780  -17.5690 C.3    75  GLU75       0.1163
     98  CD       -28.3600    5.1700  -18.0030 C.2    75  GLU75       0.3649
     99  OE1      -28.6890    5.1930  -19.2070 O.co2  75  GLU75      -0.2457
    100  OE2      -28.9320    5.8590  -17.1360 O.co2  75  GLU75      -0.2457
    101  N        -24.6780    2.0260  -19.5990 N.am   76  TYR76      -0.1960
    102  CA       -23.4880    2.4380  -20.3350 C.3    76  TYR76       0.1771
    103  C        -23.8080    3.6230  -21.2360 C.2    76  TYR76       0.2619
    104  O        -24.7610    3.5830  -22.0200 O.2    76  TYR76      -0.2715
    105  CB       -22.9210    1.2750  -21.1590 C.3    76  TYR76       0.0574
    106  CG       -21.7350    1.6490  -22.0240 C.ar   76  TYR76      -0.0198
    107  CD1      -20.5070    1.9870  -21.4550 C.ar   76  TYR76      -0.0009
    108  CD2      -21.8440    1.6740  -23.4110 C.ar   76  TYR76      -0.0009
    109  CE1      -19.4150    2.3310  -22.2520 C.ar   76  TYR76       0.0417
    110  CE2      -20.7640    2.0160  -24.2130 C.ar   76  TYR76       0.0417
    111  CZ       -19.5560    2.3450  -23.6290 C.ar   76  TYR76       0.1957
    112  OH       -18.4890    2.6860  -24.4300 O.3    76  TYR76      -0.2866
    113  N        -23.0010    4.6710  -21.1070 N.am   77  MET77      -0.1963
    114  CA       -23.1590    5.8880  -21.8980 C.3    77  MET77       0.1736
    115  C        -22.1320    5.9110  -23.0250 C.2    77  MET77       0.2616
    116  O        -20.9800    6.2960  -22.8360 O.2    77  MET77      -0.2715
    117  CB       -23.0520    7.1190  -20.9970 C.3    77  MET77       0.0427
    118  CG       -24.0340    7.0880  -19.8190 C.3    77  MET77       0.0599
    119  SD       -25.7500    7.3060  -20.3270 S.3    77  MET77      -0.1393
    120  CE       -25.7320    9.0610  -20.7130 C.3    77  MET77       0.0692
    121  N        -22.5720    5.4840  -24.2020 N.am   78  ALA78      -0.1963
    122  CA       -21.6870    5.2310  -25.3490 C.3    78  ALA78       0.1728
    123  C        -20.7530    6.3770  -25.7540 C.2    78  ALA78       0.2616
    124  O        -19.6380    6.1300  -26.2090 O.2    78  ALA78      -0.2715
    125  CB       -22.5060    4.7560  -26.5460 C.3    78  ALA78       0.0334
    126  N        -21.1990    7.6210  -25.5890 N.am   79  ASN79      -0.1958
    127  CA       -20.4110    8.7740  -26.0330 C.3    79  ASN79       0.1819
    128  C        -19.5420    9.4230  -24.9540 C.2    79  ASN79       0.2622
    129  O        -18.9400   10.4740  -25.1850 O.2    79  ASN79      -0.2715
    130  CB       -21.3000    9.8050  -26.7360 C.3    79  ASN79       0.1195
    131  CG       -21.5480    9.4550  -28.1940 C.2    79  ASN79       0.2630
    132  OD1      -20.6090    9.1960  -28.9520 O.2    79  ASN79      -0.2716
    133  ND2      -22.8110    9.4440  -28.5930 N.am   79  ASN79      -0.0877
    134  N        -19.4810    8.7840  -23.7860 N.am   80  GLY80      -0.1940
    135  CA       -18.5570    9.1750  -22.7330 C.3    80  GLY80       0.2014
    136  C        -18.8820   10.4970  -22.0650 C.2    80  GLY80       0.2639
    137  O        -20.0440   10.8900  -21.9610 O.2    80  GLY80      -0.2714
    138  N        -17.8290   11.1790  -21.6290 N.am   81  CYS81      -0.1967
    139  CA       -17.9250   12.3950  -20.8400 C.3    81  CYS81       0.1712
    140  C        -18.3480   13.5910  -21.6960 C.2    81  CYS81       0.2296
    141  O        -17.8180   13.7850  -22.7950 O.2    81  CYS81      -0.2864
    142  CB       -16.5640   12.6580  -20.1990 C.3    81  CYS81       0.0983
    143  SG       -16.4540   14.1860  -19.3100 S.3    81  CYS81      -0.0798
    144  N        -33.4760   16.4480   -8.8000 N.3   112  LEU112     -0.1245
    145  CA       -32.6540   16.4730   -7.5820 C.3   112  LEU112      0.1561
    146  C        -33.1310   17.5360   -6.5850 C.2   112  LEU112      0.2260
    147  O        -33.2700   17.2600   -5.3870 O.2   112  LEU112     -0.2867
    148  CB       -31.1650   16.6490   -7.9160 C.3   112  LEU112      0.0270
    149  CG       -30.4950   15.5020   -8.6850 C.3   112  LEU112      0.0019
    150  CD1      -29.0020   15.7760   -8.8950 C.3   112  LEU112      0.0001
    151  CD2      -30.6980   14.1570   -7.9810 C.3   112  LEU112      0.0001
    152  N        -31.8380   17.1770   -2.7540 N.3   117  PHE117     -0.1241
    153  CA       -30.5150   16.5850   -2.8790 C.3   117  PHE117      0.1605
    154  C        -29.5840   17.5330   -3.6300 C.2   117  PHE117      0.2264
    155  O        -29.9190   18.0100   -4.7200 O.2   117  PHE117     -0.2867
    156  CB       -30.6020   15.2330   -3.6030 C.3   117  PHE117      0.0534
    157  CG       -29.2870   14.5070   -3.6990 C.ar  117  PHE117     -0.0203
    158  CD1      -28.9360   13.5560   -2.7480 C.ar  117  PHE117     -0.0042
    159  CD2      -28.4020   14.7730   -4.7410 C.ar  117  PHE117     -0.0042
    160  CE1      -27.7190   12.8870   -2.8260 C.ar  117  PHE117     -0.0003
    161  CE2      -27.1840   14.1060   -4.8280 C.ar  117  PHE117     -0.0003
    162  CZ       -26.8420   13.1630   -3.8690 C.ar  117  PHE117     -0.0000
    163  N        -26.0770   18.2290   -5.6110 N.3   119  HIS119     -0.1241
    164  CA       -25.0430   17.5510   -6.3840 C.3   119  HIS119      0.1621
    165  C        -23.6460   17.9190   -5.8730 C.2   119  HIS119      0.2264
    166  O        -22.8420   17.0370   -5.5630 O.2   119  HIS119     -0.2867
    167  CB       -25.1740   17.8620   -7.8780 C.3   119  HIS119      0.0745
    168  CG       -24.2970   17.0120   -8.7430 C.ar  119  HIS119      0.0817
    169  ND1      -22.9450   17.2420   -8.8830 N.ar  119  HIS119     -0.2268
    170  CD2      -24.5710   15.9140   -9.4880 C.ar  119  HIS119      0.1154
    171  CE1      -22.4270   16.3320   -9.6880 C.ar  119  HIS119      0.1986
    172  NE2      -23.3930   15.5180  -10.0750 N.ar  119  HIS119     -0.2212
    173  N        -22.4190   12.5630  -18.6090 N.3   128  LEU128     -0.1245
    174  CA       -22.1550   11.5650  -19.6390 C.3   128  LEU128      0.1561
    175  C        -23.1580   11.6910  -20.7870 C.2   128  LEU128      0.2260
    176  O        -24.2320   12.2670  -20.6230 O.2   128  LEU128     -0.2867
    177  CB       -22.1860   10.1530  -19.0370 C.3   128  LEU128      0.0270
    178  CG       -21.1460    9.8190  -17.9640 C.3   128  LEU128      0.0019
    179  CD1      -21.4460    8.4670  -17.3360 C.3   128  LEU128      0.0001
    180  CD2      -19.7230    9.8470  -18.5320 C.3   128  LEU128      0.0001
    181  N        -26.6390   13.4430  -15.9440 N.3   137  VAL137     -0.1231
    182  CA       -25.8040   13.8280  -14.8110 C.3   137  VAL137      0.1692
    183  C        -25.2520   12.5880  -14.1080 C.2   137  VAL137      0.2593
    184  O        -25.9850   11.6360  -13.8210 O.2   137  VAL137     -0.2718
    185  CB       -26.5760   14.7520  -13.8270 C.3   137  VAL137      0.0266
    186  CG1      -25.7810   15.0000  -12.5570 C.3   137  VAL137      0.0020
    187  CG2      -26.9210   16.0810  -14.5050 C.3   137  VAL137      0.0020
    188  N        -23.9480   12.6120  -13.8580 N.am  138  SER138     -0.1938
    189  CA       -23.2570   11.5290  -13.1750 C.3   138  SER138      0.2055
    190  C        -22.3860   12.0800  -12.0470 C.2   138  SER138      0.2643
    191  O        -22.6510   13.1630  -11.5180 O.2   138  SER138     -0.2714
    192  CB       -22.4000   10.7520  -14.1740 C.3   138  SER138      0.2130
    193  OG       -21.8990    9.5590  -13.5990 O.3   138  SER138     -0.2179
    194  N        -21.3550   11.3140  -11.6870 N.am  139  ASP139     -0.1971
    195  CA       -20.3410   11.7140  -10.7150 C.3   139  ASP139      0.1709
    196  C        -19.0320   10.9660  -10.9620 C.2   139  ASP139      0.2293
    197  O        -17.9420   11.5470  -10.8830 O.2   139  ASP139     -0.2864
    198  CB       -20.8270   11.4450   -9.2930 C.3   139  ASP139      0.1436
    199  CG       -21.6800   12.5620   -8.7550 C.2   139  ASP139      0.3671
    200  OD1      -22.8850   12.3320   -8.5200 O.co2 139  ASP139     -0.2456
    201  OD2      -21.1490   13.6770   -8.5790 O.co2 139  ASP139     -0.2456
@<TRIPOS>BOND
     1   132   131    2
     2   133   131   am
     3   131   130    1
     4   130   127    1
     5   125   122    1
     6   124   123    2
     7   127   126    1
     8   127   128    1
     9   123   126   am
    10   123   122    1
    11   122   121    1
    12   129   128    2
    13   128   134   am
    14   112   111    1
    15   110   111   ar
    16   110   108   ar
    17   121   115   am
    18   134   135    1
    19   111   109   ar
    20   108   106   ar
    21   115   116    2
    22   115   114    1
    23   141   140    2
    24   135   136    1
    25   109   107   ar
    26   136   137    2
    27   136   138   am
    28   106   107   ar
    29   106   105    1
    30   104   103    2
    31   114   113    1
    32   114   117    1
    33   140   139    1
    34   138   139    1
    35     8     6    1
    36   103   113   am
    37   103   102    1
    38   105   102    1
    39   117   118    1
    40   139   142    1
    41   175   176    2
    42   175   174    1
    43   120   119    1
    44   102   101    1
    45   119   118    1
    46   142   143    1
    47     6     7    1
    48     6     5    1
    49   174   177    1
    50   174   173    1
    51   101    94   am
    52     2     5    1
    53     2     1    1
    54     2     3    1
    55     4     3    2
    56    99    98   ar
    57   177   178    1
    58   180   178    1
    59    94    95    2
    60    94    93    1
    61    96    93    1
    62    96    97    1
    63    98    97    1
    64    98   100   ar
    65   178   179    1
    66    93    92    1
    67    16    17    1
    68    17    20    1
    69    17    18    1
    70    12    11    2
    71    88    87    2
    72    92    87   am
    73   181   182    1
    74    76    74    1
    75    87    86    1
    76    11    10    1
    77    18    19    2
    78    62    63    1
    79    14    13    1
    80    75    74    1
    81    65    64    2
    82    90    89    1
    83    71    74    1
    84    71    70    1
    85    71    72    1
    86   182   183    1
    87   182   185    1
    88    13    10    1
    89    13    15    1
    90    64    70   am
    91    64    63    1
    92   187   185    1
    93    10     9    1
    94    63    66    1
    95    86    89    1
    96    86    85    1
    97   192   193    1
    98   192   189    1
    99   183   188   am
   100   183   184    2
   101    89    91    1
   102    72    73    2
   103   188   189    1
   104   185   186    1
   105   189   190    1
   106    66    67    1
   107   190   194   am
   108   190   191    2
   109    21    22    1
   110    68    67    1
   111    67    69    1
   112   194   195    1
   113    22    25    1
   114    22    23    1
   115    80    79    2
   116   196   197    2
   117   196   195    1
   118   195   198    1
   119    25    26    1
   120    79    78    1
   121    23    24    2
   122   172   171   ar
   123   172   170   ar
   124    26    27    1
   125    53    52    1
   126   171   169   ar
   127    27    28    1
   128   170   168   ar
   129    28    29    1
   130   198   199    1
   131   150   149    1
   132   169   168   ar
   133    78    77    1
   134    78    81    1
   135    57    56    2
   136   144   145    1
   137   199   201   ar
   138   199   200   ar
   139   168   167    1
   140   149   151    1
   141   149   148    1
   142    83    81    1
   143    56    55    1
   144    52    51    1
   145    81    82    1
   146   148   145    1
   147    38    36   ar
   148   167   164    1
   149   145   146    1
   150    51    50    1
   151    49    48    2
   152    50    47    1
   153    55    58    1
   154    55    54    1
   155    58    59    1
   156    36    37   ar
   157    36    35    1
   158    82    84    1
   159   146   147    2
   160   164   165    1
   161   164   163    1
   162    48    47    1
   163    47    46    1
   164    60    59    1
   165   165   166    2
   166    35    34    1
   167    59    61    1
   168    46    41   am
   169   161   159   ar
   170   161   162   ar
   171   159   157   ar
   172   155   154    2
   173    34    31    1
   174    33    32    2
   175    42    41    2
   176    41    40    1
   177    32    31    1
   178   162   160   ar
   179    44    43    1
   180   157   156    1
   181   157   158   ar
   182   154   153    1
   183   156   153    1
   184    31    30    1
   185    43    40    1
   186    43    45    1
   187   153   152    1
   188   160   158   ar
   189    40    39    1
