@<TRIPOS>MOLECULE
tmp/3pj8A00.pdb
 184 177 0 0 0
SMALL
GASTEIGER

@<TRIPOS>ATOM
      1  N         14.1980   20.6000   -7.4220 N.3     9  GLU9       -0.1231
      2  CA        13.8840   19.8800   -6.1970 C.3     9  GLU9        0.1699
      3  C         14.4510   18.4630   -6.2410 C.2     9  GLU9        0.2592
      4  O         14.6760   17.8980   -7.3150 O.2     9  GLU9       -0.2718
      5  CB        12.3700   19.8350   -5.9740 C.3     9  GLU9        0.0402
      6  CG        11.6110   18.9850   -6.9860 C.3     9  GLU9        0.1161
      7  CD        10.1110   19.0410   -6.7850 C.2     9  GLU9        0.3649
      8  OE1        9.5770   20.1590   -6.6220 O.co2   9  GLU9       -0.2457
      9  OE2        9.4670   17.9690   -6.7830 O.co2   9  GLU9       -0.2457
     10  N         14.6800   17.8880   -5.0680 N.am   10  LYS10      -0.1966
     11  CA        15.1260   16.5040   -4.9900 C.3    10  LYS10       0.1728
     12  C         13.9870   15.5460   -5.3430 C.2    10  LYS10       0.2616
     13  O         12.9000   15.6170   -4.7670 O.2    10  LYS10      -0.2715
     14  CB        15.6690   16.1900   -3.5980 C.3    10  LYS10       0.0311
     15  CG        16.4070   14.8680   -3.5220 C.3    10  LYS10       0.0038
     16  CD        16.9390   14.6020   -2.1270 C.3    10  LYS10       0.0206
     17  CE        17.6570   13.2620   -2.0690 C.3    10  LYS10       0.1093
     18  NZ        17.8490   12.7720   -0.6720 N.3    10  LYS10      -0.1314
     19  N         14.2410   14.6630   -6.3020 N.am   11  ILE11      -0.1963
     20  CA        13.2670   13.6590   -6.6990 C.3    11  ILE11       0.1727
     21  C         13.3550   12.4400   -5.7890 C.2    11  ILE11       0.2617
     22  O         12.3360   11.8670   -5.3900 O.2    11  ILE11      -0.2715
     23  CB        13.4880   13.2290   -8.1510 C.3    11  ILE11       0.0290
     24  CG1       13.0340   14.3470   -9.0910 C.3    11  ILE11       0.0022
     25  CG2       12.7380   11.9380   -8.4480 C.3    11  ILE11       0.0023
     26  CD1       13.2810   14.0760  -10.5570 C.3    11  ILE11       0.0001
     27  N         14.5790   12.0410   -5.4590 N.am   12  GLY12      -0.1940
     28  CA        14.7800   10.9040   -4.5850 C.3    12  GLY12       0.2014
     29  C         16.1630   10.2970   -4.6800 C.2    12  GLY12       0.2639
     30  O         17.0110   10.7500   -5.4490 O.2    12  GLY12      -0.2714
     31  N         16.3900    9.2600   -3.8850 N.am   13  GLU13      -0.1963
     32  CA        17.6640    8.5610   -3.8840 C.3    13  GLU13       0.1733
     33  C         17.5920    7.3450   -4.8030 C.2    13  GLU13       0.2616
     34  O         16.8570    6.3900   -4.5380 O.2    13  GLU13      -0.2715
     35  CB        18.0390    8.1400   -2.4610 C.3    13  GLU13       0.0429
     36  CG        19.4490    7.5840   -2.3220 C.3    13  GLU13       0.1163
     37  CD        20.5280    8.6460   -2.4790 C.2    13  GLU13       0.3649
     38  OE1       20.2750    9.8180   -2.1180 O.co2  13  GLU13      -0.2457
     39  OE2       21.6300    8.3040   -2.9630 O.co2  13  GLU13      -0.2457
     40  N         18.3420    7.3980   -5.8990 N.am   14  GLY14      -0.1955
     41  CA        18.4290    6.2810   -6.8190 C.3    14  GLY14       0.1869
     42  C         19.3940    5.2270   -6.3000 C.2    14  GLY14       0.2309
     43  O         19.9720    5.3780   -5.2210 O.2    14  GLY14      -0.2863
     44  N         18.8890   11.8230   -7.3250 N.3    19  VAL19      -0.1245
     45  CA        18.2470   12.3590   -8.5140 C.3    19  VAL19       0.1561
     46  C         17.4810   13.6250   -8.1750 C.2    19  VAL19       0.2260
     47  O         16.7130   13.6580   -7.2100 O.2    19  VAL19      -0.2867
     48  CB        17.2840   11.3400   -9.1540 C.3    19  VAL19       0.0252
     49  CG1       16.6550   11.9350  -10.4030 C.3    19  VAL19       0.0019
     50  CG2       18.0150   10.0480   -9.4810 C.3    19  VAL19       0.0019
     51  N         15.0840   16.9450   -9.8350 N.3    21  LYS21      -0.1245
     52  CA        14.4230   17.6110  -10.9440 C.3    21  LYS21       0.1561
     53  C         15.1780   18.9140  -11.1680 C.2    21  LYS21       0.2260
     54  O         15.5310   19.6080  -10.2110 O.2    21  LYS21      -0.2867
     55  CB        12.9460   17.8630  -10.6300 C.3    21  LYS21       0.0271
     56  CG        12.1880   18.5780  -11.7380 C.3    21  LYS21       0.0035
     57  CD        10.7510   18.8480  -11.2870 C.3    21  LYS21       0.0206
     58  CE         9.8880   19.3240  -12.4320 C.3    21  LYS21       0.1093
     59  NZ         8.4540   19.4250  -12.0130 N.3    21  LYS21      -0.1314
     60  N         15.6240   15.1930  -15.3690 N.3    32  ALA32      -0.1245
     61  CA        15.9530   14.4990  -14.1340 C.3    32  ALA32       0.1562
     62  C         17.4630   14.2790  -14.1440 C.2    32  ALA32       0.2260
     63  O         17.9840   13.5490  -14.9860 O.2    32  ALA32      -0.2867
     64  CB        15.2290   13.1740  -14.0600 C.3    32  ALA32       0.0290
     65  N         20.9980   13.0340  -12.5150 N.3    34  LYS34      -0.1245
     66  CA        21.4910   12.0150  -11.6020 C.3    34  LYS34       0.1561
     67  C         22.9990   12.1470  -11.3970 C.2    34  LYS34       0.2260
     68  O         23.7560   12.1200  -12.3540 O.2    34  LYS34      -0.2867
     69  CB        21.1580   10.6290  -12.1610 C.3    34  LYS34       0.0271
     70  CG        21.4310    9.4820  -11.2070 C.3    34  LYS34       0.0035
     71  CD        21.1990    8.1410  -11.8970 C.3    34  LYS34       0.0206
     72  CE        21.1690    7.0030  -10.8960 C.3    34  LYS34       0.1093
     73  NZ        20.0220    7.1210   -9.9550 N.3    34  LYS34      -0.1314
     74  N         13.0250    5.2500  -20.4690 N.3    62  VAL62      -0.1245
     75  CA        13.3010    6.6430  -20.1200 C.3    62  VAL62       0.1561
     76  C         14.5290    7.0960  -20.8850 C.2    62  VAL62       0.2260
     77  O         15.5750    6.4610  -20.8090 O.2    62  VAL62      -0.2867
     78  CB        13.5510    6.8390  -18.6020 C.3    62  VAL62       0.0252
     79  CG1       13.8800    8.3000  -18.2940 C.3    62  VAL62       0.0019
     80  CG2       12.3290    6.4270  -17.8120 C.3    62  VAL62       0.0019
     81  N         18.5310   12.7050  -17.6190 N.3    78  PHE78      -0.1227
     82  CA        17.4480   11.8680  -18.1030 C.3    78  PHE78       0.1736
     83  C         16.1890   12.6860  -18.3890 C.2    78  PHE78       0.2595
     84  O         15.9920   13.7580  -17.8280 O.2    78  PHE78      -0.2718
     85  CB        17.1060   10.8070  -17.0490 C.3    78  PHE78       0.0547
     86  CG        18.0910    9.6760  -16.9650 C.ar   78  PHE78      -0.0202
     87  CD1       18.0540    8.6400  -17.8860 C.ar   78  PHE78      -0.0042
     88  CD2       19.0230    9.6270  -15.9460 C.ar   78  PHE78      -0.0042
     89  CE1       18.9410    7.5800  -17.8030 C.ar   78  PHE78      -0.0003
     90  CE2       19.9100    8.5710  -15.8470 C.ar   78  PHE78      -0.0003
     91  CZ        19.8740    7.5400  -16.7730 C.ar   78  PHE78      -0.0000
     92  N         15.3360   12.1570  -19.2570 N.am   79  GLU79      -0.1965
     93  CA        13.9740   12.6480  -19.4120 C.3    79  GLU79       0.1733
     94  C         13.2800   12.6620  -18.0420 C.2    79  GLU79       0.2616
     95  O         13.5090   11.7940  -17.2120 O.2    79  GLU79      -0.2715
     96  CB        13.2340   11.7360  -20.4060 C.3    79  GLU79       0.0429
     97  CG        11.7090   11.8210  -20.4230 C.3    79  GLU79       0.1163
     98  CD        11.0940   10.7030  -21.2660 C.2    79  GLU79       0.3649
     99  OE1        9.9010   10.7910  -21.6070 O.co2  79  GLU79      -0.2457
    100  OE2       11.8070    9.7200  -21.5750 O.co2  79  GLU79      -0.2457
    101  N         12.4430   13.6620  -17.7960 N.am   80  PHE80      -0.1960
    102  CA        11.6840   13.7330  -16.5420 C.3    80  PHE80       0.1771
    103  C         10.2560   13.2450  -16.7500 C.2    80  PHE80       0.2619
    104  O          9.6280   13.6200  -17.7290 O.2    80  PHE80      -0.2715
    105  CB        11.6520   15.1940  -16.0470 C.3    80  PHE80       0.0574
    106  CG        10.7620   15.4120  -14.8610 C.ar   80  PHE80      -0.0200
    107  CD1       11.2200   15.1580  -13.5840 C.ar   80  PHE80      -0.0042
    108  CD2        9.4620   15.8550  -15.0280 C.ar   80  PHE80      -0.0042
    109  CE1       10.4120   15.3560  -12.4870 C.ar   80  PHE80      -0.0003
    110  CE2        8.6360   16.0530  -13.9400 C.ar   80  PHE80      -0.0003
    111  CZ         9.1150   15.7970  -12.6590 C.ar   80  PHE80      -0.0000
    112  N          9.7540   12.4100  -15.8350 N.am   81  LEU81      -0.1963
    113  CA         8.3430   12.0010  -15.8120 C.3    81  LEU81       0.1728
    114  C          7.7750   12.3580  -14.4380 C.2    81  LEU81       0.2616
    115  O          8.5150   12.4300  -13.4550 O.2    81  LEU81      -0.2715
    116  CB         8.1670   10.4990  -16.0900 C.3    81  LEU81       0.0311
    117  CG         8.5260   10.0910  -17.5190 C.3    81  LEU81       0.0022
    118  CD1        9.9770    9.6640  -17.6060 C.3    81  LEU81       0.0001
    119  CD2        7.6030    8.9950  -18.0610 C.3    81  LEU81       0.0001
    120  N          6.4700   12.5890  -14.3610 N.am   82  HIS82      -0.1959
    121  CA         5.9080   13.2010  -13.1500 C.3    82  HIS82       0.1787
    122  C          5.6040   12.2610  -11.9710 C.2    82  HIS82       0.2620
    123  O          5.3280   12.7110  -10.8570 O.2    82  HIS82      -0.2715
    124  CB         4.6850   14.0520  -13.4970 C.3    82  HIS82       0.0785
    125  CG         5.0270   15.3100  -14.2360 C.ar   82  HIS82       0.0821
    126  ND1        5.4320   15.3120  -15.5530 N.ar   82  HIS82      -0.2267
    127  CD2        5.0320   16.6050  -13.8360 C.ar   82  HIS82       0.1154
    128  CE1        5.6670   16.5550  -15.9380 C.ar   82  HIS82       0.1986
    129  NE2        5.4280   17.3610  -14.9160 N.ar   82  HIS82      -0.2212
    130  N          5.6620   10.9600  -12.1980 N.am   83  GLN83      -0.1963
    131  CA         5.2880   10.0510  -11.1310 C.3    83  GLN83       0.1733
    132  C          5.7940    8.6440  -11.3770 C.2    83  GLN83       0.2616
    133  O          6.0270    8.2350  -12.5200 O.2    83  GLN83      -0.2715
    134  CB         3.7630   10.0750  -10.9050 C.3    83  GLN83       0.0408
    135  CG         3.2880    9.2100   -9.7230 C.3    83  GLN83       0.0908
    136  CD         1.9190    9.6240   -9.2020 C.2    83  GLN83       0.2608
    137  OE1        1.6710   10.8010   -8.9270 O.2    83  GLN83      -0.2717
    138  NE2        1.0260    8.6610   -9.0690 N.am   83  GLN83      -0.0878
    139  N          5.9850    7.9020  -10.2970 N.am   84  ASP84      -0.1971
    140  CA         6.4090    6.5210  -10.4370 C.3    84  ASP84       0.1709
    141  C          5.2530    5.6070  -10.0920 C.2    84  ASP84       0.2293
    142  O          4.2360    6.0550   -9.5460 O.2    84  ASP84      -0.2864
    143  CB         7.6410    6.2190   -9.5790 C.3    84  ASP84       0.1436
    144  CG         7.3830    6.3960   -8.0960 C.2    84  ASP84       0.3671
    145  OD1        6.6060    5.6050   -7.5170 O.co2  84  ASP84      -0.2456
    146  OD2        7.9660    7.3210   -7.5080 O.co2  84  ASP84      -0.2456
    147  N          9.1500    1.2840   -8.1070 N.3   129  GLN129     -0.1231
    148  CA         9.8360    2.5590   -7.8750 C.3   129  GLN129      0.1698
    149  C         10.5760    3.1140   -9.1000 C.2   129  GLN129      0.2592
    150  O         10.6470    4.3310   -9.2890 O.2   129  GLN129     -0.2718
    151  CB        10.8120    2.4150   -6.6950 C.3   129  GLN129      0.0381
    152  CG        11.5740    3.6860   -6.3560 C.3   129  GLN129      0.0905
    153  CD        10.6660    4.8030   -5.8740 C.2   129  GLN129      0.2608
    154  OE1        9.6970    4.5640   -5.1510 O.2   129  GLN129     -0.2717
    155  NE2       10.9750    6.0330   -6.2760 N.am  129  GLN129     -0.0878
    156  N         11.1400    2.2390   -9.9280 N.am  130  ASN130     -0.1974
    157  CA        11.7860    2.7170  -11.1500 C.3   130  ASN130      0.1688
    158  C         10.9630    2.5210  -12.4290 C.2   130  ASN130      0.2292
    159  O         11.5030    2.5020  -13.5400 O.2   130  ASN130     -0.2864
    160  CB        13.2160    2.1660  -11.2880 C.3   130  ASN130      0.1181
    161  CG        13.2640    0.6650  -11.2520 C.2   130  ASN130      0.2629
    162  OD1       12.3670   -0.0040  -11.7620 O.2   130  ASN130     -0.2716
    163  ND2       14.3160    0.1180  -10.6420 N.am  130  ASN130     -0.0877
    164  N          8.1280    4.5030  -14.5080 N.3   132  LEU132     -0.1245
    165  CA         7.6720    5.8870  -14.5210 C.3   132  LEU132      0.1561
    166  C          6.5220    6.0880  -15.5020 C.2   132  LEU132      0.2260
    167  O          6.5240    5.5210  -16.5920 O.2   132  LEU132     -0.2867
    168  CB         8.8340    6.8310  -14.8550 C.3   132  LEU132      0.0270
    169  CG        10.0840    6.7290  -13.9680 C.3   132  LEU132      0.0019
    170  CD1       11.1310    7.7630  -14.3940 C.3   132  LEU132      0.0001
    171  CD2        9.7350    6.9110  -12.4900 C.3   132  LEU132      0.0001
    172  N         13.0250    2.8590  -16.0080 N.3   142  ALA142     -0.1231
    173  CA        14.1870    3.6740  -15.6440 C.3   142  ALA142      0.1694
    174  C         15.3070    2.7980  -15.0870 C.2   142  ALA142      0.2592
    175  O         15.0500    1.6960  -14.5880 O.2   142  ALA142     -0.2718
    176  CB        13.8000    4.7340  -14.6230 C.3   142  ALA142      0.0304
    177  N         16.5400    3.2930  -15.1630 N.am  143  ASP143     -0.1974
    178  CA        17.7090    2.5660  -14.6580 C.3   143  ASP143      0.1709
    179  C         18.0670    1.3200  -15.4640 C.2   143  ASP143      0.2293
    180  O         18.7840    0.4510  -14.9750 O.2   143  ASP143     -0.2864
    181  CB        17.5070    2.1710  -13.1960 C.3   143  ASP143      0.1436
    182  CG        17.6370    3.3380  -12.2630 C.2   143  ASP143      0.3671
    183  OD1       17.7740    4.4720  -12.7670 O.co2 143  ASP143     -0.2456
    184  OD2       17.5990    3.1270  -11.0300 O.co2 143  ASP143     -0.2456
@<TRIPOS>BOND
     1    99    98   ar
     2   100    98   ar
     3    98    97    1
     4    76    77    2
     5    76    75    1
     6    74    75    1
     7    97    96    1
     8    96    93    1
     9    75    78    1
    10    93    92    1
    11    93    94    1
    12    92    83   am
    13    78    79    1
    14    78    80    1
    15    83    82    1
    16    83    84    2
    17    82    81    1
    18    82    85    1
    19   119   117    1
    20    94   101   am
    21    94    95    2
    22    87    89   ar
    23    87    86   ar
    24    89    91   ar
    25   101   102    1
    26   104   103    2
    27   118   117    1
    28   117   116    1
    29    85    86    1
    30    86    88   ar
    31    91    90   ar
    32   103   102    1
    33   103   112   am
    34   167   166    2
    35   102   105    1
    36   116   113    1
    37   105   106    1
    38   172   173    1
    39    88    90   ar
    40   128   126   ar
    41   128   129   ar
    42   112   113    1
    43   113   114    1
    44   173   174    1
    45   173   176    1
    46   126   125   ar
    47   166   165    1
    48   179   180    2
    49   179   178    1
    50    60    61    1
    51   177   174   am
    52   177   178    1
    53   174   175    2
    54   108   106   ar
    55   108   110   ar
    56    63    62    2
    57   129   127   ar
    58   106   107   ar
    59   168   165    1
    60   168   169    1
    61   178   181    1
    62   165   164    1
    63   114   120   am
    64   114   115    2
    65   170   169    1
    66   120   121    1
    67   125   127   ar
    68   125   124    1
    69    62    61    1
    70    61    64    1
    71   169   171    1
    72   110   111   ar
    73   107   109   ar
    74   159   158    2
    75   124   121    1
    76   181   182    1
    77   121   122    1
    78   183   182   ar
    79   111   109   ar
    80   133   132    2
    81    65    66    1
    82    58    59    1
    83    58    57    1
    84   158   157    1
    85    68    67    2
    86   182   184   ar
    87   130   122   am
    88   130   131    1
    89    69    66    1
    90    69    70    1
    91   122   123    2
    92    71    70    1
    93    71    72    1
    94   162   161    2
    95    56    57    1
    96    56    55    1
    97    66    67    1
    98   132   131    1
    99   132   139   am
   100   160   161    1
   101   160   157    1
   102   161   163   am
   103    53    52    1
   104    53    54    2
   105   157   156    1
   106   131   134    1
   107    52    55    1
   108    52    51    1
   109   134   135    1
   110    72    73    1
   111    26    24    1
   112   140   139    1
   113   140   141    1
   114   140   143    1
   115    49    48    1
   116   141   142    2
   117   156   149   am
   118   135   136    1
   119   143   144    1
   120    50    48    1
   121   150   149    2
   122   136   138   am
   123   136   137    2
   124    48    45    1
   125   149   148    1
   126    24    23    1
   127    45    46    1
   128    45    44    1
   129    25    23    1
   130    46    47    2
   131    23    20    1
   132   147   148    1
   133   144   145   ar
   134   144   146   ar
   135   148   151    1
   136     1     2    1
   137     4     3    2
   138     6     7    1
   139     6     5    1
   140    41    42    1
   141    41    40    1
   142     7     9   ar
   143     7     8   ar
   144    20    19    1
   145    20    21    1
   146   151   152    1
   147   152   153    1
   148    19    12   am
   149    42    43    2
   150   155   153   am
   151     3     2    1
   152     3    10   am
   153     2     5    1
   154    40    33   am
   155   153   154    2
   156    21    27   am
   157    21    22    2
   158    27    28    1
   159    30    29    2
   160    12    11    1
   161    12    13    2
   162    10    11    1
   163    11    14    1
   164    33    34    2
   165    33    32    1
   166    29    28    1
   167    29    31   am
   168    31    32    1
   169    32    35    1
   170    14    15    1
   171    15    16    1
   172    39    37   ar
   173    37    36    1
   174    37    38   ar
   175    35    36    1
   176    16    17    1
   177    17    18    1
