@<TRIPOS>MOLECULE
tmp/3pjcA00.pdb
 185 173 0 0 0
SMALL
GASTEIGER

@<TRIPOS>ATOM
      1  N         13.4680  -11.6890    9.2610 N.3    14  LEU14      -0.1231
      2  CA        13.1360  -10.7000   10.2950 C.3    14  LEU14       0.1693
      3  C         12.0460  -11.2410   11.2170 C.2    14  LEU14       0.2592
      4  O         12.1810  -11.1620   12.4280 O.2    14  LEU14      -0.2718
      5  CB        12.7490   -9.3470    9.6910 C.3    14  LEU14       0.0284
      6  CG        13.9320   -8.5970    9.1020 C.3    14  LEU14       0.0019
      7  CD1       13.4880   -7.3170    8.4060 C.3    14  LEU14       0.0001
      8  CD2       15.0220   -8.3340   10.1510 C.3    14  LEU14       0.0001
      9  N         11.0440  -11.8800   10.6420 N.am   15  GLY15      -0.1957
     10  CA         9.9780  -12.5020   11.4110 C.3    15  GLY15       0.1869
     11  C          8.9050  -13.1230   10.5530 C.2    15  GLY15       0.2309
     12  O          8.8110  -12.8430    9.3520 O.2    15  GLY15      -0.2863
     13  N          1.5630  -10.5110   10.5060 N.3    19  PHE19      -0.1241
     14  CA         2.1300   -9.3960    9.7540 C.3    19  PHE19       0.1605
     15  C          2.8510   -9.8900    8.4600 C.2    19  PHE19       0.2264
     16  O          3.4540   -9.0860    7.7500 O.2    19  PHE19      -0.2867
     17  CB         3.0990   -8.6080   10.6580 C.3    19  PHE19       0.0534
     18  CG         4.1110   -9.4760   11.3790 C.ar   19  PHE19      -0.0203
     19  CD1        5.2910   -9.8720   10.7500 C.ar   19  PHE19      -0.0042
     20  CD2        3.8900   -9.8910   12.6920 C.ar   19  PHE19      -0.0042
     21  CE1        6.2220  -10.6760   11.4180 C.ar   19  PHE19      -0.0003
     22  CE2        4.8250  -10.6900   13.3530 C.ar   19  PHE19      -0.0003
     23  CZ         5.9860  -11.0670   12.7150 C.ar   19  PHE19      -0.0000
     24  N          8.5110  -11.8410    6.7640 N.3    22  VAL22      -0.1245
     25  CA         9.3590  -10.6880    6.5000 C.3    22  VAL22       0.1561
     26  C         10.7950  -11.1180    6.5210 C.2    22  VAL22       0.2260
     27  O         11.2740  -11.7020    7.4910 O.2    22  VAL22      -0.2867
     28  CB         9.0790   -9.5180    7.4730 C.3    22  VAL22       0.0252
     29  CG1        9.7780   -8.2340    7.0120 C.3    22  VAL22       0.0019
     30  CG2        7.5700   -9.2960    7.6310 C.3    22  VAL22       0.0019
     31  N         13.5410   -4.3860    4.0990 N.3    39  ALA39      -0.1245
     32  CA        12.6510   -5.3780    4.7220 C.3    39  ALA39       0.1562
     33  C         11.6590   -5.7910    3.6440 C.2    39  ALA39       0.2260
     34  O         11.1140   -4.9210    2.9620 O.2    39  ALA39      -0.2867
     35  CB        11.9480   -4.7930    5.9370 C.3    39  ALA39       0.0290
     36  N          8.3550   -8.0870    2.6660 N.3    41  LYS41      -0.1245
     37  CA         7.1820   -8.8150    3.1390 C.3    41  LYS41       0.1561
     38  C          6.5590   -9.5930    1.9960 C.2    41  LYS41       0.2260
     39  O          6.3810   -9.0660    0.8980 O.2    41  LYS41      -0.2867
     40  CB         6.1330   -7.8440    3.7600 C.3    41  LYS41       0.0271
     41  CG         4.8090   -8.5200    4.1920 C.3    41  LYS41       0.0035
     42  CD         3.6950   -7.5170    4.5560 C.3    41  LYS41       0.0206
     43  CE         2.3570   -8.1920    4.7830 C.3    41  LYS41       0.1093
     44  NZ         1.3730   -7.3060    5.4750 N.3    41  LYS41      -0.1314
     45  N         -2.8830   -2.9120    0.6090 N.3    57  GLU57      -0.1245
     46  CA        -1.9380   -2.5020    1.6470 C.3    57  GLU57       0.1567
     47  C         -0.7830   -1.7080    1.0170 C.2    57  GLU57       0.2260
     48  O         -0.4280   -0.6210    1.4980 O.2    57  GLU57      -0.2867
     49  CB        -1.4050   -3.7230    2.4110 C.3    57  GLU57       0.0388
     50  CG        -0.3840   -3.3200    3.4690 C.3    57  GLU57       0.1160
     51  CD         0.4370   -4.4040    4.1280 C.2    57  GLU57       0.3649
     52  OE1        0.1810   -5.6060    3.8870 O.co2  57  GLU57      -0.2457
     53  OE2        1.3300   -4.0420    4.9230 O.co2  57  GLU57      -0.2457
     54  N          0.4330    2.2950    1.7400 N.3    61  LEU61      -0.1245
     55  CA         1.8130    2.6200    2.1040 C.3    61  LEU61       0.1561
     56  C          2.5210    3.5240    1.0840 C.2    61  LEU61       0.2260
     57  O          3.2350    4.4480    1.5000 O.2    61  LEU61      -0.2867
     58  CB         2.6240    1.3360    2.3160 C.3    61  LEU61       0.0270
     59  CG         2.3910    0.6320    3.6550 C.3    61  LEU61       0.0019
     60  CD1        2.9880   -0.7470    3.6350 C.3    61  LEU61       0.0001
     61  CD2        2.9720    1.4430    4.8200 C.3    61  LEU61       0.0001
     62  N          6.8180    4.2660    8.6460 N.3    70  VAL70      -0.1245
     63  CA         7.8280    3.4840    7.9330 C.3    70  VAL70       0.1561
     64  C          7.6770    3.7140    6.4110 C.2    70  VAL70       0.2260
     65  O          6.5660    3.7180    5.8720 O.2    70  VAL70      -0.2867
     66  CB         7.7930    1.9900    8.3380 C.3    70  VAL70       0.0252
     67  CG1        6.4790    1.3220    7.9440 C.3    70  VAL70       0.0019
     68  CG2        8.9980    1.2310    7.7890 C.3    70  VAL70       0.0019
     69  N          6.3320   -6.8170   -0.9570 N.3    82  LEU82      -0.1245
     70  CA         6.3590   -5.4150   -0.5640 C.3    82  LEU82       0.1561
     71  C          7.7720   -5.0720   -0.0630 C.2    82  LEU82       0.2260
     72  O          8.2950   -5.7540    0.8190 O.2    82  LEU82      -0.2867
     73  CB         5.3000   -5.1520    0.5210 C.3    82  LEU82       0.0270
     74  CG         5.4340   -3.8370    1.3020 C.3    82  LEU82       0.0019
     75  CD1        5.0120   -2.6400    0.4610 C.3    82  LEU82       0.0001
     76  CD2        4.6730   -3.9030    2.6130 C.3    82  LEU82       0.0001
     77  N         10.1560   -2.4510    1.9010 N.3    84  MET84      -0.1230
     78  CA        10.1740   -1.3540    2.8790 C.3    84  MET84       0.1702
     79  C         11.5840   -1.0150    3.3260 C.2    84  MET84       0.2595
     80  O         12.4580   -1.8940    3.3260 O.2    84  MET84      -0.2718
     81  CB         9.3510   -1.7580    4.1300 C.3    84  MET84       0.0401
     82  CG         7.9060   -2.1830    3.8430 C.3    84  MET84       0.0596
     83  SD         6.8840   -0.8690    3.1440 S.3    84  MET84      -0.1393
     84  CE         6.8150    0.2750    4.5070 C.3    84  MET84       0.0692
     85  N         11.7710    0.2230    3.8510 N.am   85  GLU85      -0.1920
     86  CA        13.0510    0.6110    4.4650 C.3    85  GLU85       0.1949
     87  C         13.3270   -0.3140    5.6500 C.2    85  GLU85       0.2659
     88  O         12.3820   -0.8060    6.2880 O.2    85  GLU85      -0.2711
     89  CB        13.0840    2.0870    4.9090 C.2    85  GLU85       0.0111
     90  CG        12.1180    2.4560    6.0360 C.2    85  GLU85       0.0838
     91  CD        12.2510    3.8670    6.5770 C.2    85  GLU85       0.3877
     92  OE1       13.2890    4.5160    6.3150 O.co2  85  GLU85      -0.2406
     93  OE2       11.2870    4.3480    7.2140 O.co2  85  GLU85      -0.2406
     94  N         14.6040   -0.6430    5.8560 N.am   86  TYR86      -0.1957
     95  CA        14.9640   -1.5060    6.9690 C.3    86  TYR86       0.1771
     96  C         15.3310   -0.6360    8.1920 C.2    86  TYR86       0.2619
     97  O         16.1340    0.2880    8.0520 O.2    86  TYR86      -0.2715
     98  CB        16.1120   -2.4560    6.5810 C.3    86  TYR86       0.0574
     99  CG        16.6580   -3.2640    7.7400 C.ar   86  TYR86      -0.0198
    100  CD1       15.8150   -4.0310    8.5450 C.ar   86  TYR86      -0.0009
    101  CD2       18.0190   -3.2590    8.0390 C.ar   86  TYR86      -0.0009
    102  CE1       16.3120   -4.7740    9.6090 C.ar   86  TYR86       0.0417
    103  CE2       18.5330   -4.0320    9.0780 C.ar   86  TYR86       0.0417
    104  CZ        17.6750   -4.7810    9.8650 C.ar   86  TYR86       0.1957
    105  OH        18.1720   -5.5110   10.9130 O.3    86  TYR86      -0.2866
    106  N         14.7100   -0.9100    9.3590 N.am   87  LEU87      -0.1977
    107  CA        15.0330   -0.2180   10.6250 C.3    87  LEU87       0.1596
    108  C         15.6570   -1.2610   11.5610 C.2    87  LEU87       0.2287
    109  O         14.9620   -2.1580   12.0560 O.2    87  LEU87      -0.2864
    110  CB        13.8230    0.5200   11.2520 C.3    87  LEU87       0.0297
    111  CG        13.2400    1.6890   10.4360 C.3    87  LEU87       0.0022
    112  CD1       12.0690    2.3280   11.1550 C.3    87  LEU87       0.0001
    113  CD2       14.2660    2.7780   10.2050 C.3    87  LEU87       0.0001
    114  N         14.8390   -2.5970   15.5870 N.3    90  GLY90      -0.1210
    115  CA        13.7100   -3.4650   15.8880 C.3    90  GLY90       0.1956
    116  C         12.4620   -2.7630   16.3790 C.2    90  GLY90       0.2612
    117  O         12.3500   -1.5390   16.2820 O.2    90  GLY90      -0.2717
    118  N         11.5270   -3.5490   16.9190 N.am   91  CYS91      -0.1970
    119  CA        10.2650   -3.0260   17.4250 C.3    91  CYS91       0.1712
    120  C         10.4350   -2.3190   18.7910 C.2    91  CYS91       0.2296
    121  O         11.3240   -2.6540   19.5760 O.2    91  CYS91      -0.2864
    122  CB         9.1840   -4.1040   17.4750 C.3    91  CYS91       0.0983
    123  SG         9.3750   -5.3070   18.8090 S.3    91  CYS91      -0.0798
    124  N          8.5390   -2.4930   21.3640 N.3    93  ARG93      -0.1245
    125  CA         8.2830   -3.4050   22.4660 C.3    93  ARG93       0.1563
    126  C          9.6100   -3.9900   23.0000 C.2    93  ARG93       0.2260
    127  O          9.8790   -3.8690   24.1960 O.2    93  ARG93      -0.2867
    128  CB         7.3040   -4.5010   22.0200 C.3    93  ARG93       0.0307
    129  CG         6.9300   -5.4990   23.1180 C.3    93  ARG93       0.0489
    130  CD         6.3830   -6.7910   22.5530 C.3    93  ARG93       0.2205
    131  NE         7.3730   -7.4450   21.7000 N.pl3  93  ARG93      -0.0865
    132  CZ         7.1120   -8.4540   20.8790 C.cat  93  ARG93       0.5346
    133  NH1        5.8850   -8.9610   20.8070 N.pl3  93  ARG93       0.1354
    134  NH2        8.0760   -8.9740   20.1330 N.pl3  93  ARG93       0.1354
    135  N          4.5240   -3.5310   19.6160 N.3   135  ARG135     -0.1231
    136  CA         5.1120   -4.4750   18.6680 C.3   135  ARG135      0.1694
    137  C          5.1650   -3.8690   17.2390 C.2   135  ARG135      0.2592
    138  O          6.0950   -4.1440   16.4900 O.2   135  ARG135     -0.2718
    139  CB         4.3060   -5.8030   18.6370 C.3   135  ARG135      0.0321
    140  CG         5.0680   -6.9560   17.8850 C.3   135  ARG135      0.0489
    141  CD         4.1690   -8.0120   17.2250 C.3   135  ARG135      0.2205
    142  NE         3.3460   -7.4420   16.1430 N.pl3 135  ARG135     -0.0865
    143  CZ         2.4080   -8.0970   15.4660 C.cat 135  ARG135      0.5346
    144  NH1        2.1120   -9.3560   15.7730 N.pl3 135  ARG135      0.1354
    145  NH2        1.7370   -7.4880   14.4920 N.pl3 135  ARG135      0.1354
    146  N          4.1690   -3.0540   16.8790 N.am  136  ASN136     -0.1974
    147  CA         3.9850   -2.4940   15.5270 C.3   136  ASN136      0.1688
    148  C          4.5710   -1.1060   15.3680 C.2   136  ASN136      0.2292
    149  O          4.3130   -0.4240   14.3660 O.2   136  ASN136     -0.2864
    150  CB         2.4880   -2.5400   15.1620 C.3   136  ASN136      0.1181
    151  CG         2.0260   -3.9780   15.1290 C.2   136  ASN136      0.2629
    152  OD1        2.8430   -4.8990   15.0090 O.2   136  ASN136     -0.2716
    153  ND2        0.7370   -4.2220   15.2940 N.am  136  ASN136     -0.0877
    154  N          8.3350    0.7670   15.1420 N.3   138  LEU138     -0.1245
    155  CA         9.7400    0.4800   14.8950 C.3   138  LEU138      0.1561
    156  C         10.6250    1.6150   15.3730 C.2   138  LEU138      0.2260
    157  O         10.2490    2.7800   15.2560 O.2   138  LEU138     -0.2867
    158  CB         9.9740    0.2330   13.3890 C.3   138  LEU138      0.0270
    159  CG         9.5360   -1.1280   12.8290 C.3   138  LEU138      0.0019
    160  CD1        9.5420   -1.0950   11.3230 C.3   138  LEU138      0.0001
    161  CD2       10.4130   -2.2510   13.3470 C.3   138  LEU138      0.0001
    162  N          4.5250    1.0220   12.0120 N.3   148  ALA148     -0.1231
    163  CA         4.7250   -0.0450   11.0300 C.3   148  ALA148      0.1694
    164  C          3.5510   -0.9980   11.0210 C.2   148  ALA148      0.2592
    165  O          2.5530   -0.7760   11.7260 O.2   148  ALA148     -0.2718
    166  CB         6.0120   -0.8090   11.3330 C.3   148  ALA148      0.0304
    167  N          3.6880   -2.0760   10.2300 N.am  149  ASP149     -0.1960
    168  CA         2.7120   -3.1670   10.0770 C.3   149  ASP149      0.1840
    169  C          1.3190   -2.6350    9.6980 C.2   149  ASP149      0.2622
    170  O          0.4530   -2.4540   10.5690 O.2   149  ASP149     -0.2715
    171  CB         2.6330   -4.0620   11.3250 C.3   149  ASP149      0.1450
    172  CG         1.7310   -5.2720   11.1400 C.2   149  ASP149      0.3671
    173  OD1        1.2690   -5.5060    9.9900 O.co2 149  ASP149     -0.2456
    174  OD2        1.4480   -5.9610   12.1450 O.co2 149  ASP149     -0.2456
    175  N          1.1180   -2.4430    8.3720 N.am  150  PHE150     -0.1974
    176  CA        -0.1150   -1.9340    7.7790 C.3   150  PHE150      0.1639
    177  C         -0.9720   -3.0710    7.1850 C.2   150  PHE150      0.2290
    178  O         -1.9080   -2.8020    6.4310 O.2   150  PHE150     -0.2864
    179  CB         0.2030   -0.8250    6.7330 C.3   150  PHE150      0.0560
    180  CG         0.4880    0.5000    7.4150 C.ar  150  PHE150     -0.0200
    181  CD1        1.6930    0.7150    8.0840 C.ar  150  PHE150     -0.0042
    182  CD2       -0.4730    1.5110    7.4410 C.ar  150  PHE150     -0.0042
    183  CE1        1.9480    1.9390    8.7340 C.ar  150  PHE150     -0.0003
    184  CE2       -0.2260    2.7240    8.0960 C.ar  150  PHE150     -0.0003
    185  CZ         0.9840    2.9270    8.7440 C.ar  150  PHE150     -0.0000
@<TRIPOS>BOND
     1    69    70    1
     2    70    71    1
     3    70    73    1
     4    71    72    2
     5    75    74    1
     6    73    74    1
     7    45    46    1
     8    39    38    2
     9    47    48    2
    10    47    46    1
    11    56    57    2
    12    56    55    1
    13    74    76    1
    14    46    49    1
    15    54    55    1
    16    77    78    1
    17    38    37    1
    18    55    58    1
    19    58    59    1
    20    49    50    1
    21    36    37    1
    22    78    79    1
    23    78    81    1
    24    34    33    2
    25    37    40    1
    26    83    82    1
    27    83    84    1
    28    80    79    2
    29    79    85   am
    30    50    51    1
    31    60    59    1
    32    33    32    1
    33    59    61    1
    34    40    41    1
    35    82    81    1
    36    85    86    1
    37    52    51   ar
    38    31    32    1
    39    51    53   ar
    40    41    42    1
    41    86    89    1
    42    86    87    1
    43    42    43    1
    44    32    35    1
    45    43    44    1
    46    89    90    2
    47    87    94   am
    48    87    88    2
    49    94    95    1
    50    65    64    2
    51    90    91    1
    52    92    91   ar
    53    64    63    1
    54   178   177    2
    55    25    26    1
    56    25    24    1
    57    25    28    1
    58    26    27    2
    59    91    93   ar
    60    98    95    1
    61    98    99    1
    62   179   180    1
    63   179   176    1
    64    95    96    1
    65    29    28    1
    66   177   176    1
    67   180   182   ar
    68   180   181   ar
    69   182   184   ar
    70    28    30    1
    71    99   101   ar
    72    99   100   ar
    73    16    15    2
    74   176   175    1
    75    68    66    1
    76    63    66    1
    77    63    62    1
    78    67    66    1
    79   101   103   ar
    80    97    96    2
    81   181   183   ar
    82   184   185   ar
    83    96   106   am
    84   175   169   am
    85     7     6    1
    86    15    14    1
    87   100   102   ar
    88   183   185   ar
    89   103   104   ar
    90     6     5    1
    91     6     8    1
    92     1     2    1
    93    12    11    2
    94   106   107    1
    95   102   104   ar
    96     5     2    1
    97   169   168    1
    98   169   170    2
    99    14    13    1
   100    14    17    1
   101   104   105    1
   102   173   172   ar
   103   168   167    1
   104   168   171    1
   105   113   111    1
   106   167   164   am
   107     2     3    1
   108   111   112    1
   109   111   110    1
   110    11    10    1
   111   107   110    1
   112   107   108    1
   113     9     3   am
   114     9    10    1
   115    17    18    1
   116    19    18   ar
   117    19    21   ar
   118   164   163    1
   119   164   165    2
   120   163   166    1
   121   163   162    1
   122   172   171    1
   123   172   174   ar
   124     3     4    2
   125   160   159    1
   126    18    20   ar
   127    21    23   ar
   128   108   109    2
   129    20    22   ar
   130    23    22   ar
   131   159   161    1
   132   159   158    1
   133   158   155    1
   134   149   148    2
   135   145   143    1
   136   155   154    1
   137   155   156    1
   138   152   151    2
   139   151   150    1
   140   151   153   am
   141   150   147    1
   142   157   156    2
   143   148   147    1
   144   143   144    1
   145   143   142    2
   146   147   146    1
   147   114   115    1
   148   115   116    1
   149   142   141    1
   150   117   116    2
   151   116   118   am
   152   138   137    2
   153   146   137   am
   154   118   119    1
   155   141   140    1
   156   137   136    1
   157   119   122    1
   158   119   120    1
   159   122   123    1
   160   140   139    1
   161   139   136    1
   162   136   135    1
   163   120   121    2
   164   134   132    1
   165   133   132    1
   166   132   131    2
   167   124   125    1
   168   131   130    1
   169   128   125    1
   170   128   129    1
   171   125   126    1
   172   130   129    1
   173   126   127    2
