@<TRIPOS>MOLECULE
tmp/3pjgA02.pdb
 148 140 0 0 0
SMALL
GASTEIGER

@<TRIPOS>ATOM
      1  N         60.0530  -16.6570   15.2010 N.3    88  PRO88      -0.2116
      2  CA        60.8600  -15.4440   15.4220 C.3    88  PRO88       0.1372
      3  C         62.3690  -15.5830   15.5440 C.2    88  PRO88       0.2244
      4  O         63.0770  -14.5810   15.6050 O.2    88  PRO88      -0.2868
      5  CB        60.2250  -14.8240   16.6600 C.3    88  PRO88       0.0268
      6  CG        59.7780  -16.0190   17.4150 C.3    88  PRO88       0.0207
      7  CD        59.1840  -16.9290   16.3550 C.3    88  PRO88       0.0892
      8  N         57.5190  -10.0540    9.2040 N.3   257  LYS257     -0.1231
      9  CA        57.3230   -8.8220    9.9940 C.3   257  LYS257      0.1693
     10  C         58.4270   -7.7950   10.0380 C.2   257  LYS257      0.2592
     11  O         58.2260   -6.7100   10.5340 O.2   257  LYS257     -0.2718
     12  CB        57.0410   -9.1690   11.4620 C.3   257  LYS257      0.0285
     13  CG        58.3180   -9.6870   12.1420 C.3   257  LYS257      0.0035
     14  CD        58.1420  -10.1810   13.5660 C.3   257  LYS257      0.0206
     15  CE        59.4050  -10.8820   14.0080 C.3   257  LYS257      0.1093
     16  NZ        60.3550   -9.9800   14.6870 N.3   257  LYS257     -0.1314
     17  N         59.5940   -8.1670    9.5760 N.am  258  ASP258     -0.1974
     18  CA        60.7280   -7.2940    9.6420 C.3   258  ASP258      0.1709
     19  C         61.4670   -7.6350    8.3950 C.2   258  ASP258      0.2293
     20  O         61.0170   -8.5380    7.6840 O.2   258  ASP258     -0.2864
     21  CB        61.5450   -7.6020   10.9120 C.3   258  ASP258      0.1436
     22  CG        61.7860   -9.1080   11.1670 C.2   258  ASP258      0.3671
     23  OD1       61.8700   -9.4690   12.3830 O.co2 258  ASP258     -0.2456
     24  OD2       61.9260   -9.9240   10.1920 O.co2 258  ASP258     -0.2456
     25  N         64.3050   -9.2030    8.0100 N.3   260  LYS260     -0.1245
     26  CA        64.9020  -10.5380    7.9860 C.3   260  LYS260      0.1561
     27  C         63.8850  -11.6290    7.5760 C.2   260  LYS260      0.2260
     28  O         64.2130  -12.5020    6.7620 O.2   260  LYS260     -0.2867
     29  CB        65.4810  -10.8950    9.3200 C.3   260  LYS260      0.0271
     30  CG        66.9400  -10.5510    9.4010 C.3   260  LYS260      0.0035
     31  CD        67.3010  -10.5330   10.8890 C.3   260  LYS260      0.0206
     32  CE        68.6390   -9.8460   11.2410 C.3   260  LYS260      0.1093
     33  NZ        68.6840   -9.7430   12.7670 N.3   260  LYS260     -0.1314
     34  N         58.1410   -0.1920   10.8860 N.3   282  ARG282     -0.1245
     35  CA        59.3110    0.0640   11.6640 C.3   282  ARG282      0.1563
     36  C         59.3950    1.5640   11.9280 C.2   282  ARG282      0.2260
     37  O         59.6820    2.0400   13.0190 O.2   282  ARG282     -0.2867
     38  CB        60.5230   -0.4000   10.8910 C.3   282  ARG282      0.0307
     39  CG        61.7960   -0.3110   11.6990 C.3   282  ARG282      0.0489
     40  CD        62.9510   -0.7380   10.8630 C.3   282  ARG282      0.2205
     41  NE        63.1060    0.1750    9.7430 N.pl3 282  ARG282     -0.0865
     42  CZ        62.9270   -0.1730    8.4780 C.cat 282  ARG282      0.5346
     43  NH1       62.5920   -1.4550    8.1680 N.pl3 282  ARG282      0.1354
     44  NH2       63.0180    0.7650    7.5340 N.pl3 282  ARG282      0.1354
     45  N         56.9180    3.0460   14.5260 N.3   285  LYS285     -0.1245
     46  CA        57.3070    2.8330   15.8980 C.3   285  LYS285      0.1561
     47  C         58.4290    3.7930   16.2240 C.2   285  LYS285      0.2260
     48  O         58.5350    4.2590   17.3510 O.2   285  LYS285     -0.2867
     49  CB        57.7450    1.3990   16.1180 C.3   285  LYS285      0.0271
     50  CG        56.7050    0.4140   15.6240 C.3   285  LYS285      0.0035
     51  CD        57.1610   -1.0210   15.8450 C.3   285  LYS285      0.0206
     52  CE        56.0640   -2.0280   15.5220 C.3   285  LYS285      0.1093
     53  NZ        56.7040   -3.2410   14.9860 N.3   285  LYS285     -0.1314
     54  N         52.7470  -11.2230   21.4840 N.3   315  ARG315     -0.1245
     55  CA        53.6470  -11.4540   20.3410 C.3   315  ARG315      0.1563
     56  C         53.5870  -10.3390   19.2980 C.2   315  ARG315      0.2260
     57  O         54.5390   -9.6170   19.0720 O.2   315  ARG315     -0.2867
     58  CB        53.2060  -12.7280   19.6460 C.3   315  ARG315      0.0307
     59  CG        54.1910  -13.8570   19.3490 C.3   315  ARG315      0.0489
     60  CD        53.2720  -14.9870   18.7280 C.3   315  ARG315      0.2205
     61  NE        52.1300  -15.2110   19.6440 N.pl3 315  ARG315     -0.0865
     62  CZ        50.8850  -15.5990   19.3310 C.cat 315  ARG315      0.5346
     63  NH1       50.5380  -15.8410   18.0590 N.pl3 315  ARG315      0.1354
     64  NH2       49.9760  -15.7320   20.3200 N.pl3 315  ARG315      0.1354
     65  N         52.1150   -7.5570   19.2400 N.3   317  SER317     -0.1202
     66  CA        51.5500   -6.3000   19.6610 C.3   317  SER317      0.2020
     67  C         52.5810   -5.1590   19.5470 C.2   317  SER317      0.2619
     68  O         53.6610   -5.1990   20.1280 O.2   317  SER317     -0.2717
     69  CB        50.9670   -6.4700   21.0500 C.3   317  SER317      0.2103
     70  OG        50.8420   -5.2140   21.6500 O.3   317  SER317     -0.2182
     71  N         52.2300   -4.1650   18.7510 N.am  318  SER318     -0.1951
     72  CA        53.1340   -3.0850   18.5080 C.3   318  SER318      0.1924
     73  C         53.5460   -2.2930   19.7390 C.2   318  SER318      0.2314
     74  O         54.5790   -1.6330   19.7290 O.2   318  SER318     -0.2863
     75  CB        52.5630   -2.1620   17.4370 C.3   318  SER318      0.2116
     76  OG        51.2690   -1.7020   17.7930 O.3   318  SER318     -0.2180
     77  N         55.0100   -3.3260   22.1020 N.3   320  GLN320     -0.1231
     78  CA        56.3130   -3.8540   22.4360 C.3   320  GLN320      0.1698
     79  C         57.4920   -3.0890   21.8150 C.2   320  GLN320      0.2592
     80  O         58.4870   -2.7570   22.5010 O.2   320  GLN320     -0.2718
     81  CB        56.4150   -5.3110   22.0190 C.3   320  GLN320      0.0381
     82  CG        55.8300   -6.2310   23.0660 C.3   320  GLN320      0.0905
     83  CD        56.3650   -7.6530   23.0210 C.2   320  GLN320      0.2608
     84  OE1       55.5680   -8.5850   22.8780 O.2   320  GLN320     -0.2717
     85  NE2       57.6960   -7.8420   23.1640 N.am  320  GLN320     -0.0878
     86  N         57.3900   -2.8320   20.5060 N.am  321  GLY321     -0.1957
     87  CA        58.4360   -2.0900   19.8090 C.3   321  GLY321      0.1869
     88  C         58.5950   -0.6800   20.3370 C.2   321  GLY321      0.2309
     89  O         59.6870   -0.1260   20.2330 O.2   321  GLY321     -0.2863
     90  N         58.0620    0.2090   23.6760 N.3   323  MET323     -0.1230
     91  CA        58.8030   -0.0270   24.9360 C.3   323  MET323      0.1702
     92  C         60.2850   -0.1810   24.6330 C.2   323  MET323      0.2592
     93  O         61.1660    0.3880   25.3090 O.2   323  MET323     -0.2718
     94  CB        58.4490   -1.3550   25.5730 C.3   323  MET323      0.0401
     95  CG        57.2670   -1.3900   26.4150 C.3   323  MET323      0.0596
     96  SD        57.1940   -3.0000   27.2480 S.3   323  MET323     -0.1393
     97  CE        58.7030   -2.9310   28.3240 C.3   323  MET323      0.0692
     98  N         60.5480   -1.0310   23.6480 N.am  324  LYS324     -0.1966
     99  CA        61.9020   -1.3500   23.2610 C.3   324  LYS324      0.1728
    100  C         62.6910   -0.0560   22.9920 C.2   324  LYS324      0.2616
    101  O         63.7720    0.1580   23.5560 O.2   324  LYS324     -0.2715
    102  CB        61.8610   -2.2680   22.0200 C.3   324  LYS324      0.0311
    103  CG        63.1820   -2.8050   21.6170 C.3   324  LYS324      0.0038
    104  CD        63.1830   -3.2420   20.1950 C.3   324  LYS324      0.0206
    105  CE        64.5990   -3.6550   19.8410 C.3   324  LYS324      0.1093
    106  NZ        64.6820   -4.4440   18.5980 N.3   324  LYS324     -0.1314
    107  N         62.1040    0.8130   22.1570 N.am  325  ARG325     -0.1977
    108  CA        62.7040    2.0940   21.7920 C.3   325  ARG325      0.1597
    109  C         62.8370    3.0680   22.9420 C.2   325  ARG325      0.2287
    110  O         63.8340    3.7610   23.0570 O.2   325  ARG325     -0.2864
    111  CB        61.9090    2.7030   20.6680 C.3   325  ARG325      0.0334
    112  CG        62.0490    1.9240   19.3580 C.3   325  ARG325      0.0492
    113  CD        61.0330    2.4200   18.4100 C.3   325  ARG325      0.2205
    114  NE        61.1780    1.8730   17.0690 N.pl3 325  ARG325     -0.0865
    115  CZ        60.9950    0.5990   16.7060 C.cat 325  ARG325      0.5346
    116  NH1       60.6360   -0.3040   17.6130 N.pl3 325  ARG325      0.1354
    117  NH2       61.2100    0.2380   15.4360 N.pl3 325  ARG325      0.1354
    118  N         63.0950    2.1400   26.0340 N.3   327  LYS327     -0.1245
    119  CA        64.0710    1.5990   26.9890 C.3   327  LYS327      0.1561
    120  C         65.4540    1.7100   26.4980 C.2   327  LYS327      0.2260
    121  O         66.3920    1.7030   27.2960 O.2   327  LYS327     -0.2867
    122  CB        63.7690    0.1490   27.3650 C.3   327  LYS327      0.0271
    123  CG        62.5880    0.0960   28.2850 C.3   327  LYS327      0.0035
    124  CD        62.0520   -1.2520   28.4780 C.3   327  LYS327      0.0206
    125  CE        63.0470   -2.1050   29.1650 C.3   327  LYS327      0.1093
    126  NZ        62.2970   -3.3310   29.4810 N.3   327  LYS327     -0.1314
    127  N         58.6600   -7.6470   32.7430 N.3   345  PHE345     -0.1227
    128  CA        58.6580   -7.9910   31.3090 C.3   345  PHE345      0.1736
    129  C         59.9410   -7.3280   30.7920 C.2   345  PHE345      0.2595
    130  O         60.1160   -6.1270   30.9500 O.2   345  PHE345     -0.2718
    131  CB        57.3830   -7.4030   30.6810 C.3   345  PHE345      0.0547
    132  CG        57.1890   -7.7770   29.2590 C.ar  345  PHE345     -0.0202
    133  CD1       57.3180   -9.1000   28.8530 C.ar  345  PHE345     -0.0042
    134  CD2       56.9080   -6.7960   28.2980 C.ar  345  PHE345     -0.0042
    135  CE1       57.1840   -9.4500   27.5380 C.ar  345  PHE345     -0.0003
    136  CE2       56.7650   -7.1470   26.9460 C.ar  345  PHE345     -0.0003
    137  CZ        56.9100   -8.4910   26.5730 C.ar  345  PHE345     -0.0000
    138  N         60.8460   -8.0740   30.1800 N.am  346  PHE346     -0.1976
    139  CA        62.1300   -7.4440   29.8130 C.3   346  PHE346      0.1639
    140  C         62.6820   -6.5040   30.8790 C.2   346  PHE346      0.2290
    141  O         63.2880   -5.5100   30.5930 O.2   346  PHE346     -0.2864
    142  CB        62.0420   -6.7100   28.5110 C.3   346  PHE346      0.0560
    143  CG        61.9300   -7.6190   27.3660 C.ar  346  PHE346     -0.0200
    144  CD1       63.0670   -8.0640   26.7210 C.ar  346  PHE346     -0.0042
    145  CD2       60.6760   -8.0710   26.9460 C.ar  346  PHE346     -0.0042
    146  CE1       62.9780   -8.9610   25.6520 C.ar  346  PHE346     -0.0003
    147  CE2       60.5720   -8.9500   25.8940 C.ar  346  PHE346     -0.0003
    148  CZ        61.7350   -9.4070   25.2310 C.ar  346  PHE346     -0.0000
@<TRIPOS>BOND
     1    28    27    2
     2    44    42    1
     3    27    26    1
     4    20    19    2
     5    26    25    1
     6    26    29    1
     7    43    42    1
     8    19    18    1
     9    42    41    2
    10     8     9    1
    11    29    30    1
    12    30    31    1
    13    17    18    1
    14    17    10   am
    15    18    21    1
    16    41    40    1
    17     9    10    1
    18     9    12    1
    19    10    11    2
    20    24    22   ar
    21    40    39    1
    22    34    35    1
    23    31    32    1
    24    38    35    1
    25    38    39    1
    26    21    22    1
    27    22    23   ar
    28    32    33    1
    29    12    13    1
    30    35    36    1
    31    36    37    2
    32    13    14    1
    33    14    15    1
    34    15    16    1
    35    45    46    1
    36    53    52    1
    37     1     2    1
    38     1     7    1
    39     2     3    1
    40     2     5    1
    41   117   115    1
    42    52    51    1
    43     3     4    2
    44    50    51    1
    45    50    49    1
    46    46    49    1
    47    46    47    1
    48    47    48    2
    49     7     6    1
    50     5     6    1
    51   115   114    2
    52   115   116    1
    53   114   113    1
    54    75    76    1
    55    75    72    1
    56    63    62    1
    57   113   112    1
    58    72    71    1
    59    72    73    1
    60   106   105    1
    61    60    59    1
    62    60    61    1
    63    71    67   am
    64    57    56    2
    65    65    66    1
    66    56    55    1
    67    62    61    2
    68    62    64    1
    69    59    58    1
    70   112   111    1
    71    67    66    1
    72    67    68    2
    73    58    55    1
    74    66    69    1
    75    74    73    2
    76    87    88    1
    77    87    86    1
    78   105   104    1
    79   104   103    1
    80    89    88    2
    81    55    54    1
    82    86    79   am
    83   111   108    1
    84    69    70    1
    85   103   102    1
    86   108   107    1
    87   108   109    1
    88    79    78    1
    89    79    80    2
    90    81    78    1
    91    81    82    1
    92   102    99    1
    93    77    78    1
    94   107   100   am
    95    84    83    2
    96   109   110    2
    97   100    99    1
    98   100   101    2
    99    83    82    1
   100    83    85   am
   101    99    98    1
   102    98    92   am
   103    90    91    1
   104    92    91    1
   105    92    93    2
   106    91    94    1
   107   148   146   ar
   108   148   147   ar
   109    94    95    1
   110   146   144   ar
   111   147   145   ar
   112   118   119    1
   113    95    96    1
   114   120   119    1
   115   120   121    2
   116   137   136   ar
   117   137   135   ar
   118   144   143   ar
   119   136   134   ar
   120   145   143   ar
   121   119   122    1
   122    96    97    1
   123   122   123    1
   124   143   142    1
   125   135   133   ar
   126   123   124    1
   127   134   132   ar
   128   124   125    1
   129   142   139    1
   130   133   132   ar
   131   125   126    1
   132   132   131    1
   133   139   138    1
   134   139   140    1
   135   138   129   am
   136   141   140    2
   137   131   128    1
   138   129   130    2
   139   129   128    1
   140   128   127    1
