@<TRIPOS>MOLECULE
tmp/3pjgA01.pdb
 227 219 0 0 0
SMALL
GASTEIGER

@<TRIPOS>ATOM
      1  N         41.1200  -20.1950   18.5830 N.3    11  TYR11      -0.1241
      2  CA        39.8610  -19.6410   18.1850 C.3    11  TYR11       0.1605
      3  C         39.4510  -20.0380   16.7740 C.2    11  TYR11       0.2264
      4  O         38.2700  -20.0360   16.4760 O.2    11  TYR11      -0.2867
      5  CB        39.8340  -18.1060   18.3880 C.3    11  TYR11       0.0534
      6  CG        40.8920  -17.3380   17.6820 C.ar   11  TYR11      -0.0201
      7  CD1       42.0850  -16.9650   18.3280 C.ar   11  TYR11      -0.0009
      8  CD2       40.7140  -16.9830   16.3510 C.ar   11  TYR11      -0.0009
      9  CE1       43.1020  -16.2250   17.6210 C.ar   11  TYR11       0.0417
     10  CE2       41.6760  -16.2710   15.6440 C.ar   11  TYR11       0.0417
     11  CZ        42.8670  -15.8910   16.2730 C.ar   11  TYR11       0.1957
     12  OH        43.7700  -15.1830   15.5010 O.3    11  TYR11      -0.2866
     13  N         46.7880  -20.8040    8.3540 N.3   119  THR119     -0.1218
     14  CA        47.4300  -20.1620    7.2230 C.3   119  THR119      0.1862
     15  C         48.7340  -20.8650    6.8570 C.2   119  THR119      0.2287
     16  O         49.5520  -21.1660    7.7170 O.2   119  THR119     -0.2866
     17  CB        47.6870  -18.6730    7.5000 C.3   119  THR119      0.1770
     18  OG1       46.4330  -17.9760    7.5650 O.3   119  THR119     -0.2211
     19  CG2       48.5430  -18.0870    6.4130 C.3   119  THR119      0.0375
     20  N         40.9280  -19.0060    6.2470 N.3   142  GLU142     -0.1231
     21  CA        40.1430  -18.5160    7.3550 C.3   142  GLU142      0.1699
     22  C         40.2030  -16.9650    7.3020 C.2   142  GLU142      0.2592
     23  O         41.2700  -16.3850    7.1030 O.2   142  GLU142     -0.2718
     24  CB        40.7160  -19.0220    8.6880 C.3   142  GLU142      0.0402
     25  CG        39.6820  -18.9050    9.8420 C.3   142  GLU142      0.1161
     26  CD        38.1560  -19.1900    9.4050 C.2   142  GLU142      0.3649
     27  OE1       37.7210  -20.3820    9.1410 O.co2 142  GLU142     -0.2457
     28  OE2       37.3700  -18.1790    9.3250 O.co2 142  GLU142     -0.2457
     29  N         39.0780  -16.2830    7.4430 N.am  143  PHE143     -0.1962
     30  CA        39.1520  -14.8110    7.4060 C.3   143  PHE143      0.1771
     31  C         38.6190  -14.2040    8.6790 C.2   143  PHE143      0.2619
     32  O         38.1950  -13.0570    8.6850 O.2   143  PHE143     -0.2715
     33  CB        38.2980  -14.2280    6.2840 C.3   143  PHE143      0.0574
     34  CG        38.6110  -14.7720    4.9530 C.ar  143  PHE143     -0.0200
     35  CD1       39.8610  -14.5300    4.3630 C.ar  143  PHE143     -0.0042
     36  CD2       37.6750  -15.5440    4.2770 C.ar  143  PHE143     -0.0042
     37  CE1       40.1670  -15.0480    3.1210 C.ar  143  PHE143     -0.0003
     38  CE2       37.9840  -16.0620    3.0450 C.ar  143  PHE143     -0.0003
     39  CZ        39.2410  -15.8120    2.4600 C.ar  143  PHE143     -0.0000
     40  N         38.6420  -14.9320    9.7700 N.am  144  LEU144     -0.1963
     41  CA        38.0260  -14.3700   10.9350 C.3   144  LEU144      0.1728
     42  C         38.9900  -13.6200   11.8420 C.2   144  LEU144      0.2616
     43  O         40.2120  -13.8460   11.7610 O.2   144  LEU144     -0.2715
     44  CB        37.2930  -15.5030   11.6290 C.3   144  LEU144      0.0311
     45  CG        38.2010  -16.6690   11.9970 C.3   144  LEU144      0.0022
     46  CD1       38.8470  -16.3260   13.3540 C.3   144  LEU144      0.0001
     47  CD2       37.3860  -17.9720   12.1120 C.3   144  LEU144      0.0001
     48  N         38.4420  -12.7130   12.6640 N.am  145  ARG145     -0.1963
     49  CA        39.2470  -11.9290   13.5990 C.3   145  ARG145      0.1729
     50  C         39.1610  -12.4460   15.0130 C.2   145  ARG145      0.2616
     51  O         38.0700  -12.7220   15.5170 O.2   145  ARG145     -0.2715
     52  CB        38.8170  -10.4540   13.6330 C.3   145  ARG145      0.0348
     53  CG        39.1480   -9.6580   12.3990 C.3   145  ARG145      0.0492
     54  CD        38.0100   -9.6730   11.5200 C.3   145  ARG145      0.2205
     55  NE        36.8990   -9.0830   12.2380 N.pl3 145  ARG145     -0.0865
     56  CZ        35.7510   -8.6930   11.6780 C.cat 145  ARG145      0.5346
     57  NH1       35.5530   -8.8310   10.3610 N.pl3 145  ARG145      0.1354
     58  NH2       34.7970   -8.1510   12.4330 N.pl3 145  ARG145      0.1354
     59  N         40.3020  -12.5440   15.6870 N.am  146  GLU146     -0.1977
     60  CA        40.2680  -13.0170   17.0520 C.3   146  GLU146      0.1602
     61  C         39.2400  -12.1650   17.8530 C.2   146  GLU146      0.2287
     62  O         39.1670  -10.9360   17.7190 O.2   146  GLU146     -0.2864
     63  CB        41.6480  -12.9360   17.6490 C.3   146  GLU146      0.0415
     64  CG        41.7290  -13.4930   19.0440 C.3   146  GLU146      0.1163
     65  CD        43.0500  -13.1040   19.7520 C.2   146  GLU146      0.3649
     66  OE1       43.8900  -12.4310   19.0920 O.co2 146  GLU146     -0.2457
     67  OE2       43.2700  -13.4680   20.9530 O.co2 146  GLU146     -0.2457
     68  N         44.5240  -15.9570    0.4510 N.3   198  LYS198     -0.1245
     69  CA        44.7050  -15.6420    1.8860 C.3   198  LYS198      0.1561
     70  C         45.8680  -14.6690    2.0990 C.2   198  LYS198      0.2260
     71  O         45.7440  -13.7010    2.8880 O.2   198  LYS198     -0.2867
     72  CB        44.9710  -16.9030    2.7520 C.3   198  LYS198      0.0271
     73  CG        45.2810  -16.6170    4.2320 C.3   198  LYS198      0.0035
     74  CD        44.0780  -15.9320    4.9420 C.3   198  LYS198      0.0206
     75  CE        44.5200  -15.2850    6.2520 C.3   198  LYS198      0.1093
     76  NZ        43.4300  -14.6900    7.1260 N.3   198  LYS198     -0.1314
     77  N         45.3500  -10.6140    3.4160 N.3   202  ASN202     -0.1240
     78  CA        46.0020  -10.1350    4.6350 C.3   202  ASN202      0.1653
     79  C         47.0250   -9.0430    4.3210 C.2   202  ASN202      0.2266
     80  O         47.1760   -8.0810    5.0830 O.2   202  ASN202     -0.2867
     81  CB        46.6820  -11.3130    5.3770 C.3   202  ASN202      0.1155
     82  CG        45.7370  -12.0470    6.3420 C.2   202  ASN202      0.2627
     83  OD1       44.4980  -12.0120    6.2200 O.2   202  ASN202     -0.2716
     84  ND2       46.3360  -12.7210    7.3110 N.am  202  ASN202     -0.0877
     85  N         45.2170   -5.7680    3.9850 N.3   205  LEU205     -0.1245
     86  CA        44.7330   -5.2100    5.2420 C.3   205  LEU205      0.1561
     87  C         45.8750   -4.5770    6.0100 C.2   205  LEU205      0.2260
     88  O         45.7170   -3.5340    6.6270 O.2   205  LEU205     -0.2867
     89  CB        44.0630   -6.2910    6.0910 C.3   205  LEU205      0.0270
     90  CG        42.7330   -6.7670    5.4820 C.3   205  LEU205      0.0019
     91  CD1       42.3800   -8.1400    6.0950 C.3   205  LEU205      0.0001
     92  CD2       41.6290   -5.7280    5.6910 C.3   205  LEU205      0.0001
     93  N         46.3660   -0.4850    6.9580 N.3   209  VAL209     -0.1245
     94  CA        46.7160    0.0310    8.2640 C.3   209  VAL209      0.1561
     95  C         48.0650    0.7770    8.2260 C.2   209  VAL209      0.2260
     96  O         48.1940    1.8240    8.8220 O.2   209  VAL209     -0.2867
     97  CB        46.7330   -1.1190    9.3440 C.3   209  VAL209      0.0252
     98  CG1       47.3960   -0.6440   10.6240 C.3   209  VAL209      0.0019
     99  CG2       45.2780   -1.5200    9.6760 C.3   209  VAL209      0.0019
    100  N         38.2210    0.6510    8.6850 N.3   243  TYR243     -0.1227
    101  CA        39.5540    0.1070    8.8970 C.3   243  TYR243      0.1736
    102  C         40.6050    1.1890    8.6730 C.2   243  TYR243      0.2595
    103  O         41.5090    1.0540    7.8230 O.2   243  TYR243     -0.2718
    104  CB        39.7230   -1.0300    7.8830 C.3   243  TYR243      0.0548
    105  CG        40.6360   -2.1280    8.3210 C.ar  243  TYR243     -0.0200
    106  CD1       40.2560   -3.0240    9.3600 C.ar  243  TYR243     -0.0009
    107  CD2       41.8670   -2.3130    7.7060 C.ar  243  TYR243     -0.0009
    108  CE1       41.1040   -4.0900    9.7630 C.ar  243  TYR243      0.0417
    109  CE2       42.7160   -3.3670    8.1040 C.ar  243  TYR243      0.0417
    110  CZ        42.3290   -4.2470    9.1280 C.ar  243  TYR243      0.1957
    111  OH        43.1910   -5.2370    9.5140 O.3   243  TYR243     -0.2866
    112  N         40.5090    2.2560    9.4450 N.am  244  ASN244     -0.1960
    113  CA        41.3850    3.4060    9.2350 C.3   244  ASN244      0.1819
    114  C         41.7230    4.1260   10.5240 C.2   244  ASN244      0.2621
    115  O         41.9330    5.3500   10.5300 O.2   244  ASN244     -0.2715
    116  CB        40.6910    4.3970    8.2610 C.3   244  ASN244      0.1195
    117  CG        39.2700    4.8230    8.7380 C.2   244  ASN244      0.2630
    118  OD1       38.8180    4.5070    9.8700 O.2   244  ASN244     -0.2716
    119  ND2       38.5600    5.5510    7.8730 N.am  244  ASN244     -0.0877
    120  N         41.7760    3.3780   11.6110 N.am  245  ASN245     -0.1972
    121  CA        42.0760    3.9740   12.8810 C.3   245  ASN245      0.1688
    122  C         43.5620    3.8820   13.2140 C.2   245  ASN245      0.2292
    123  O         44.0720    2.8220   13.5140 O.2   245  ASN245     -0.2864
    124  CB        41.2190    3.3130   13.9600 C.3   245  ASN245      0.1181
    125  CG        41.2450    4.0770   15.2700 C.2   245  ASN245      0.2629
    126  OD1       41.4720    5.2820   15.2920 O.2   245  ASN245     -0.2716
    127  ND2       41.0110    3.3820   16.3730 N.am  245  ASN245     -0.0877
    128  N         47.2440    3.7690   14.9170 N.3   247  SER247     -0.1217
    129  CA        47.6510    3.0160   16.1000 C.3   247  SER247      0.1889
    130  C         49.1470    3.1030   16.1860 C.2   247  SER247      0.2288
    131  O         49.7580    3.8130   15.3730 O.2   247  SER247     -0.2866
    132  CB        47.2900    1.5550   15.9410 C.3   247  SER247      0.2089
    133  OG        47.9750    1.0310   14.8090 O.3   247  SER247     -0.2183
    134  N         51.1970    0.9080   15.3980 N.3   249  GLY249     -0.1210
    135  CA        51.8160    0.0060   14.4430 C.3   249  GLY249      0.1956
    136  C         50.8660   -1.1820   14.3870 C.2   249  GLY249      0.2612
    137  O         50.0520   -1.3360   15.2990 O.2   249  GLY249     -0.2717
    138  N         50.8930   -1.9630   13.3080 N.am  250  TYR250     -0.1962
    139  CA        50.0380   -3.1460   13.2030 C.3   250  TYR250      0.1771
    140  C         50.8680   -4.3760   13.6280 C.2   250  TYR250      0.2620
    141  O         52.0950   -4.3160   13.7590 O.2   250  TYR250     -0.2715
    142  CB        49.5330   -3.3540   11.7660 C.3   250  TYR250      0.0574
    143  CG        50.6240   -3.8020   10.8090 C.ar  250  TYR250     -0.0198
    144  CD1       51.0340   -5.1500   10.7400 C.ar  250  TYR250     -0.0009
    145  CD2       51.3280   -2.8700   10.0620 C.ar  250  TYR250     -0.0009
    146  CE1       52.1280   -5.5510    9.9480 C.ar  250  TYR250      0.0417
    147  CE2       52.4210   -3.2530    9.2740 C.ar  250  TYR250      0.0417
    148  CZ        52.8120   -4.5910    9.2150 C.ar  250  TYR250      0.1957
    149  OH        53.8410   -4.9350    8.3730 O.3   250  TYR250     -0.2866
    150  N         50.1880   -5.4960   13.8350 N.am  251  GLY251     -0.1940
    151  CA        50.8730   -6.7150   14.2240 C.3   251  GLY251      0.2014
    152  C         50.0420   -7.8590   13.7120 C.2   251  GLY251      0.2639
    153  O         48.8200   -7.6920   13.5160 O.2   251  GLY251     -0.2714
    154  N         50.6700   -9.0060   13.4660 N.am  252  GLY252     -0.1939
    155  CA        49.9020  -10.1510   12.9960 C.3   252  GLY252      0.2014
    156  C         49.8440  -10.4510   11.5110 C.2   252  GLY252      0.2639
    157  O         50.8290  -10.2120   10.7860 O.2   252  GLY252     -0.2714
    158  N         48.7060  -11.0180   11.0730 N.am  253  TYR253     -0.1959
    159  CA        48.4840  -11.3630    9.6710 C.3   253  TYR253      0.1771
    160  C         49.3160  -12.4940    9.0800 C.2   253  TYR253      0.2619
    161  O         49.1760  -12.7510    7.8670 O.2   253  TYR253     -0.2715
    162  CB        48.7280  -10.1380    8.7450 C.3   253  TYR253      0.0574
    163  CG        47.9770   -8.8810    9.0990 C.ar  253  TYR253     -0.0198
    164  CD1       48.6430   -7.7550    9.5800 C.ar  253  TYR253     -0.0009
    165  CD2       46.6270   -8.7700    8.8010 C.ar  253  TYR253     -0.0009
    166  CE1       47.9870   -6.5330    9.7200 C.ar  253  TYR253      0.0417
    167  CE2       45.9420   -7.5650    8.9410 C.ar  253  TYR253      0.0417
    168  CZ        46.6240   -6.4410    9.3930 C.ar  253  TYR253      0.1957
    169  OH        45.9120   -5.2640    9.4960 O.3   253  TYR253     -0.2866
    170  N         50.1680  -13.1700    9.8430 N.am  254  CYS254     -0.1968
    171  CA        51.0040  -14.2150    9.2530 C.3   254  CYS254      0.1712
    172  C         51.7830  -13.6750    8.0740 C.2   254  CYS254      0.2296
    173  O         51.9070  -14.3220    7.0120 O.2   254  CYS254     -0.2864
    174  CB        50.2100  -15.4610    8.8050 C.3   254  CYS254      0.0983
    175  SG        50.0180  -16.7050   10.1200 S.3   254  CYS254     -0.0798
    176  N         47.0210   -6.2380   22.1020 N.3   307  MET307     -0.1230
    177  CA        46.7190   -5.1640   21.1360 C.3   307  MET307      0.1702
    178  C         45.2690   -4.7570   21.0020 C.2   307  MET307      0.2592
    179  O         44.9290   -3.5430   20.8970 O.2   307  MET307     -0.2718
    180  CB        47.2590   -5.5220   19.7580 C.3   307  MET307      0.0401
    181  CG        47.5290   -4.2930   18.8920 C.3   307  MET307      0.0596
    182  SD        48.8870   -4.6090   17.7400 S.3   307  MET307     -0.1393
    183  CE        48.2800   -6.1580   16.9770 C.3   307  MET307      0.0692
    184  N         44.4260   -5.7810   20.9720 N.am  308  LYS308     -0.1980
    185  CA        43.0060   -5.5610   20.8560 C.3   308  LYS308      0.1596
    186  C         42.3920   -5.9550   22.1760 C.2   308  LYS308      0.2287
    187  O         42.9060   -6.8180   22.8860 O.2   308  LYS308     -0.2864
    188  CB        42.4060   -6.3800   19.6810 C.3   308  LYS308      0.0298
    189  CG        40.8830   -6.1560   19.4400 C.3   308  LYS308      0.0038
    190  CD        40.4820   -6.2230   17.9370 C.3   308  LYS308      0.0206
    191  CE        38.9430   -6.2550   17.7920 C.3   308  LYS308      0.1093
    192  NZ        38.2900   -7.3940   18.5950 N.3   308  LYS308     -0.1314
    193  N         47.6450    2.0290   23.1700 N.3   367  ASN367     -0.1225
    194  CA        47.2300    1.8760   21.8050 C.3   367  ASN367      0.1785
    195  C         45.8010    2.3140   21.5130 C.2   367  ASN367      0.2597
    196  O         45.5710    2.9040   20.4850 O.2   367  ASN367     -0.2718
    197  CB        47.4370    0.4540   21.3450 C.3   367  ASN367      0.1169
    198  CG        47.6390    0.3750   19.8650 C.2   367  ASN367      0.2627
    199  OD1       48.5280    1.0270   19.3150 O.2   367  ASN367     -0.2716
    200  ND2       46.8150   -0.4020   19.1980 N.am  367  ASN367     -0.0877
    201  N         44.8230    1.9980   22.3490 N.am  368  ARG368     -0.1979
    202  CA        43.4700    2.5170   22.0940 C.3   368  ARG368      0.1597
    203  C         43.0970    3.2620   23.3500 C.2   368  ARG368      0.2287
    204  O         43.5900    2.9350   24.4220 O.2   368  ARG368     -0.2864
    205  CB        42.4130    1.4350   21.8810 C.3   368  ARG368      0.0334
    206  CG        42.6390    0.4370   20.7400 C.3   368  ARG368      0.0492
    207  CD        42.3090    0.8920   19.3150 C.3   368  ARG368      0.2205
    208  NE        43.3550    1.7820   18.8350 N.pl3 368  ARG368     -0.0865
    209  CZ        43.8430    1.8550   17.5980 C.cat 368  ARG368      0.5346
    210  NH1       43.4230    1.0910   16.6040 N.pl3 368  ARG368      0.1354
    211  NH2       44.7890    2.7340   17.3720 N.pl3 368  ARG368      0.1354
    212  N         37.8710    2.0760   17.4110 N.3   388  ASN388     -0.1225
    213  CA        37.6660    0.7480   16.8360 C.3   388  ASN388      0.1785
    214  C         38.9970    0.1200   16.3650 C.2   388  ASN388      0.2597
    215  O         39.9190    0.8180   15.9660 O.2   388  ASN388     -0.2718
    216  CB        36.6280    0.7570   15.6620 C.3   388  ASN388      0.1169
    217  CG        36.6410    2.0620   14.8090 C.2   388  ASN388      0.2627
    218  OD1       35.9780    3.0390   15.1690 O.2   388  ASN388     -0.2716
    219  ND2       37.3760    2.0640   13.6720 N.am  388  ASN388     -0.0877
    220  N         39.0860   -1.2020   16.4860 N.am  389  ASP389     -0.1974
    221  CA        40.2190   -2.0410   16.0340 C.3   389  ASP389      0.1709
    222  C         41.6770   -1.5150   15.9190 C.2   389  ASP389      0.2293
    223  O         41.8790   -0.3250   15.6230 O.2   389  ASP389     -0.2864
    224  CB        39.7980   -2.6440   14.6830 C.3   389  ASP389      0.1436
    225  CG        38.2680   -2.6120   14.4770 C.2   389  ASP389      0.3671
    226  OD1       37.8100   -2.2910   13.3390 O.co2 389  ASP389     -0.2456
    227  OD2       37.5390   -2.9080   15.4720 O.co2 389  ASP389     -0.2456
@<TRIPOS>BOND
     1    68    69    1
     2    69    70    1
     3    69    72    1
     4    70    71    2
     5    39    38   ar
     6    39    37   ar
     7    72    73    1
     8    38    36   ar
     9    37    35   ar
    10    77    78    1
    11    85    86    1
    12    73    74    1
    13    36    34   ar
    14    79    78    1
    15    79    80    2
    16    35    34   ar
    17    78    81    1
    18    74    75    1
    19    34    33    1
    20    86    87    1
    21    86    89    1
    22    81    82    1
    23    90    92    1
    24    90    89    1
    25    90    91    1
    26    87    88    2
    27    83    82    2
    28    20    21    1
    29    75    76    1
    30    33    30    1
    31    82    84   am
    32    19    17    1
    33    15    14    1
    34    15    16    2
    35    93    94    1
    36   173   172    2
    37    23    22    2
    38    14    17    1
    39    14    13    1
    40    22    21    1
    41    22    29   am
    42    21    24    1
    43    30    29    1
    44    30    31    1
    45    17    18    1
    46   107   109   ar
    47   107   105   ar
    48   103   102    2
    49   161   160    2
    50   119   117   am
    51   104   105    1
    52   104   101    1
    53   172   171    1
    54   109   110   ar
    55    95    94    1
    56    95    96    2
    57   116   117    1
    58   116   113    1
    59    94    97    1
    60   105   106   ar
    61   149   148    1
    62   102   101    1
    63   102   112   am
    64    31    32    2
    65    31    40   am
    66   100   101    1
    67    24    25    1
    68   117   118    2
    69   162   163    1
    70   162   159    1
    71   165   167   ar
    72   165   163   ar
    73   174   171    1
    74   174   175    1
    75   167   168   ar
    76   160   159    1
    77   160   170   am
    78   163   164   ar
    79   110   111    1
    80   110   108   ar
    81    27    26   ar
    82   148   147   ar
    83   148   146   ar
    84   113   112    1
    85   113   114    1
    86   171   170    1
    87   147   145   ar
    88    28    26   ar
    89    97    99    1
    90    97    98    1
    91   106   108   ar
    92   168   169    1
    93   168   166   ar
    94    26    25    1
    95   164   166   ar
    96   159   158    1
    97    40    41    1
    98   146   144   ar
    99   145   143   ar
   100    57    56    1
   101   114   115    2
   102   114   120   am
   103   144   143   ar
   104   157   156    2
   105   143   142    1
   106    41    44    1
   107    41    42    1
   108   158   156   am
   109   156   155    1
   110    54    55    1
   111    54    53    1
   112   120   121    1
   113    44    45    1
   114    56    55    2
   115    56    58    1
   116    43    42    2
   117   142   139    1
   118    42    48   am
   119    45    47    1
   120    45    46    1
   121    53    52    1
   122    48    49    1
   123   121   122    1
   124   121   124    1
   125   155   154    1
   126   139   138    1
   127   139   140    1
   128   122   123    2
   129   138   136   am
   130   226   225   ar
   131   154   152   am
   132   153   152    2
   133    49    52    1
   134    49    50    1
   135   140   141    2
   136   140   150   am
   137   219   217   am
   138   152   151    1
   139   150   151    1
   140   124   125    1
   141   136   135    1
   142   136   137    2
   143   135   134    1
   144   225   224    1
   145   225   227   ar
   146   224   221    1
   147   217   218    2
   148   217   216    1
   149   133   132    1
   150   128   129    1
   151    50    51    2
   152    50    59   am
   153   125   126    2
   154   125   127   am
   155   131   130    2
   156    12    11    1
   157   223   222    2
   158    10    11   ar
   159    10     8   ar
   160   216   213    1
   161    59    60    1
   162   222   221    1
   163   132   129    1
   164   215   214    2
   165   221   220    1
   166   129   130    1
   167    11     9   ar
   168     8     6   ar
   169   214   220   am
   170   214   213    1
   171     4     3    2
   172   210   209    1
   173     3     2    1
   174   213   212    1
   175   183   182    1
   176    60    63    1
   177    60    61    1
   178   211   209    1
   179   209   208    2
   180     9     7   ar
   181    63    64    1
   182     6     7   ar
   183     6     5    1
   184    62    61    2
   185   182   181    1
   186   191   190    1
   187   191   192    1
   188   190   189    1
   189     2     5    1
   190     2     1    1
   191   208   207    1
   192   181   180    1
   193    64    65    1
   194    66    65   ar
   195   200   198   am
   196   199   198    2
   197   207   206    1
   198   189   188    1
   199   188   185    1
   200    65    67   ar
   201   180   177    1
   202   198   197    1
   203   196   195    2
   204   206   205    1
   205   185   184    1
   206   185   186    1
   207   179   178    2
   208   184   178   am
   209   178   177    1
   210   177   176    1
   211   197   194    1
   212   195   194    1
   213   195   201   am
   214   194   193    1
   215   205   202    1
   216   202   201    1
   217   202   203    1
   218   186   187    2
   219   203   204    2
