@<TRIPOS>MOLECULE
tmp/3pjqA00.pdb
 123 119 0 0 0
SMALL
GASTEIGER

@<TRIPOS>ATOM
      1  N        -18.1080   12.5480    8.5780 N.3    37  ARG37      -0.1245
      2  CA       -16.7370   12.3300    8.0510 C.3    37  ARG37       0.1563
      3  C        -15.7810   11.8950    9.1590 C.2    37  ARG37       0.2260
      4  O        -16.1300   11.9330   10.3150 O.2    37  ARG37      -0.2867
      5  CB       -16.2300   13.6460    7.4340 C.3    37  ARG37       0.0307
      6  CG       -16.9500   13.9750    6.0920 C.3    37  ARG37       0.0489
      7  CD       -16.0810   14.6470    5.0510 C.3    37  ARG37       0.2205
      8  NE       -14.9120   13.8270    4.8130 N.pl3  37  ARG37      -0.0865
      9  CZ       -13.6860   14.2970    4.5560 C.cat  37  ARG37       0.5346
     10  NH1      -12.6750   13.4250    4.3980 N.pl3  37  ARG37       0.1354
     11  NH2      -13.4560   15.6050    4.4680 N.pl3  37  ARG37       0.1354
     12  N        -20.5360   19.7210    3.9990 N.3    59  SER59      -0.1202
     13  CA       -19.3080   18.9430    4.2170 C.3    59  SER59       0.2020
     14  C        -18.0220   19.8120    4.2010 C.2    59  SER59       0.2619
     15  O        -16.9490   19.2710    4.3700 O.2    59  SER59      -0.2717
     16  CB       -19.1670   17.8080    3.1870 C.3    59  SER59       0.2103
     17  OG       -19.1170   18.3860    1.8670 O.3    59  SER59      -0.2182
     18  N        -18.1220   21.1230    3.9660 N.am   60  PHE60      -0.1961
     19  CA       -16.9530   22.0470    3.9870 C.3    60  PHE60       0.1771
     20  C        -16.2130   21.8220    5.3080 C.2    60  PHE60       0.2619
     21  O        -16.8390   21.8270    6.3650 O.2    60  PHE60      -0.2715
     22  CB       -17.4300   23.5210    3.8110 C.3    60  PHE60       0.0574
     23  CG       -16.3060   24.5290    3.6240 C.ar   60  PHE60      -0.0200
     24  CD1      -15.2470   24.2830    2.7390 C.ar   60  PHE60      -0.0042
     25  CD2      -16.3210   25.7380    4.3300 C.ar   60  PHE60      -0.0042
     26  CE1      -14.1960   25.2380    2.5750 C.ar   60  PHE60      -0.0003
     27  CE2      -15.3030   26.7360    4.1350 C.ar   60  PHE60      -0.0003
     28  CZ       -14.2500   26.4870    3.2680 C.ar   60  PHE60      -0.0000
     29  N        -14.9170   21.5190    5.2350 N.am   61  ASP61      -0.1971
     30  CA       -14.0520   21.4150    6.4120 C.3    61  ASP61       0.1709
     31  C        -14.2580   22.5570    7.4380 C.2    61  ASP61       0.2293
     32  O        -14.3470   22.3030    8.6590 O.2    61  ASP61      -0.2864
     33  CB       -12.5820   21.4720    5.9700 C.3    61  ASP61       0.1436
     34  CG       -12.0610   20.1600    5.3960 C.2    61  ASP61       0.3671
     35  OD1      -12.8310   19.2330    5.1160 O.co2  61  ASP61      -0.2456
     36  OD2      -10.8530   20.0460    5.2060 O.co2  61  ASP61      -0.2456
     37  N         -8.6740   27.1180    5.4400 N.3   121  TYR121     -0.1241
     38  CA        -8.0970   25.7960    5.8360 C.3   121  TYR121      0.1605
     39  C         -6.9100   26.0300    6.7720 C.2   121  TYR121      0.2264
     40  O         -6.1740   27.0680    6.6320 O.2   121  TYR121     -0.2867
     41  CB        -7.6560   25.0990    4.5940 C.3   121  TYR121      0.0534
     42  CG        -8.8120   24.6100    3.7050 C.ar  121  TYR121     -0.0201
     43  CD1       -9.1350   25.3110    2.5170 C.ar  121  TYR121     -0.0009
     44  CD2       -9.5370   23.4120    4.0140 C.ar  121  TYR121     -0.0009
     45  CE1      -10.1740   24.8710    1.6520 C.ar  121  TYR121      0.0417
     46  CE2      -10.5980   22.9480    3.1530 C.ar  121  TYR121      0.0417
     47  CZ       -10.8740   23.6680    1.9740 C.ar  121  TYR121      0.1957
     48  OH       -11.8610   23.2840    1.1120 O.3   121  TYR121     -0.2866
     49  N         -3.8670   24.8720    7.4470 N.3   123  THR123     -0.1218
     50  CA        -2.4650   24.9130    6.9620 C.3   123  THR123      0.1862
     51  C         -2.1430   26.2740    6.3660 C.2   123  THR123      0.2287
     52  O         -0.9840   26.5790    6.1320 O.2   123  THR123     -0.2866
     53  CB        -2.2980   23.9050    5.8560 C.3   123  THR123      0.1770
     54  OG1       -3.5460   23.8460    5.1500 O.3   123  THR123     -0.2211
     55  CG2       -2.0230   22.4580    6.4330 C.3   123  THR123      0.0375
     56  N          0.7480   10.5880    5.3770 N.3   247  ARG247     -0.1245
     57  CA         0.2600   11.1670    4.0900 C.3   247  ARG247      0.1563
     58  C          1.2130   12.2090    3.5590 C.2   247  ARG247      0.2260
     59  O          1.7400   13.0550    4.3240 O.2   247  ARG247     -0.2867
     60  CB        -1.0820   11.8470    4.3420 C.3   247  ARG247      0.0307
     61  CG        -1.6090   12.7660    3.2290 C.3   247  ARG247      0.0489
     62  CD        -2.9830   13.3160    3.6060 C.3   247  ARG247      0.2205
     63  NE        -3.4050   14.2140    2.5310 N.pl3 247  ARG247     -0.0865
     64  CZ        -4.5580   14.8740    2.5040 C.cat 247  ARG247      0.5346
     65  NH1       -5.4720   14.6890    3.4850 N.pl3 247  ARG247      0.1354
     66  NH2       -4.8250   15.6630    1.4700 N.pl3 247  ARG247      0.1354
     67  N         -7.7480   14.3700   -7.5210 N.3   313  ARG313     -0.1231
     68  CA        -8.0870   15.3780   -6.4870 C.3   313  ARG313      0.1694
     69  C         -8.4510   14.7260   -5.1480 C.2   313  ARG313      0.2592
     70  O         -7.7760   13.7520   -4.7920 O.2   313  ARG313     -0.2718
     71  CB        -9.1090   16.3500   -6.9730 C.3   313  ARG313      0.0321
     72  CG        -8.4520   17.3000   -7.9170 C.3   313  ARG313      0.0489
     73  CD        -9.4660   18.2470   -8.4920 C.3   313  ARG313      0.2205
     74  NE        -9.8170   19.3330   -7.5720 N.pl3 313  ARG313     -0.0865
     75  CZ        -9.2000   20.5200   -7.5060 C.cat 313  ARG313      0.5346
     76  NH1       -8.1420   20.7750   -8.2840 N.pl3 313  ARG313      0.1354
     77  NH2       -9.6300   21.4600   -6.6510 N.pl3 313  ARG313      0.1354
     78  N         -9.4990   15.2000   -4.4700 N.am  314  TRP314     -0.1976
     79  CA        -9.9380   14.6230   -3.2080 C.3   314  TRP314      0.1640
     80  C        -11.1010   13.6190   -3.3340 C.2   314  TRP314      0.2290
     81  O        -11.5770   13.0690   -2.3160 O.2   314  TRP314     -0.2864
     82  CB       -10.2580   15.6740   -2.1650 C.3   314  TRP314      0.0576
     83  CG        -9.0350   16.4660   -1.8030 C.ar  314  TRP314      0.0006
     84  CD1       -8.1970   16.2420   -0.7450 C.ar  314  TRP314      0.0946
     85  CD2       -8.4900   17.5870   -2.5150 C.ar  314  TRP314      0.0152
     86  NE1       -7.1960   17.1680   -0.7280 N.ar  314  TRP314     -0.2442
     87  CE2       -7.3300   17.9990   -1.8090 C.ar  314  TRP314      0.0810
     88  CE3       -8.8620   18.2770   -3.6820 C.ar  314  TRP314      0.0012
     89  CZ2       -6.5500   19.0960   -2.2070 C.ar  314  TRP314      0.0191
     90  CZ3       -8.0830   19.3640   -4.0960 C.ar  314  TRP314      0.0001
     91  CH2       -6.9340   19.7690   -3.3520 C.ar  314  TRP314      0.0015
     92  N        -10.9660   10.3430   -4.4150 N.3   316  ARG316     -0.1245
     93  CA       -10.4390    9.2870   -3.5290 C.3   316  ARG316      0.1563
     94  C        -11.3570    8.0240   -3.4940 C.2   316  ARG316      0.2260
     95  O        -11.7360    7.5020   -2.4310 O.2   316  ARG316     -0.2867
     96  CB       -10.0900    9.8800   -2.1410 C.3   316  ARG316      0.0307
     97  CG        -8.9610   10.9960   -2.3140 C.3   316  ARG316      0.0489
     98  CD        -8.4810   11.6270   -1.0170 C.3   316  ARG316      0.2205
     99  NE        -9.4780   12.4590   -0.3290 N.pl3 316  ARG316     -0.0865
    100  CZ        -9.2660   13.0650    0.8440 C.cat 316  ARG316      0.5346
    101  NH1       -8.0640   12.9410    1.4440 N.pl3 316  ARG316      0.1354
    102  NH2      -10.2180   13.8390    1.3750 N.pl3 316  ARG316      0.1354
    103  N        -20.1830   15.5010   -2.6690 N.3   364  GLU364     -0.1245
    104  CA       -19.8040   16.1840   -1.4390 C.3   364  GLU364      0.1567
    105  C        -20.8620   16.0980   -0.3270 C.2   364  GLU364      0.2260
    106  O        -21.0230   16.9770    0.4960 O.2   364  GLU364     -0.2867
    107  CB       -19.3290   17.6290   -1.7160 C.3   364  GLU364      0.0388
    108  CG       -18.1010   17.6770   -2.6940 C.3   364  GLU364      0.1160
    109  CD       -16.9930   16.6780   -2.3270 C.2   364  GLU364      0.3649
    110  OE1      -16.4160   16.7880   -1.2140 O.co2 364  GLU364     -0.2457
    111  OE2      -16.7250   15.7410   -3.1400 O.co2 364  GLU364     -0.2457
    112  N        -21.4720   13.2210    2.4870 N.3   366  TYR366     -0.1241
    113  CA       -20.8170   12.0130    2.9810 C.3   366  TYR366      0.1605
    114  C        -21.6780   11.3320    3.9900 C.2   366  TYR366      0.2264
    115  O        -22.2280   11.9850    4.8690 O.2   366  TYR366     -0.2867
    116  CB       -19.4880   12.2880    3.6800 C.3   366  TYR366      0.0534
    117  CG       -18.4850   13.0280    2.8390 C.ar  366  TYR366     -0.0201
    118  CD1      -18.7930   14.2990    2.2710 C.ar  366  TYR366     -0.0009
    119  CD2      -17.2250   12.4850    2.6030 C.ar  366  TYR366     -0.0009
    120  CE1      -17.8430   14.9810    1.4740 C.ar  366  TYR366      0.0417
    121  CE2      -16.2790   13.1840    1.8390 C.ar  366  TYR366      0.0417
    122  CZ       -16.5750   14.3980    1.2800 C.ar  366  TYR366      0.1957
    123  OH       -15.6050   15.0650    0.5200 O.3   366  TYR366     -0.2866
@<TRIPOS>BOND
     1    73    72    1
     2    73    74    1
     3    76    75    1
     4    72    71    1
     5    74    75    2
     6    67    68    1
     7    75    77    1
     8    71    68    1
     9    68    69    1
    10    69    70    2
    11    69    78   am
    12    78    79    1
    13    92    93    1
    14    90    88   ar
    15    90    91   ar
    16    88    85   ar
    17    93    94    1
    18    93    96    1
    19    94    95    2
    20    91    89   ar
    21    80    79    1
    22    80    81    2
    23    79    82    1
    24   111   109   ar
    25   108   109    1
    26   108   107    1
    27   103   104    1
    28    85    87   ar
    29    85    83   ar
    30   109   110   ar
    31    97    96    1
    32    97    98    1
    33    89    87   ar
    34    82    83    1
    35    87    86   ar
    36    83    84   ar
    37   107   104    1
    38   104   105    1
    39    98    99    1
    40    84    86   ar
    41    99   100    2
    42   105   106    2
    43   123   122    1
    44   100   102    1
    45   100   101    1
    46    48    47    1
    47   122   120   ar
    48   122   121   ar
    49    66    64    1
    50   120   118   ar
    51    45    47   ar
    52    45    43   ar
    53   121   119   ar
    54    17    16    1
    55    47    46   ar
    56   118   117   ar
    57   112   113    1
    58    64    63    2
    59    64    65    1
    60    43    42   ar
    61    63    62    1
    62    26    24   ar
    63    26    28   ar
    64   119   117   ar
    65    24    23   ar
    66   117   116    1
    67   113   116    1
    68   113   114    1
    69    46    44   ar
    70    16    13    1
    71    61    62    1
    72    61    60    1
    73    28    27   ar
    74    58    57    1
    75    58    59    2
    76    23    22    1
    77    23    25   ar
    78    42    44   ar
    79    42    41    1
    80    22    19    1
    81    18    19    1
    82    18    14   am
    83    19    20    1
    84   114   115    2
    85    12    13    1
    86    57    60    1
    87    57    56    1
    88    27    25   ar
    89    14    13    1
    90    14    15    2
    91    10     9    1
    92    11     9    1
    93     9     8    2
    94    41    38    1
    95     8     7    1
    96     7     6    1
    97    35    34   ar
    98    54    53    1
    99    36    34   ar
   100    29    20   am
   101    29    30    1
   102    20    21    2
   103    34    33    1
   104    37    38    1
   105    38    39    1
   106    53    55    1
   107    53    50    1
   108    33    30    1
   109     6     5    1
   110    52    51    2
   111    51    50    1
   112    30    31    1
   113    40    39    2
   114    50    49    1
   115     5     2    1
   116    31    32    2
   117     2     1    1
   118     2     3    1
   119     3     4    2
