@<TRIPOS>MOLECULE
tmp/3pjuA00.pdb
 233 220 0 0 0
SMALL
GASTEIGER

@<TRIPOS>ATOM
      1  N         22.9520   37.0310    9.7260 N.3    32  GLN32      -0.1245
      2  CA        22.0420   36.9470    8.5870 C.3    32  GLN32       0.1566
      3  C         21.0840   35.7800    8.7960 C.2    32  GLN32       0.2260
      4  O         21.5100   34.6960    9.1970 O.2    32  GLN32      -0.2867
      5  CB        22.8040   36.7860    7.2750 C.3    32  GLN32       0.0367
      6  CG        22.8470   38.0350    6.4420 C.3    32  GLN32       0.0905
      7  CD        23.5210   37.8240    5.0950 C.2    32  GLN32       0.2608
      8  OE1       24.5560   37.1520    4.9940 O.2    32  GLN32      -0.2717
      9  NE2       22.9430   38.4140    4.0470 N.am   32  GLN32      -0.0878
     10  N         23.2100   32.9270   10.7420 N.3    47  LYS47      -0.1231
     11  CA        24.6260   32.7950   10.5000 C.3    47  LYS47       0.1693
     12  C         25.3680   33.9830   11.1410 C.2    47  LYS47       0.2592
     13  O         24.9770   35.1370   10.9590 O.2    47  LYS47      -0.2718
     14  CB        24.8910   32.7230    8.9960 C.3    47  LYS47       0.0285
     15  CG        26.3620   32.7820    8.6210 C.3    47  LYS47       0.0035
     16  CD        27.1570   31.6480    9.2540 C.3    47  LYS47       0.0206
     17  CE        27.9430   30.9420    8.1810 C.3    47  LYS47       0.1093
     18  NZ        29.3460   30.8810    8.4920 N.3    47  LYS47      -0.1314
     19  N         26.4210   33.6990   11.9060 N.am   48  VAL48      -0.1966
     20  CA        27.1740   34.7480   12.5880 C.3    48  VAL48       0.1727
     21  C         28.3150   35.2040   11.7080 C.2    48  VAL48       0.2616
     22  O         29.1590   34.3980   11.3130 O.2    48  VAL48      -0.2715
     23  CB        27.7690   34.2650   13.9170 C.3    48  VAL48       0.0290
     24  CG1       28.6180   35.3570   14.5460 C.3    48  VAL48       0.0023
     25  CG2       26.6710   33.8000   14.8690 C.3    48  VAL48       0.0023
     26  N         28.3240   36.4980   11.3970 N.am   49  LEU49      -0.1963
     27  CA        29.3740   37.1000   10.5900 C.3    49  LEU49       0.1728
     28  C         30.2240   38.0450   11.4440 C.2    49  LEU49       0.2617
     29  O         29.7050   38.7820   12.2740 O.2    49  LEU49      -0.2715
     30  CB        28.7640   37.8610    9.4230 C.3    49  LEU49       0.0311
     31  CG        28.5890   37.1660    8.0790 C.3    49  LEU49       0.0022
     32  CD1       29.0040   35.7230    8.1750 C.3    49  LEU49       0.0001
     33  CD2       27.1510   37.3060    7.6260 C.3    49  LEU49       0.0001
     34  N         31.5340   38.0140   11.2420 N.am   50  SER50      -0.1936
     35  CA        32.4480   38.8140   12.0450 C.3    50  SER50       0.2055
     36  C         32.5900   40.2150   11.4810 C.2    50  SER50       0.2642
     37  O         32.8450   40.3920   10.2830 O.2    50  SER50      -0.2714
     38  CB        33.8230   38.1580   12.0960 C.3    50  SER50       0.2130
     39  OG        34.5320   38.6000   13.2320 O.3    50  SER50      -0.2179
     40  N         32.4250   41.2090   12.3470 N.am   51  ARG51      -0.1977
     41  CA        32.6110   42.6000   11.9440 C.3    51  ARG51       0.1597
     42  C         33.6480   43.3110   12.8000 C.2    51  ARG51       0.2287
     43  O         33.5660   43.3170   14.0310 O.2    51  ARG51      -0.2864
     44  CB        31.3000   43.3670   12.0010 C.3    51  ARG51       0.0334
     45  CG        30.4000   43.0980   10.8320 C.3    51  ARG51       0.0492
     46  CD        31.1210   43.2920    9.5070 C.3    51  ARG51       0.2205
     47  NE        30.2380   42.9410    8.3930 N.pl3  51  ARG51      -0.0865
     48  CZ        30.2380   41.7530    7.7920 C.cat  51  ARG51       0.5346
     49  NH1       31.0860   40.8040    8.1830 N.pl3  51  ARG51       0.1354
     50  NH2       29.3980   41.5090    6.7930 N.pl3  51  ARG51       0.1354
     51  N         34.1840   44.2170    6.8990 N.3    61  PRO61      -0.2102
     52  CA        33.6520   42.8600    6.7070 C.3    61  PRO61       0.1504
     53  C         34.7260   41.7670    6.7540 C.2    61  PRO61       0.2576
     54  O         35.8530   41.9830    6.3120 O.2    61  PRO61      -0.2718
     55  CB        33.0160   42.9320    5.3160 C.3    61  PRO61       0.0282
     56  CG        33.8160   43.9870    4.5970 C.3    61  PRO61       0.0208
     57  CD        34.1960   45.0010    5.6500 C.3    61  PRO61       0.0893
     58  N         34.3610   40.6010    7.2830 N.am   62  ALA62      -0.1966
     59  CA        35.2550   39.4510    7.3450 C.3    62  ALA62       0.1728
     60  C         35.9480   39.1790    6.0100 C.2    62  ALA62       0.2616
     61  O         37.1240   38.8170    5.9650 O.2    62  ALA62      -0.2715
     62  CB        34.4960   38.2330    7.7980 C.3    62  ALA62       0.0334
     63  N         35.2270   39.3530    4.9140 N.am   63  GLY63      -0.1955
     64  CA        35.8340   39.1930    3.6070 C.3    63  GLY63       0.1869
     65  C         37.0770   40.0460    3.4480 C.2    63  GLY63       0.2309
     66  O         38.0230   39.6630    2.7550 O.2    63  GLY63      -0.2863
     67  N         39.9310   38.7860    6.9020 N.3    66  LEU66      -0.1245
     68  CA        40.3460   37.3880    7.0500 C.3    66  LEU66       0.1561
     69  C         41.6200   37.0480    6.2850 C.2    66  LEU66       0.2260
     70  O         42.4670   36.3240    6.8000 O.2    66  LEU66      -0.2867
     71  CB        39.2180   36.4290    6.6800 C.3    66  LEU66       0.0270
     72  CG        38.1830   36.2840    7.7860 C.3    66  LEU66       0.0019
     73  CD1       36.9840   35.5380    7.2880 C.3    66  LEU66       0.0001
     74  CD2       38.7910   35.5820    8.9680 C.3    66  LEU66       0.0001
     75  N         44.2930   33.6060   12.4520 N.3    75  THR75      -0.1218
     76  CA        42.9080   33.1300   12.3000 C.3    75  THR75       0.1862
     77  C         42.4370   32.2900   13.4850 C.2    75  THR75       0.2287
     78  O         41.2610   32.3190   13.8310 O.2    75  THR75      -0.2866
     79  CB        42.6510   32.3920   10.9770 C.3    75  THR75       0.1770
     80  OG1       43.7000   31.4460   10.7550 O.3    75  THR75      -0.2211
     81  CG2       42.6300   33.3780    9.8190 C.3    75  THR75       0.0375
     82  N         41.1900   34.5950   16.1430 N.3    78  LEU78      -0.1231
     83  CA        39.8510   35.0790   15.8180 C.3    78  LEU78       0.1693
     84  C         38.7500   34.0880   16.2120 C.2    78  LEU78       0.2592
     85  O         37.7150   34.5060   16.7340 O.2    78  LEU78      -0.2718
     86  CB        39.7360   35.4380   14.3340 C.3    78  LEU78       0.0284
     87  CG        38.3520   35.9440   13.9300 C.3    78  LEU78       0.0019
     88  CD1       38.0990   37.3030   14.5640 C.3    78  LEU78       0.0001
     89  CD2       38.2110   36.0130   12.4130 C.3    78  LEU78       0.0001
     90  N         38.9670   32.7900   15.9650 N.am   79  ASP79      -0.1974
     91  CA        37.9420   31.7780   16.2490 C.3    79  ASP79       0.1709
     92  C         37.7010   31.6790   17.7430 C.2    79  ASP79       0.2293
     93  O         36.5560   31.5440   18.1930 O.2    79  ASP79      -0.2864
     94  CB        38.3350   30.3900   15.7320 C.3    79  ASP79       0.1436
     95  CG        38.3700   30.3050   14.2270 C.2    79  ASP79       0.3671
     96  OD1       37.6940   31.1000   13.5520 O.co2  79  ASP79      -0.2456
     97  OD2       39.0800   29.4200   13.7160 O.co2  79  ASP79      -0.2456
     98  N         35.7450   34.8860   18.5550 N.3    82  MET82      -0.1245
     99  CA        34.4040   34.7460   18.0010 C.3    82  MET82       0.1570
    100  C         33.5680   33.7050   18.7480 C.2    82  MET82       0.2261
    101  O         32.4130   33.9600   19.0890 O.2    82  MET82      -0.2867
    102  CB        34.4780   34.4170   16.5120 C.3    82  MET82       0.0387
    103  CG        34.9370   35.5880   15.6680 C.3    82  MET82       0.0595
    104  SD        33.8550   37.0300   15.8830 S.3    82  MET82      -0.1393
    105  CE        32.2870   36.3770   15.3320 C.3    82  MET82       0.0692
    106  N         28.3820   29.2100   13.0860 N.3    99  LEU99      -0.1231
    107  CA        29.6350   29.9430   13.1830 C.3    99  LEU99       0.1693
    108  C         30.7660   29.1810   12.4870 C.2    99  LEU99       0.2592
    109  O         30.9260   27.9800   12.6930 O.2    99  LEU99      -0.2718
    110  CB        30.0070   30.1740   14.6550 C.3    99  LEU99       0.0284
    111  CG        31.4150   30.7650   14.8680 C.3    99  LEU99       0.0019
    112  CD1       31.4680   32.1750   14.3160 C.3    99  LEU99       0.0001
    113  CD2       31.8300   30.7470   16.3310 C.3    99  LEU99       0.0001
    114  N         31.5560   29.8640   11.6690 N.am  100  ASN100     -0.1960
    115  CA        32.6710   29.2040   11.0170 C.3   100  ASN100      0.1819
    116  C         33.8330   28.8320   11.9390 C.2   100  ASN100      0.2621
    117  O         33.9980   29.3930   13.0220 O.2   100  ASN100     -0.2715
    118  CB        33.2210   30.0680    9.8970 C.3   100  ASN100      0.1195
    119  CG        32.3290   30.0910    8.7020 C.2   100  ASN100      0.2630
    120  OD1       31.7120   31.0990    8.4150 O.2   100  ASN100     -0.2716
    121  ND2       32.2810   28.9900    7.9700 N.am  100  ASN100     -0.0877
    122  N         34.6410   27.8850   11.4680 N.am  101  LEU101     -0.1963
    123  CA        35.9170   27.5400   12.0670 C.3   101  LEU101      0.1728
    124  C         36.8990   27.5300   10.9250 C.2   101  LEU101      0.2616
    125  O         36.5780   27.0320    9.8490 O.2   101  LEU101     -0.2715
    126  CB        35.8430   26.1520   12.6650 C.3   101  LEU101      0.0311
    127  CG        35.9730   26.0550   14.1770 C.3   101  LEU101      0.0022
    128  CD1       35.3820   27.2610   14.8690 C.3   101  LEU101      0.0001
    129  CD2       35.3270   24.7790   14.6640 C.3   101  LEU101      0.0001
    130  N         38.0860   28.0870   11.1340 N.am  102  SER102     -0.1950
    131  CA        39.0940   28.1180   10.0810 C.3   102  SER102      0.1924
    132  C         39.9980   26.8910   10.1380 C.2   102  SER102      0.2314
    133  O         40.0150   26.1620   11.1320 O.2   102  SER102     -0.2863
    134  CB        39.9270   29.3870   10.1850 C.3   102  SER102      0.2116
    135  OG        39.9450   29.8480   11.5210 O.3   102  SER102     -0.2180
    136  N         38.6410   25.1670    2.8420 N.3   137  GLN137     -0.1245
    137  CA        39.5790   24.8080    3.8870 C.3   137  GLN137      0.1566
    138  C         39.1690   23.5560    4.6370 C.2   137  GLN137      0.2260
    139  O         39.4270   23.4360    5.8320 O.2   137  GLN137     -0.2867
    140  CB        39.7700   25.9790    4.8500 C.3   137  GLN137      0.0367
    141  CG        38.4830   26.6260    5.3380 C.3   137  GLN137      0.0905
    142  CD        38.7260   28.0160    5.9310 C.2   137  GLN137      0.2608
    143  OE1       39.3370   28.1610    6.9980 O.2   137  GLN137     -0.2717
    144  NE2       38.2440   29.0400    5.2410 N.am  137  GLN137     -0.0878
    145  N         30.0920   24.5670    4.0810 N.3   161  GLN161     -0.1231
    146  CA        29.4860   25.6310    3.2790 C.3   161  GLN161      0.1698
    147  C         30.2790   25.9000    2.0120 C.2   161  GLN161      0.2592
    148  O         31.3560   25.3450    1.8200 O.2   161  GLN161     -0.2718
    149  CB        29.2730   26.9200    4.0930 C.3   161  GLN161      0.0381
    150  CG        30.5040   27.8010    4.2350 C.3   161  GLN161      0.0905
    151  CD        30.1550   29.2190    4.6670 C.2   161  GLN161      0.2608
    152  OE1       30.8120   29.7900    5.5340 O.2   161  GLN161     -0.2717
    153  NE2       29.1030   29.7860    4.0760 N.am  161  GLN161     -0.0878
    154  N         29.7340   26.7370    1.1400 N.am  162  ARG162     -0.1980
    155  CA        30.3510   27.0130   -0.1600 C.3   162  ARG162      0.1597
    156  C         30.6260   25.7310   -0.9400 C.2   162  ARG162      0.2287
    157  O         31.5320   25.6650   -1.7720 O.2   162  ARG162     -0.2864
    158  CB        31.6140   27.8810   -0.0170 C.3   162  ARG162      0.0334
    159  CG        31.3140   29.3900    0.1730 C.3   162  ARG162      0.0492
    160  CD        32.5980   30.2750    0.1700 C.3   162  ARG162      0.2205
    161  NE        33.4020   30.0270    1.3620 N.pl3 162  ARG162     -0.0865
    162  CZ        33.1530   30.5590    2.5530 C.cat 162  ARG162      0.5346
    163  NH1       32.1360   31.4100    2.7030 N.pl3 162  ARG162      0.1354
    164  NH2       33.9210   30.2490    3.5890 N.pl3 162  ARG162      0.1354
    165  N         23.1170   31.2920   -8.9270 N.3   189  ARG189     -0.1245
    166  CA        23.0440   32.6630   -9.4380 C.3   189  ARG189      0.1563
    167  C         22.2270   32.7640  -10.7260 C.2   189  ARG189      0.2260
    168  O         22.5870   32.1690  -11.7400 O.2   189  ARG189     -0.2867
    169  CB        24.4530   33.2210   -9.6750 C.3   189  ARG189      0.0307
    170  CG        24.5200   34.7210  -10.0740 C.3   189  ARG189      0.0489
    171  CD        23.9860   35.6460   -8.9730 C.3   189  ARG189      0.2205
    172  NE        24.6860   35.5070   -7.6940 N.pl3 189  ARG189     -0.0865
    173  CZ        24.0860   35.1930   -6.5430 C.cat 189  ARG189      0.5346
    174  NH1       22.7690   34.9900   -6.5070 N.pl3 189  ARG189      0.1354
    175  NH2       24.7960   35.0860   -5.4200 N.pl3 189  ARG189      0.1354
    176  N         23.1730   29.3630   -0.7910 N.3   218  GLU218     -0.1231
    177  CA        23.7990   30.5880   -0.2820 C.3   218  GLU218      0.1699
    178  C         23.5790   31.7670   -1.2150 C.2   218  GLU218      0.2592
    179  O         23.3220   31.5850   -2.4070 O.2   218  GLU218     -0.2718
    180  CB        25.3120   30.4080   -0.1250 C.3   218  GLU218      0.0402
    181  CG        25.7440   29.4560    0.9650 C.3   218  GLU218      0.1161
    182  CD        27.2690   29.3930    1.1000 C.2   218  GLU218      0.3649
    183  OE1       27.9780   30.2040    0.4570 O.co2 218  GLU218     -0.2457
    184  OE2       27.7540   28.5350    1.8570 O.co2 218  GLU218     -0.2457
    185  N         23.7080   32.9710   -0.6600 N.am  219  ARG219     -0.1980
    186  CA        23.7580   34.1950   -1.4430 C.3   219  ARG219      0.1597
    187  C         22.6390   34.3200   -2.4650 C.2   219  ARG219      0.2287
    188  O         22.8690   34.6740   -3.6280 O.2   219  ARG219     -0.2864
    189  CB        25.1250   34.3290   -2.1060 C.3   219  ARG219      0.0334
    190  CG        26.2570   34.4330   -1.0780 C.3   219  ARG219      0.0492
    191  CD        27.5950   34.8240   -1.6870 C.3   219  ARG219      0.2205
    192  NE        28.6580   34.5160   -0.7390 N.pl3 219  ARG219     -0.0865
    193  CZ        29.7190   35.2910   -0.4780 C.cat 219  ARG219      0.5346
    194  NH1       29.8840   36.4690   -1.0930 N.pl3 219  ARG219      0.1354
    195  NH2       30.6250   34.8830    0.4170 N.pl3 219  ARG219      0.1354
    196  N         19.6760   36.2260   -4.0930 N.3   221  GLU221     -0.1245
    197  CA        19.5110   37.6680   -4.2330 C.3   221  GLU221      0.1567
    198  C         18.1600   38.0910   -4.7860 C.2   221  GLU221      0.2260
    199  O         17.7900   39.2500   -4.7030 O.2   221  GLU221     -0.2867
    200  CB        20.6240   38.2470   -5.1140 C.3   221  GLU221      0.0388
    201  CG        21.9940   38.2360   -4.4710 C.3   221  GLU221      0.1160
    202  CD        23.0710   38.6400   -5.4520 C.2   221  GLU221      0.3649
    203  OE1       22.7220   38.8260   -6.6360 O.co2 221  GLU221     -0.2457
    204  OE2       24.2460   38.7790   -5.0490 O.co2 221  GLU221     -0.2457
    205  N         19.6240   31.4050    2.0340 N.3   238  GLN238     -0.1231
    206  CA        20.1010   32.6190    2.6840 C.3   238  GLN238      0.1698
    207  C         20.5930   33.6000    1.6250 C.2   238  GLN238      0.2593
    208  O         20.8850   33.2000    0.4920 O.2   238  GLN238     -0.2718
    209  CB        21.1980   32.3220    3.7150 C.3   238  GLN238      0.0381
    210  CG        22.5700   32.0920    3.1370 C.3   238  GLN238      0.0905
    211  CD        23.3320   33.3850    2.9060 C.2   238  GLN238      0.2608
    212  OE1       24.2270   33.4530    2.0620 O.2   238  GLN238     -0.2717
    213  NE2       22.9700   34.4220    3.6470 N.am  238  GLN238     -0.0878
    214  N         20.6600   34.8820    1.9870 N.am  239  GLY239     -0.1942
    215  CA        21.2050   35.8880    1.0960 C.3   239  GLY239      0.2014
    216  C         20.6300   37.2820    1.2490 C.2   239  GLY239      0.2638
    217  O         19.7860   37.5490    2.1130 O.2   239  GLY239     -0.2714
    218  N         21.0850   38.1780    0.3830 N.am  240  GLN240     -0.1977
    219  CA        20.7170   39.5920    0.4760 C.3   240  GLN240      0.1601
    220  C         19.2210   39.8660    0.3220 C.2   240  GLN240      0.2287
    221  O         18.7360   40.9190    0.7410 O.2   240  GLN240     -0.2864
    222  CB        21.5410   40.4190   -0.5130 C.3   240  GLN240      0.0394
    223  CG        22.9310   40.7520    0.0200 C.3   240  GLN240      0.0908
    224  CD        23.8840   41.1900   -1.0640 C.2   240  GLN240      0.2608
    225  OE1       23.4820   41.3950   -2.2130 O.2   240  GLN240     -0.2717
    226  NE2       25.1690   41.3270   -0.7110 N.am  240  GLN240     -0.0878
    227  N         23.6390   41.8430    6.2730 N.3   245  PRO245     -0.2116
    228  CA        24.1340   41.4790    7.6030 C.3   245  PRO245      0.1372
    229  C         23.9510   42.6430    8.5880 C.2   245  PRO245      0.2244
    230  O         24.4330   43.7500    8.3280 O.2   245  PRO245     -0.2868
    231  CB        25.6200   41.2090    7.3600 C.3   245  PRO245      0.0268
    232  CG        25.7230   40.8820    5.8980 C.3   245  PRO245      0.0207
    233  CD        24.6600   41.6880    5.2210 C.3   245  PRO245      0.0892
@<TRIPOS>BOND
     1   168   167    2
     2   167   166    1
     3   170   169    1
     4   170   171    1
     5   169   166    1
     6   166   165    1
     7   171   172    1
     8   172   173    2
     9   203   202   ar
    10   173   174    1
    11   173   175    1
    12   202   204   ar
    13   202   201    1
    14   200   201    1
    15   200   197    1
    16   198   199    2
    17   198   197    1
    18   197   196    1
    19   188   187    2
    20   187   186    1
    21   179   178    2
    22   225   224    2
    23   189   186    1
    24   189   190    1
    25   157   156    2
    26   191   190    1
    27   191   192    1
    28   186   185    1
    29   178   185   am
    30   178   177    1
    31   194   193    1
    32   224   226   am
    33   224   223    1
    34   156   155    1
    35   176   177    1
    36   192   193    2
    37   222   223    1
    38   222   219    1
    39   193   195    1
    40   177   180    1
    41   155   158    1
    42   155   154    1
    43   180   181    1
    44   158   159    1
    45   160   159    1
    46   160   161    1
    47   220   219    1
    48   220   221    2
    49   218   219    1
    50   218   216   am
    51   183   182   ar
    52   208   207    2
    53   181   182    1
    54   215   216    1
    55   215   214    1
    56   182   184   ar
    57   154   147   am
    58   216   217    2
    59   161   162    2
    60   207   214   am
    61   207   206    1
    62   148   147    2
    63   147   146    1
    64   205   206    1
    65   212   211    2
    66   162   163    1
    67   162   164    1
    68   206   209    1
    69    66    65    2
    70   136   137    1
    71   211   210    1
    72   211   213   am
    73   210   209    1
    74   146   145    1
    75   146   149    1
    76    65    64    1
    77    64    63    1
    78   137   138    1
    79   137   140    1
    80     9     7   am
    81   153   151   am
    82   149   150    1
    83   150   151    1
    84    56    55    1
    85    56    57    1
    86   138   139    2
    87   151   152    2
    88   140   141    1
    89    63    60   am
    90     8     7    2
    91     7     6    1
    92   233   232    1
    93   233   227    1
    94   144   142   am
    95    55    52    1
    96   141   142    1
    97    57    51    1
    98   232   231    1
    99   142   143    2
   100    61    60    2
   101    60    59    1
   102   227   228    1
   103    69    70    2
   104    69    68    1
   105    54    53    2
   106     6     5    1
   107    71    68    1
   108    71    72    1
   109    52    53    1
   110    52    51    1
   111    53    58   am
   112    50    48    1
   113    67    68    1
   114     5     2    1
   115    58    59    1
   116    73    72    1
   117    59    62    1
   118   231   228    1
   119   228   229    1
   120    33    31    1
   121    72    74    1
   122    48    49    1
   123    48    47    2
   124   121   119   am
   125    31    32    1
   126    31    30    1
   127    17    18    1
   128    17    16    1
   129   230   229    2
   130    47    46    1
   131   120   119    2
   132     2     3    1
   133     2     1    1
   134    15    14    1
   135    15    16    1
   136   119   118    1
   137     3     4    2
   138    14    11    1
   139    30    27    1
   140    46    45    1
   141    81    79    1
   142   125   124    2
   143   118   115    1
   144   131   132    1
   145   131   134    1
   146   131   130    1
   147   132   133    2
   148   134   135    1
   149    37    36    2
   150    11    10    1
   151    11    12    1
   152    27    26    1
   153    27    28    1
   154    80    79    1
   155    45    44    1
   156   124   130   am
   157   124   123    1
   158    13    12    2
   159    79    76    1
   160   115   114    1
   161   115   116    1
   162    12    19   am
   163    34    28   am
   164    34    35    1
   165    22    21    2
   166    26    21   am
   167    28    29    2
   168   122   116   am
   169   122   123    1
   170    36    35    1
   171    36    40   am
   172   114   108   am
   173    21    20    1
   174    19    20    1
   175   116   117    2
   176    41    44    1
   177    41    40    1
   178    41    42    1
   179    35    38    1
   180   123   126    1
   181    38    39    1
   182    76    75    1
   183    76    77    1
   184    89    87    1
   185   108   109    2
   186   108   107    1
   187    20    23    1
   188   126   127    1
   189    42    43    2
   190   106   107    1
   191   107   110    1
   192    77    78    2
   193    96    95   ar
   194    97    95   ar
   195    23    24    1
   196    23    25    1
   197    87    86    1
   198    87    88    1
   199   127   129    1
   200   127   128    1
   201    95    94    1
   202   112   111    1
   203    86    83    1
   204   110   111    1
   205   111   113    1
   206   105   104    1
   207   103   104    1
   208   103   102    1
   209    94    91    1
   210    83    82    1
   211    83    84    1
   212    90    84   am
   213    90    91    1
   214    84    85    2
   215    91    92    1
   216   102    99    1
   217    92    93    2
   218    99    98    1
   219    99   100    1
   220   100   101    2
