@<TRIPOS>MOLECULE
tmp/3pkaA00.pdb
 226 218 0 0 0
SMALL
GASTEIGER

@<TRIPOS>ATOM
      1  N        -49.5770  -26.8310    2.9620 N.3    34  GLU34      -0.1231
      2  CA       -48.7070  -26.4310    1.8850 C.3    34  GLU34       0.1699
      3  C        -47.4740  -27.2400    1.9210 C.2    34  GLU34       0.2592
      4  O        -47.0850  -27.8140    3.0210 O.2    34  GLU34      -0.2718
      5  CB       -48.3800  -24.9250    2.0020 C.3    34  GLU34       0.0402
      6  CG       -47.4920  -24.6010    3.2250 C.3    34  GLU34       0.1161
      7  CD       -47.1560  -23.1430    3.4150 C.2    34  GLU34       0.3649
      8  OE1      -47.6350  -22.2340    2.6780 O.co2  34  GLU34      -0.2457
      9  OE2      -46.3500  -22.9070    4.3680 O.co2  34  GLU34      -0.2457
     10  N        -46.7940  -27.3800    0.8170 N.am   35  GLY35      -0.1957
     11  CA       -45.4890  -27.9910    0.7850 C.3    35  GLY35       0.1869
     12  C        -45.3910  -29.2920   -0.0210 C.2    35  GLY35       0.2309
     13  O        -44.2880  -29.8340   -0.1380 O.2    35  GLY35      -0.2863
     14  N        -50.2780  -12.9520    4.7330 N.3    93  THR93      -0.1218
     15  CA       -49.6150  -13.1230    6.0370 C.3    93  THR93       0.1862
     16  C        -50.5780  -13.1260    7.2130 C.2    93  THR93       0.2287
     17  O        -50.1850  -13.6350    8.2800 O.2    93  THR93      -0.2866
     18  CB       -48.5620  -11.9800    6.2980 C.3    93  THR93       0.1770
     19  OG1      -49.1960  -10.7150    6.2880 O.3    93  THR93      -0.2211
     20  CG2      -47.5040  -11.9510    5.1960 C.3    93  THR93       0.0375
     21  N        -51.3400  -16.3380    9.1270 N.3    96  TYR96      -0.1227
     22  CA       -50.4820  -17.4700    8.7590 C.3    96  TYR96       0.1736
     23  C        -49.7070  -17.8770    9.9930 C.2    96  TYR96       0.2595
     24  O        -48.8870  -17.1220   10.4700 O.2    96  TYR96      -0.2718
     25  CB       -49.5170  -17.0490    7.6370 C.3    96  TYR96       0.0548
     26  CG       -48.5480  -18.1400    7.2390 C.ar   96  TYR96      -0.0200
     27  CD1      -48.8700  -18.9920    6.1350 C.ar   96  TYR96      -0.0009
     28  CD2      -47.3290  -18.3210    7.8740 C.ar   96  TYR96      -0.0009
     29  CE1      -47.9340  -19.9550    5.7250 C.ar   96  TYR96       0.0417
     30  CE2      -46.4530  -19.2630    7.4810 C.ar   96  TYR96       0.0417
     31  CZ       -46.7580  -20.0930    6.4310 C.ar   96  TYR96       0.1957
     32  OH       -45.7740  -21.0140    6.0700 O.3    96  TYR96      -0.2866
     33  N        -50.0040  -19.0490   10.5660 N.am   97  LYS97      -0.1980
     34  CA       -49.3460  -19.5280   11.8170 C.3    97  LYS97       0.1596
     35  C        -49.4180  -18.4050   12.8850 C.2    97  LYS97       0.2287
     36  O        -48.4380  -18.2120   13.5770 O.2    97  LYS97      -0.2864
     37  CB       -47.9060  -19.9570   11.5230 C.3    97  LYS97       0.0298
     38  CG       -47.8500  -21.0970   10.5300 C.3    97  LYS97       0.0038
     39  CD       -46.4360  -21.5850   10.2400 C.3    97  LYS97       0.0206
     40  CE       -46.3850  -22.5290    9.0090 C.3    97  LYS97       0.1093
     41  NZ       -44.9130  -22.7700    8.6860 N.3    97  LYS97      -0.1314
     42  N        -49.3790  -15.1360   12.4890 N.3    99  PHE99      -0.1241
     43  CA       -48.7420  -13.8380   12.1940 C.3    99  PHE99       0.1605
     44  C        -49.8880  -12.7870   12.2370 C.2    99  PHE99       0.2264
     45  O        -50.9470  -12.9850   11.6800 O.2    99  PHE99      -0.2867
     46  CB       -48.0940  -13.8840   10.8360 C.3    99  PHE99       0.0534
     47  CG       -47.3220  -12.6570   10.5460 C.ar   99  PHE99      -0.0203
     48  CD1      -46.0150  -12.5360   10.9880 C.ar   99  PHE99      -0.0042
     49  CD2      -47.8950  -11.5460    9.9080 C.ar   99  PHE99      -0.0042
     50  CE1      -45.2720  -11.3630   10.7590 C.ar   99  PHE99      -0.0003
     51  CE2      -47.1470  -10.3870    9.7080 C.ar   99  PHE99      -0.0003
     52  CZ       -45.8860  -10.2940   10.1300 C.ar   99  PHE99      -0.0000
     53  N        -45.0620   -7.7850    6.2590 N.3   104  CYS104     -0.1235
     54  CA       -43.9010   -7.7390    7.1590 C.3   104  CYS104      0.1677
     55  C        -43.1100   -6.5250    6.9180 C.2   104  CYS104      0.2270
     56  O        -42.9090   -6.0890    5.7710 O.2   104  CYS104     -0.2867
     57  CB       -42.9430   -8.9260    6.9300 C.3   104  CYS104      0.0956
     58  SG       -43.6780  -10.5560    6.9310 S.3   104  CYS104     -0.0801
     59  N        -35.7660  -10.4400    8.2810 N.3   112  CYS112     -0.1221
     60  CA       -37.1280  -10.6330    7.7100 C.3   112  CYS112      0.1808
     61  C        -38.0870  -10.8410    8.7770 C.2   112  CYS112      0.2601
     62  O        -37.7290  -11.0690    9.9570 O.2   112  CYS112     -0.2717
     63  CB       -37.0930  -11.8880    6.7670 C.3   112  CYS112      0.0970
     64  SG       -36.6590  -13.4460    7.5650 S.3   112  CYS112     -0.0800
     65  N        -39.3760  -10.7950    8.4160 N.am  113  HIS113     -0.1975
     66  CA       -40.4950  -11.1740    9.1880 C.3   113  HIS113      0.1656
     67  C        -40.7800  -10.2370   10.3810 C.2   113  HIS113      0.2291
     68  O        -41.4860  -10.5880   11.2950 O.2   113  HIS113     -0.2864
     69  CB       -40.4180  -12.6390    9.6930 C.3   113  HIS113      0.0771
     70  CG       -40.2600  -13.6270    8.5590 C.ar  113  HIS113      0.0820
     71  ND1      -39.9630  -14.9420    8.8400 N.ar  113  HIS113     -0.2267
     72  CD2      -40.3410  -13.5030    7.1910 C.ar  113  HIS113      0.1154
     73  CE1      -39.9340  -15.6280    7.6810 C.ar  113  HIS113      0.1986
     74  NE2      -40.1010  -14.7810    6.6930 N.ar  113  HIS113     -0.2212
     75  N        -42.9060   -6.2880    2.8900 N.3   130  ASP130     -0.1239
     76  CA       -43.1390   -7.5830    2.2220 C.3   130  ASP130      0.1674
     77  C        -44.6200   -7.8490    2.2360 C.2   130  ASP130      0.2266
     78  O        -45.1540   -8.0630    3.3480 O.2   130  ASP130     -0.2867
     79  CB       -42.3030   -8.6260    2.9050 C.3   130  ASP130      0.1410
     80  CG       -42.3030   -9.9390    2.1140 C.2   130  ASP130      0.3668
     81  OD1      -43.2980  -10.1740    1.3340 O.co2 130  ASP130     -0.2456
     82  OD2      -41.3220  -10.7230    2.1370 O.co2 130  ASP130     -0.2456
     83  N        -48.0120  -10.0150    0.5210 N.3   132  THR132     -0.1218
     84  CA       -48.5570  -11.1180   -0.3120 C.3   132  THR132      0.1862
     85  C        -50.0270  -10.9980   -0.3850 C.2   132  THR132      0.2287
     86  O        -50.7500  -10.7590    0.6370 O.2   132  THR132     -0.2866
     87  CB       -48.1110  -12.4900    0.2990 C.3   132  THR132      0.1770
     88  OG1      -46.6600  -12.5170    0.3270 O.3   132  THR132     -0.2211
     89  CG2      -48.5260  -13.6470   -0.5050 C.3   132  THR132      0.0375
     90  N        -46.4360  -12.7200   -4.1600 N.3   141  ASP141     -0.1239
     91  CA       -45.5780  -12.3510   -3.0590 C.3   141  ASP141      0.1674
     92  C        -44.4490  -11.4660   -3.5300 C.2   141  ASP141      0.2266
     93  O        -43.7050  -11.8000   -4.4690 O.2   141  ASP141     -0.2867
     94  CB       -45.0000  -13.7170   -2.5220 C.3   141  ASP141      0.1410
     95  CG       -44.1970  -13.6400   -1.2870 C.2   141  ASP141      0.3668
     96  OD1      -43.7310  -14.7050   -0.7960 O.co2 141  ASP141     -0.2456
     97  OD2      -43.9620  -12.5160   -0.7450 O.co2 141  ASP141     -0.2456
     98  N        -30.4760  -19.5130    5.6540 N.3   200  ASP200     -0.1225
     99  CA       -31.5080  -20.2700    6.3480 C.3   200  ASP200      0.1805
    100  C        -32.8430  -19.8810    5.9000 C.2   200  ASP200      0.2598
    101  O        -33.8310  -20.5920    6.3320 O.2   200  ASP200     -0.2718
    102  CB       -31.3930  -20.1800    7.8920 C.3   200  ASP200      0.1424
    103  CG       -30.2350  -20.9520    8.4790 C.2   200  ASP200      0.3668
    104  OD1      -29.4850  -21.6830    7.7460 O.co2 200  ASP200     -0.2456
    105  OD2      -30.1830  -20.9110    9.7160 O.co2 200  ASP200     -0.2456
    106  N        -33.0290  -18.7710    5.1820 N.am  201  PHE201     -0.1962
    107  CA       -34.3410  -18.3750    4.7660 C.3   201  PHE201      0.1771
    108  C        -34.1290  -18.2860    3.2470 C.2   201  PHE201      0.2620
    109  O        -33.0740  -17.8140    2.7160 O.2   201  PHE201     -0.2715
    110  CB       -34.6530  -16.9280    5.3670 C.3   201  PHE201      0.0574
    111  CG       -34.8500  -16.9670    6.9080 C.ar  201  PHE201     -0.0200
    112  CD1      -33.6930  -16.7340    7.6820 C.ar  201  PHE201     -0.0042
    113  CD2      -35.9590  -17.3330    7.4850 C.ar  201  PHE201     -0.0042
    114  CE1      -33.7990  -16.8470    9.1020 C.ar  201  PHE201     -0.0003
    115  CE2      -36.0630  -17.5230    8.9360 C.ar  201  PHE201     -0.0003
    116  CZ       -34.9140  -17.2520    9.6670 C.ar  201  PHE201     -0.0000
    117  N        -35.1720  -18.8330    2.5660 N.am  202  THR202     -0.1937
    118  CA       -35.0660  -19.1010    1.1010 C.3   202  THR202      0.2028
    119  C        -36.2270  -18.5460    0.3360 C.2   202  THR202      0.2643
    120  O        -37.3350  -18.1450    0.8780 O.2   202  THR202     -0.2714
    121  CB       -34.9860  -20.6100    0.8670 C.3   202  THR202      0.1808
    122  OG1      -36.2100  -21.2110    1.1280 O.3   202  THR202     -0.2208
    123  CG2      -33.8790  -21.2750    1.6320 C.3   202  THR202      0.0379
    124  N        -36.1070  -18.4830   -0.9810 N.am  203  GLY203     -0.1939
    125  CA       -37.2490  -18.3460   -1.8560 C.3   203  GLY203      0.2014
    126  C        -37.9880  -19.6890   -1.9880 C.2   203  GLY203      0.2638
    127  O        -37.6090  -20.7100   -1.3680 O.2   203  GLY203     -0.2714
    128  N        -39.0650  -19.6800   -2.7380 N.am  204  HIS204     -0.1973
    129  CA       -39.9440  -20.8520   -2.6740 C.3   204  HIS204      0.1656
    130  C        -40.8740  -20.8480   -3.8920 C.2   204  HIS204      0.2291
    131  O        -41.2360  -19.8210   -4.4530 O.2   204  HIS204     -0.2864
    132  CB       -40.8280  -20.8170   -1.4090 C.3   204  HIS204      0.0771
    133  CG       -41.5440  -19.4890   -1.2320 C.ar  204  HIS204      0.0820
    134  ND1      -42.8450  -19.2420   -1.6560 N.ar  204  HIS204     -0.2267
    135  CD2      -41.0750  -18.2870   -0.7640 C.ar  204  HIS204      0.1154
    136  CE1      -43.1270  -17.9350   -1.4070 C.ar  204  HIS204      0.1986
    137  NE2      -42.0630  -17.3390   -0.8870 N.ar  204  HIS204     -0.2212
    138  N        -48.9360  -20.8820   -0.5340 N.3   210  PHE210     -0.1227
    139  CA       -47.9730  -19.7910   -0.3560 C.3   210  PHE210      0.1736
    140  C        -46.5660  -20.2860   -0.5490 C.2   210  PHE210      0.2595
    141  O        -45.7620  -19.6770   -1.2600 O.2   210  PHE210     -0.2718
    142  CB       -48.2660  -19.2290    1.0660 C.3   210  PHE210      0.0547
    143  CG       -47.6930  -17.9020    1.4240 C.ar  210  PHE210     -0.0202
    144  CD1      -46.7150  -17.2330    0.7020 C.ar  210  PHE210     -0.0042
    145  CD2      -48.1910  -17.3020    2.5960 C.ar  210  PHE210     -0.0042
    146  CE1      -46.2420  -15.9940    1.1470 C.ar  210  PHE210     -0.0003
    147  CE2      -47.7360  -16.0430    3.0480 C.ar  210  PHE210     -0.0003
    148  CZ       -46.7320  -15.4120    2.2990 C.ar  210  PHE210     -0.0000
    149  N        -46.2570  -21.4270    0.1110 N.am  211  HIS211     -0.1975
    150  CA       -44.9400  -22.0600    0.0070 C.3   211  HIS211      0.1656
    151  C        -45.1430  -23.4920   -0.4090 C.2   211  HIS211      0.2291
    152  O        -45.5750  -24.2920    0.4390 O.2   211  HIS211     -0.2864
    153  CB       -44.1860  -22.0040    1.3810 C.3   211  HIS211      0.0771
    154  CG       -44.1070  -20.6120    1.9340 C.ar  211  HIS211      0.0820
    155  ND1      -45.0850  -20.0740    2.7570 N.ar  211  HIS211     -0.2267
    156  CD2      -43.2080  -19.6350    1.7730 C.ar  211  HIS211      0.1154
    157  CE1      -44.7100  -18.8110    3.0720 C.ar  211  HIS211      0.1986
    158  NE2      -43.5760  -18.5190    2.4830 N.ar  211  HIS211     -0.2212
    159  N        -43.3670  -26.1070   -1.4530 N.3   213  GLY213     -0.1210
    160  CA       -42.3990  -27.1630   -1.2470 C.3   213  GLY213      0.1956
    161  C        -41.1900  -27.0430   -2.1060 C.2   213  GLY213      0.2612
    162  O        -40.0930  -27.5180   -1.7280 O.2   213  GLY213     -0.2717
    163  N        -41.2570  -26.3370   -3.2480 N.am  214  LEU214     -0.1965
    164  CA       -40.0420  -26.0370   -3.9950 C.3   214  LEU214      0.1728
    165  C        -39.2250  -25.0090   -3.1690 C.2   214  LEU214      0.2616
    166  O        -39.8140  -24.0050   -2.6950 O.2   214  LEU214     -0.2715
    167  CB       -40.4630  -25.3850   -5.3460 C.3   214  LEU214      0.0311
    168  CG       -39.3110  -24.7870   -6.1560 C.3   214  LEU214      0.0022
    169  CD1      -38.2360  -25.7890   -6.5430 C.3   214  LEU214      0.0001
    170  CD2      -39.9030  -24.1500   -7.4310 C.3   214  LEU214      0.0001
    171  N        -37.9370  -25.2210   -3.0650 N.am  215  VAL215     -0.1977
    172  CA       -36.9980  -24.3150   -2.3780 C.3   215  VAL215      0.1596
    173  C        -36.1360  -23.6100   -3.4010 C.2   215  VAL215      0.2287
    174  O        -35.6140  -24.2950   -4.2930 O.2   215  VAL215     -0.2864
    175  CB       -36.1420  -25.1230   -1.4000 C.3   215  VAL215      0.0276
    176  CG1      -35.1500  -24.1830   -0.6700 C.3   215  VAL215      0.0022
    177  CG2      -36.9420  -25.8670   -0.3700 C.3   215  VAL215      0.0022
    178  N        -35.8870  -14.0250   -3.4640 N.3   237  GLU237     -0.1245
    179  CA       -36.0630  -13.0710   -2.3460 C.3   237  GLU237      0.1567
    180  C        -34.8070  -12.9350   -1.4370 C.2   237  GLU237      0.2260
    181  O        -34.8620  -13.0700   -0.2390 O.2   237  GLU237     -0.2867
    182  CB       -37.3310  -13.3450   -1.5680 C.3   237  GLU237      0.0388
    183  CG       -37.4190  -14.6730   -0.8340 C.3   237  GLU237      0.1160
    184  CD       -38.7200  -14.7860   -0.1430 C.2   237  GLU237      0.3649
    185  OE1      -38.9750  -13.8740    0.7590 O.co2 237  GLU237     -0.2457
    186  OE2      -39.5720  -15.6560   -0.4200 O.co2 237  GLU237     -0.2457
    187  N        -31.9010  -12.1320    0.9780 N.3   239  MET239     -0.1245
    188  CA       -31.4970  -11.3080    2.1280 C.3   239  MET239      0.1570
    189  C        -30.0070  -11.2320    2.1560 C.2   239  MET239      0.2261
    190  O        -29.3120  -12.3090    2.1380 O.2   239  MET239     -0.2867
    191  CB       -32.0710  -11.8380    3.4630 C.3   239  MET239      0.0387
    192  CG       -33.5860  -11.8120    3.4660 C.3   239  MET239      0.0595
    193  SD       -34.3430  -13.3300    4.1480 S.3   239  MET239     -0.1393
    194  CE       -34.0790  -14.4250    2.7340 C.3   239  MET239      0.0692
    195  N        -41.3120  -14.2850   15.5040 N.3   254  TRP254     -0.1241
    196  CA       -41.2380  -13.9390   14.0520 C.3   254  TRP254      0.1605
    197  C        -40.0450  -13.1590   13.6980 C.2   254  TRP254      0.2264
    198  O        -39.3240  -13.3780   12.7410 O.2   254  TRP254     -0.2867
    199  CB       -42.4820  -13.2080   13.6580 C.3   254  TRP254      0.0550
    200  CG       -43.6830  -14.0510   13.5790 C.ar  254  TRP254      0.0003
    201  CD1      -44.7440  -14.0670   14.3550 C.ar  254  TRP254      0.0946
    202  CD2      -43.9090  -15.0760   12.5750 C.ar  254  TRP254      0.0152
    203  NE1      -45.7040  -15.0350   13.9550 N.ar  254  TRP254     -0.2442
    204  CE2      -45.1660  -15.6570   12.8260 C.ar  254  TRP254      0.0810
    205  CE3      -43.1740  -15.5080   11.4820 C.ar  254  TRP254      0.0012
    206  CZ2      -45.7050  -16.6420   12.0140 C.ar  254  TRP254      0.0191
    207  CZ3      -43.7160  -16.5570   10.6920 C.ar  254  TRP254      0.0001
    208  CH2      -44.9700  -17.0930   10.9660 C.ar  254  TRP254      0.0015
    209  N        -33.1950   -6.7060    1.4170 N.3   266  GLN266     -0.1245
    210  CA       -33.9260   -7.8010    0.6860 C.3   266  GLN266      0.1566
    211  C        -34.7720   -7.1910   -0.3790 C.2   266  GLN266      0.2260
    212  O        -35.3590   -6.0640   -0.2760 O.2   266  GLN266     -0.2867
    213  CB       -34.7600   -8.5380    1.6940 C.3   266  GLN266      0.0367
    214  CG       -35.4740   -9.7760    1.0070 C.3   266  GLN266      0.0905
    215  CD       -36.3410  -10.4950    1.9330 C.2   266  GLN266      0.2608
    216  OE1      -36.8880   -9.9700    2.9470 O.2   266  GLN266     -0.2717
    217  NE2      -36.6590  -11.7760    1.6150 N.am  266  GLN266     -0.0878
    218  N        -37.8380   -8.9250   -3.4140 N.3   268  GLU268     -0.1245
    219  CA       -38.5490  -10.1950   -3.8620 C.3   268  GLU268      0.1567
    220  C        -39.4580   -9.9110   -4.9330 C.2   268  GLU268      0.2260
    221  O        -40.2540   -8.9290   -4.9280 O.2   268  GLU268     -0.2867
    222  CB       -39.3450  -10.7300   -2.6680 C.3   268  GLU268      0.0388
    223  CG       -40.2100  -11.9550   -2.9840 C.3   268  GLU268      0.1160
    224  CD       -40.8530  -12.5230   -1.7700 C.2   268  GLU268      0.3649
    225  OE1      -41.1180  -13.7330   -1.6980 O.co2 268  GLU268     -0.2457
    226  OE2      -41.0990  -11.7300   -0.8270 O.co2 268  GLU268     -0.2457
@<TRIPOS>BOND
     1   170   168    1
     2   169   168    1
     3   168   167    1
     4   167   164    1
     5   220   221    2
     6   220   219    1
     7    93    92    2
     8   131   130    2
     9   174   173    2
    10    90    91    1
    11   164   163    1
    12   164   165    1
    13   130   129    1
    14   219   218    1
    15   219   222    1
    16    92    91    1
    17   178   179    1
    18   173   172    1
    19   163   161   am
    20   165   171   am
    21   165   166    2
    22   171   172    1
    23    91    94    1
    24   223   222    1
    25   223   224    1
    26   128   129    1
    27   128   126   am
    28   129   132    1
    29    94    95    1
    30   172   175    1
    31   179   182    1
    32   179   180    1
    33   161   162    2
    34   161   160    1
    35   126   125    1
    36   126   127    2
    37   125   124    1
    38   224   225   ar
    39   224   226   ar
    40   134   136   ar
    41   134   133   ar
    42   182   183    1
    43   159   160    1
    44   180   181    2
    45   132   133    1
    46   136   137   ar
    47   175   176    1
    48   175   177    1
    49    95    96   ar
    50    95    97   ar
    51   141   140    2
    52   133   135   ar
    53   124   119   am
    54   137   135   ar
    55   183   184    1
    56   140   139    1
    57   140   149   am
    58   138   139    1
    59    89    87    1
    60   186   184   ar
    61   151   150    1
    62   151   152    2
    63    85    84    1
    64    85    86    2
    65   211   212    2
    66   211   210    1
    67   139   142    1
    68    84    87    1
    69    84    83    1
    70   184   185   ar
    71    13    12    2
    72    12    11    1
    73   150   149    1
    74   150   153    1
    75    87    88    1
    76   119   120    2
    77   119   118    1
    78   210   209    1
    79   210   213    1
    80   144   146   ar
    81   144   143   ar
    82    11    10    1
    83    10     3   am
    84   121   118    1
    85   121   122    1
    86   121   123    1
    87   187   188    1
    88   214   213    1
    89   214   215    1
    90   142   143    1
    91   118   117    1
    92   146   148   ar
    93    81    80   ar
    94   153   154    1
    95   143   145   ar
    96   217   215   am
    97   156   154   ar
    98   156   158   ar
    99     2     3    1
   100     2     5    1
   101     2     1    1
   102     3     4    2
   103   215   216    2
   104   154   155   ar
   105     5     6    1
   106    80    82   ar
   107    80    79    1
   108   188   189    1
   109   188   191    1
   110   190   189    2
   111    76    77    1
   112    76    75    1
   113    76    79    1
   114    77    78    2
   115   148   147   ar
   116   158   157   ar
   117   117   108   am
   118   145   147   ar
   119     8     7   ar
   120   109   108    2
   121   194   193    1
   122   155   157   ar
   123     6     7    1
   124   108   107    1
   125     7     9   ar
   126   191   192    1
   127   192   193    1
   128    14    15    1
   129   107   106    1
   130   107   110    1
   131   106   100   am
   132    20    18    1
   133   110   111    1
   134    98    99    1
   135    29    27   ar
   136    29    31   ar
   137    56    55    2
   138   100   101    2
   139   100    99    1
   140    15    18    1
   141    15    16    1
   142    32    31    1
   143    27    26   ar
   144    53    54    1
   145    19    18    1
   146    99   102    1
   147    31    30   ar
   148    74    72   ar
   149    74    73   ar
   150    63    64    1
   151    63    60    1
   152   111   113   ar
   153   111   112   ar
   154    55    54    1
   155    57    58    1
   156    57    54    1
   157    72    70   ar
   158    16    17    2
   159    26    25    1
   160    26    28   ar
   161    30    28   ar
   162   113   115   ar
   163    25    22    1
   164    73    71   ar
   165   112   114   ar
   166    60    59    1
   167    60    61    1
   168   104   103   ar
   169   102   103    1
   170    65    61   am
   171    65    66    1
   172   103   105   ar
   173    70    71   ar
   174    70    69    1
   175    41    40    1
   176    22    21    1
   177    22    23    1
   178    61    62    2
   179   115   116   ar
   180    40    39    1
   181   114   116   ar
   182    66    69    1
   183    66    67    1
   184    51    49   ar
   185    51    52   ar
   186    49    47   ar
   187    23    24    2
   188    23    33   am
   189    52    50   ar
   190    39    38    1
   191    67    68    2
   192    38    37    1
   193    47    46    1
   194    47    48   ar
   195    33    34    1
   196   207   208   ar
   197   207   205   ar
   198    50    48   ar
   199    46    43    1
   200   208   206   ar
   201   205   202   ar
   202    37    34    1
   203    45    44    2
   204    34    35    1
   205   206   204   ar
   206    43    44    1
   207    43    42    1
   208   202   204   ar
   209   202   200   ar
   210   198   197    2
   211   204   203   ar
   212    35    36    2
   213   200   199    1
   214   200   201   ar
   215   199   196    1
   216   197   196    1
   217   203   201   ar
   218   196   195    1
