@<TRIPOS>MOLECULE
tmp/3pkbA00.pdb
 185 179 0 0 0
SMALL
GASTEIGER

@<TRIPOS>ATOM
      1  N        -13.9440  -50.0190    4.7040 N.3    93  THR93      -0.1218
      2  CA       -13.4820  -49.5010    6.0100 C.3    93  THR93       0.1862
      3  C        -13.9820  -50.3690    7.1700 C.2    93  THR93       0.2287
      4  O        -13.3280  -50.3010    8.2410 O.2    93  THR93      -0.2866
      5  CB       -13.9530  -48.0620    6.2710 C.3    93  THR93       0.1770
      6  OG1      -15.3590  -47.9880    6.2720 O.3    93  THR93      -0.2211
      7  CG2      -13.4770  -47.1380    5.1690 C.3    93  THR93       0.0375
      8  N        -11.5630  -52.6180    9.1060 N.3    96  TYR96      -0.1241
      9  CA       -10.1540  -52.4800    8.7370 C.3    96  TYR96       0.1605
     10  C         -9.4190  -51.9830    9.9280 C.2    96  TYR96       0.2264
     11  O         -9.6390  -50.8630   10.3860 O.2    96  TYR96      -0.2867
     12  CB       -10.0920  -51.4210    7.5480 C.3    96  TYR96       0.0534
     13  CG        -8.6750  -51.1490    7.1100 C.ar   96  TYR96      -0.0201
     14  CD1       -8.0840  -51.9280    6.0450 C.ar   96  TYR96      -0.0009
     15  CD2       -7.8910  -50.1360    7.6610 C.ar   96  TYR96      -0.0009
     16  CE1       -6.8010  -51.6120    5.6000 C.ar   96  TYR96       0.0417
     17  CE2       -6.6340  -49.8550    7.2560 C.ar   96  TYR96       0.0417
     18  CZ        -6.1430  -50.5930    6.2030 C.ar   96  TYR96       0.1957
     19  OH        -4.8310  -50.2110    5.8280 O.3    96  TYR96      -0.2866
     20  N        -11.5910  -50.3310   12.4450 N.3    99  PHE99      -0.1241
     21  CA       -12.3890  -49.1200   12.1410 C.3    99  PHE99       0.1605
     22  C        -13.8760  -49.6050   12.1810 C.2    99  PHE99       0.2264
     23  O        -14.2380  -50.6320   11.6480 O.2    99  PHE99      -0.2867
     24  CB       -12.0280  -48.5800   10.7630 C.3    99  PHE99       0.0534
     25  CG       -12.7460  -47.2910   10.4860 C.ar   99  PHE99      -0.0203
     26  CD1      -12.2010  -46.1190   10.9290 C.ar   99  PHE99      -0.0042
     27  CD2      -14.0020  -47.2520    9.8600 C.ar   99  PHE99      -0.0042
     28  CE1      -12.8410  -44.8950   10.7180 C.ar   99  PHE99      -0.0003
     29  CE2      -14.6470  -46.0030    9.6730 C.ar   99  PHE99      -0.0003
     30  CZ       -14.0710  -44.8950   10.0740 C.ar   99  PHE99      -0.0000
     31  N        -15.8250  -42.8850    6.2120 N.3   104  CYS104     -0.1235
     32  CA       -15.3030  -41.8950    7.1130 C.3   104  CYS104      0.1677
     33  C        -15.9620  -40.5810    6.8710 C.2   104  CYS104      0.2270
     34  O        -16.2500  -40.1810    5.7210 O.2   104  CYS104     -0.2867
     35  CB       -13.8040  -41.6500    6.9190 C.3   104  CYS104      0.0956
     36  SG       -12.7570  -43.0920    6.8940 S.3   104  CYS104     -0.0801
     37  N         -8.8660  -36.1760    8.2760 N.3   112  CYS112     -0.1221
     38  CA        -9.3570  -37.4750    7.6950 C.3   112  CYS112      0.1808
     39  C         -9.6850  -38.4320    8.7790 C.2   112  CYS112      0.2601
     40  O         -9.3330  -38.1970    9.9660 O.2   112  CYS112     -0.2717
     41  CB        -8.2610  -38.0530    6.7150 C.3   112  CYS112      0.0970
     42  SG        -6.7090  -38.4560    7.5570 S.3   112  CYS112     -0.0800
     43  N        -10.3390  -39.4920    8.4100 N.am  113  HIS113     -0.1975
     44  CA       -10.5920  -40.6790    9.1890 C.3   113  HIS113      0.1656
     45  C        -11.5380  -40.4280   10.3470 C.2   113  HIS113      0.2291
     46  O        -11.5780  -41.2130   11.2800 O.2   113  HIS113     -0.2864
     47  CB        -9.2670  -41.3070    9.7020 C.3   113  HIS113      0.0771
     48  CG        -8.3020  -41.6500    8.5690 C.ar  113  HIS113      0.0820
     49  ND1       -7.0220  -42.0790    8.8460 N.ar  113  HIS113     -0.2267
     50  CD2       -8.4550  -41.7020    7.1850 C.ar  113  HIS113      0.1154
     51  CE1       -6.4180  -42.3840    7.6710 C.ar  113  HIS113      0.1986
     52  NE2       -7.2400  -42.1020    6.6810 N.ar  113  HIS113     -0.2212
     53  N        -16.1120  -40.2820    2.8570 N.3   130  ASP130     -0.1239
     54  CA       -15.0900  -41.1230    2.1830 C.3   130  ASP130      0.1674
     55  C        -15.5910  -42.5280    2.1740 C.2   130  ASP130      0.2266
     56  O        -15.6870  -43.1210    3.2960 O.2   130  ASP130     -0.2867
     57  CB       -13.7460  -40.9200    2.8990 C.3   130  ASP130      0.1410
     58  CG       -12.6080  -41.5410    2.0910 C.2   130  ASP130      0.3668
     59  OD1      -12.9420  -42.5390    1.3430 O.co2 130  ASP130     -0.2456
     60  OD2      -11.4670  -41.0670    2.1080 O.co2 130  ASP130     -0.2456
     61  N        -15.3900  -46.5550    0.5050 N.3   132  THR132     -0.1218
     62  CA       -14.6630  -47.5960   -0.3040 C.3   132  THR132      0.1862
     63  C        -15.4980  -48.8070   -0.3810 C.2   132  THR132      0.2287
     64  O        -16.0720  -49.2980    0.6130 O.2   132  THR132     -0.2866
     65  CB       -13.2720  -47.9010    0.3270 C.3   132  THR132      0.1770
     66  OG1      -12.5470  -46.6490    0.4110 O.3   132  THR132     -0.2211
     67  CG2      -12.4450  -48.8350   -0.4930 C.3   132  THR132      0.0375
     68  N        -12.2140  -46.5320   -4.1350 N.3   141  ASP141     -0.1239
     69  CA       -12.1450  -45.5920   -3.0440 C.3   141  ASP141      0.1674
     70  C        -12.3430  -44.1790   -3.5300 C.2   141  ASP141      0.2266
     71  O        -11.6600  -43.7190   -4.4740 O.2   141  ASP141     -0.2867
     72  CB       -10.7060  -45.7800   -2.4710 C.3   141  ASP141      0.1410
     73  CG       -10.3880  -45.0530   -1.2080 C.2   141  ASP141      0.3668
     74  OD1       -9.2260  -45.1910   -0.7310 O.co2 141  ASP141     -0.2456
     75  OD2      -11.2120  -44.2740   -0.6780 O.co2 141  ASP141     -0.2456
     76  N          1.6780  -36.0970    5.8000 N.3   200  ASP200     -0.1225
     77  CA         1.7530  -37.3920    6.4370 C.3   200  ASP200      0.1805
     78  C          0.7040  -38.3500    5.9950 C.2   200  ASP200      0.2598
     79  O          0.7940  -39.5220    6.3960 O.2   200  ASP200     -0.2718
     80  CB         1.6790  -37.2060    7.9440 C.3   200  ASP200      0.1424
     81  CG         2.9860  -36.6030    8.5250 C.2   200  ASP200      0.3668
     82  OD1        3.9890  -36.4210    7.7990 O.co2 200  ASP200     -0.2456
     83  OD2        3.0480  -36.4440    9.7540 O.co2 200  ASP200     -0.2456
     84  N         -0.3150  -37.8460    5.3160 N.am  201  PHE201     -0.1962
     85  CA        -1.3640  -38.7050    4.7480 C.3   201  PHE201      0.1771
     86  C         -1.3220  -38.5350    3.2400 C.2   201  PHE201      0.2620
     87  O         -1.0540  -37.4690    2.7420 O.2   201  PHE201     -0.2715
     88  CB        -2.7020  -38.2780    5.3670 C.3   201  PHE201      0.0574
     89  CG        -2.7030  -38.4770    6.8630 C.ar  201  PHE201     -0.0200
     90  CD1       -2.3540  -37.3660    7.7130 C.ar  201  PHE201     -0.0042
     91  CD2       -3.0150  -39.6720    7.4160 C.ar  201  PHE201     -0.0042
     92  CE1       -2.3000  -37.5870    9.1640 C.ar  201  PHE201     -0.0003
     93  CE2       -2.9640  -39.8610    8.8570 C.ar  201  PHE201     -0.0003
     94  CZ        -2.6000  -38.7720    9.6720 C.ar  201  PHE201     -0.0000
     95  N         -1.5690  -39.6570    2.5640 N.am  202  THR202     -0.1937
     96  CA        -1.1990  -39.7780    1.1240 C.3   202  THR202      0.2028
     97  C         -2.2440  -40.5260    0.3510 C.2   202  THR202      0.2643
     98  O         -3.1380  -41.2100    0.9310 O.2   202  THR202     -0.2714
     99  CB         0.1600  -40.4300    0.9890 C.3   202  THR202      0.1808
    100  OG1        0.0230  -41.7830    1.3670 O.3   202  THR202     -0.2208
    101  CG2        1.2640  -39.7620    1.7240 C.3   202  THR202      0.0379
    102  N         -2.1350  -40.4500   -0.9930 N.am  203  GLY203     -0.1939
    103  CA        -2.8380  -41.4060   -1.8230 C.3   203  GLY203      0.2014
    104  C         -2.0550  -42.6970   -1.9380 C.2   203  GLY203      0.2638
    105  O         -0.9740  -42.8580   -1.3470 O.2   203  GLY203     -0.2714
    106  N         -2.5930  -43.6620   -2.6700 N.am  204  HIS204     -0.1973
    107  CA        -2.0040  -45.0010   -2.6150 C.3   204  HIS204      0.1656
    108  C         -2.4510  -45.8180   -3.8330 C.2   204  HIS204      0.2291
    109  O         -3.5450  -45.6350   -4.3960 O.2   204  HIS204     -0.2864
    110  CB        -2.4610  -45.7360   -1.3240 C.3   204  HIS204      0.0771
    111  CG        -3.9680  -45.7320   -1.1440 C.ar  204  HIS204      0.0820
    112  ND1       -4.8100  -46.7260   -1.5600 N.ar  204  HIS204     -0.2267
    113  CD2       -4.7720  -44.7080   -0.7440 C.ar  204  HIS204      0.1154
    114  CE1       -6.1000  -46.3090   -1.3750 C.ar  204  HIS204      0.1986
    115  NE2       -6.0830  -45.0740   -0.8450 N.ar  204  HIS204     -0.2212
    116  N         -6.3180  -52.7870   -0.4780 N.3   210  PHE210     -0.1227
    117  CA        -6.7740  -51.4130   -0.2770 C.3   210  PHE210      0.1736
    118  C         -5.6460  -50.4440   -0.4220 C.2   210  PHE210      0.2595
    119  O         -5.7430  -49.4430   -1.1480 O.2   210  PHE210     -0.2718
    120  CB        -7.4520  -51.4130    1.1360 C.3   210  PHE210      0.0547
    121  CG        -8.3230  -50.2300    1.4750 C.ar  210  PHE210     -0.0202
    122  CD1       -8.4100  -49.0730    0.7170 C.ar  210  PHE210     -0.0042
    123  CD2       -9.0990  -50.3520    2.6610 C.ar  210  PHE210     -0.0042
    124  CE1       -9.2660  -48.0140    1.1470 C.ar  210  PHE210     -0.0003
    125  CE2       -9.9560  -49.3240    3.0760 C.ar  210  PHE210     -0.0003
    126  CZ       -10.0010  -48.1630    2.3390 C.ar  210  PHE210     -0.0000
    127  N         -4.5490  -50.6940    0.3180 N.am  211  HIS211     -0.1975
    128  CA        -3.3260  -49.8420    0.2740 C.3   211  HIS211      0.1656
    129  C         -2.1480  -50.7140   -0.1830 C.2   211  HIS211      0.2291
    130  O         -1.6020  -51.4320    0.6850 O.2   211  HIS211     -0.2864
    131  CB        -3.0530  -49.1860    1.6320 C.3   211  HIS211      0.0771
    132  CG        -4.2250  -48.3560    2.1250 C.ar  211  HIS211      0.0820
    133  ND1       -5.2610  -48.9110    2.8840 N.ar  211  HIS211     -0.2267
    134  CD2       -4.5400  -47.0580    1.9320 C.ar  211  HIS211      0.1154
    135  CE1       -6.1460  -47.9220    3.0640 C.ar  211  HIS211      0.1986
    136  NE2       -5.7420  -46.8090    2.5350 N.ar  211  HIS211     -0.2212
    137  N         -5.8210  -38.0430   -3.4710 N.3   237  GLU237     -0.1245
    138  CA        -6.7730  -37.7100   -2.3700 C.3   237  GLU237      0.1567
    139  C         -6.2170  -36.5870   -1.4690 C.2   237  GLU237      0.2260
    140  O         -6.1450  -36.6880   -0.2650 O.2   237  GLU237     -0.2867
    141  CB        -7.1860  -38.9490   -1.5860 C.3   237  GLU237      0.0388
    142  CG        -6.0130  -39.6700   -0.8130 C.3   237  GLU237      0.1160
    143  CD        -6.5770  -40.8580   -0.1310 C.2   237  GLU237      0.3649
    144  OE1       -7.4540  -40.6250    0.8090 O.co2 237  GLU237     -0.2457
    145  OE2       -6.2940  -42.0490   -0.4270 O.co2 237  GLU237     -0.2457
    146  N         -5.4690  -33.6640    0.9730 N.3   239  MET239     -0.1245
    147  CA        -5.9850  -32.8960    2.1090 C.3   239  MET239      0.1570
    148  C         -5.2950  -31.5720    2.1360 C.2   239  MET239      0.2261
    149  O         -4.0110  -31.5340    2.1360 O.2   239  MET239     -0.2867
    150  CB        -5.7660  -33.6710    3.4070 C.3   239  MET239      0.0387
    151  CG        -6.5550  -34.9880    3.4290 C.3   239  MET239      0.0595
    152  SD        -5.6720  -36.4270    4.1070 S.3   239  MET239     -0.1393
    153  CE        -4.5720  -36.8050    2.7190 C.3   239  MET239      0.0692
    154  N         -8.3220  -42.9060   15.4990 N.3   254  TRP254     -0.1241
    155  CA        -8.5810  -42.6830   14.0460 C.3   254  TRP254      0.1605
    156  C         -8.6610  -41.2620   13.7430 C.2   254  TRP254      0.2264
    157  O         -8.0960  -40.7710   12.7900 O.2   254  TRP254     -0.2867
    158  CB        -9.8630  -43.3740   13.6520 C.3   254  TRP254      0.0550
    159  CG        -9.7130  -44.8770   13.5920 C.ar  254  TRP254      0.0003
    160  CD1      -10.2280  -45.8050   14.3970 C.ar  254  TRP254      0.0946
    161  CD2       -8.9690  -45.5830   12.5710 C.ar  254  TRP254      0.0152
    162  NE1       -9.8650  -47.0670   13.9710 N.ar  254  TRP254     -0.2442
    163  CE2       -9.0790  -46.9400   12.8420 C.ar  254  TRP254      0.0810
    164  CE3       -8.2280  -45.1640   11.4670 C.ar  254  TRP254      0.0012
    165  CZ2       -8.5010  -47.9320   12.0380 C.ar  254  TRP254      0.0191
    166  CZ3       -7.5840  -46.1540   10.6780 C.ar  254  TRP254      0.0001
    167  CH2       -7.7780  -47.5140   10.9600 C.ar  254  TRP254      0.0015
    168  N        -10.8110  -32.1170    1.4070 N.3   266  GLN266     -0.1245
    169  CA       -10.2140  -33.2810    0.6650 C.3   266  GLN266      0.1566
    170  C        -11.1970  -33.6670   -0.4080 C.2   266  GLN266      0.2260
    171  O        -12.4580  -33.6190   -0.2760 O.2   266  GLN266     -0.2867
    172  CB       -10.0000  -34.3820    1.6970 C.3   266  GLN266      0.0367
    173  CG        -9.3050  -35.6180    1.0220 C.3   266  GLN266      0.0905
    174  CD        -9.1070  -36.7330    1.9290 C.2   266  GLN266      0.2608
    175  OE1       -9.8180  -36.9320    2.9530 O.2   266  GLN266     -0.2717
    176  NE2       -8.1540  -37.6300    1.6100 N.am  266  GLN266     -0.0878
    177  N        -11.2360  -37.1720   -3.4240 N.3   268  GLU268     -0.1245
    178  CA       -10.4700  -38.4230   -3.8400 C.3   268  GLU268      0.1567
    179  C        -11.1690  -39.0940   -4.9330 C.2   268  GLU268      0.2260
    180  O        -12.4260  -39.3000   -4.9430 O.2   268  GLU268     -0.2867
    181  CB       -10.4220  -39.4110   -2.6660 C.3   268  GLU268      0.0388
    182  CG        -9.8070  -40.7720   -2.9730 C.3   268  GLU268      0.1160
    183  CD        -9.6360  -41.6080   -1.7790 C.2   268  GLU268      0.3649
    184  OE1       -8.7450  -42.4480   -1.6900 O.co2 268  GLU268     -0.2457
    185  OE2      -10.4780  -41.4380   -0.8270 O.co2 268  GLU268     -0.2457
@<TRIPOS>BOND
     1   180   179    2
     2   179   178    1
     3    71    70    2
     4   109   108    2
     5    68    69    1
     6   178   177    1
     7   178   181    1
     8   108   107    1
     9    70    69    1
    10   137   138    1
    11    69    72    1
    12   182   181    1
    13   182   183    1
    14   106   107    1
    15   106   104   am
    16   107   110    1
    17    72    73    1
    18   138   141    1
    19   138   139    1
    20   104   103    1
    21   104   105    2
    22   103   102    1
    23   183   184   ar
    24   183   185   ar
    25   141   142    1
    26   112   114   ar
    27   112   111   ar
    28   139   140    2
    29   114   115   ar
    30   110   111    1
    31    73    74   ar
    32    73    75   ar
    33   119   118    2
    34   111   113   ar
    35   102    97   am
    36   115   113   ar
    37   142   143    1
    38    67    65    1
    39   116   117    1
    40   145   143   ar
    41   118   117    1
    42   118   127   am
    43   170   171    2
    44   170   169    1
    45    63    62    1
    46    63    64    2
    47    62    65    1
    48    62    61    1
    49   117   120    1
    50   129   128    1
    51   129   130    2
    52   143   144   ar
    53   128   127    1
    54   128   131    1
    55    65    66    1
    56    97    98    2
    57    97    96    1
    58   169   168    1
    59   169   172    1
    60   122   124   ar
    61   122   121   ar
    62   146   147    1
    63    99    96    1
    64    99   100    1
    65    99   101    1
    66   173   172    1
    67   173   174    1
    68    96    95    1
    69   120   121    1
    70   124   126   ar
    71    59    58   ar
    72   121   123   ar
    73   176   174   am
    74   131   132    1
    75   174   175    2
    76   134   132   ar
    77   134   136   ar
    78    58    60   ar
    79    58    57    1
    80   147   148    1
    81   147   150    1
    82   132   133   ar
    83   149   148    2
    84    55    54    1
    85    55    56    2
    86    54    53    1
    87    54    57    1
    88   126   125   ar
    89   136   135   ar
    90    95    86   am
    91   123   125   ar
    92   153   152    1
    93    87    86    2
    94   133   135   ar
    95    86    85    1
    96   150   151    1
    97   151   152    1
    98     1     2    1
    99    85    84    1
   100    85    88    1
   101     7     5    1
   102    84    78   am
   103    88    89    1
   104    16    14   ar
   105    16    18   ar
   106    34    33    2
   107    76    77    1
   108    19    18    1
   109    78    79    2
   110    78    77    1
   111     2     5    1
   112     2     3    1
   113    14    13   ar
   114    18    17   ar
   115    31    32    1
   116     5     6    1
   117    77    80    1
   118    52    50   ar
   119    52    51   ar
   120    41    42    1
   121    41    38    1
   122    89    91   ar
   123    89    90   ar
   124    33    32    1
   125    36    35    1
   126    35    32    1
   127    13    12    1
   128    13    15   ar
   129     3     4    2
   130    50    48   ar
   131    17    15   ar
   132    91    93   ar
   133    12     9    1
   134    51    49   ar
   135    38    37    1
   136    38    39    1
   137    90    92   ar
   138    82    81   ar
   139    80    81    1
   140    43    39   am
   141    43    44    1
   142    81    83   ar
   143    48    49   ar
   144    48    47    1
   145     9     8    1
   146     9    10    1
   147    39    40    2
   148    93    94   ar
   149    92    94   ar
   150    44    47    1
   151    44    45    1
   152    29    27   ar
   153    29    30   ar
   154    27    25   ar
   155    10    11    2
   156    30    28   ar
   157    45    46    2
   158    25    24    1
   159    25    26   ar
   160   166   167   ar
   161   166   164   ar
   162    28    26   ar
   163    24    21    1
   164   167   165   ar
   165   164   161   ar
   166    23    22    2
   167   165   163   ar
   168    21    22    1
   169    21    20    1
   170   161   163   ar
   171   161   159   ar
   172   157   156    2
   173   163   162   ar
   174   159   158    1
   175   159   160   ar
   176   158   155    1
   177   156   155    1
   178   162   160   ar
   179   155   154    1
