@<TRIPOS>MOLECULE
tmp/3pkcA00.pdb
 222 213 0 0 0
SMALL
GASTEIGER

@<TRIPOS>ATOM
      1  N        -37.2440   -2.2400   -5.8580 N.3    32  GLU32      -0.1231
      2  CA       -36.8040   -3.1320   -6.9700 C.3    32  GLU32       0.1699
      3  C        -36.2110   -4.3960   -6.4370 C.2    32  GLU32       0.2592
      4  O        -35.8450   -4.4450   -5.2230 O.2    32  GLU32      -0.2718
      5  CB       -35.7930   -2.4010   -7.8910 C.3    32  GLU32       0.0402
      6  CG       -34.4500   -2.2610   -7.1540 C.3    32  GLU32       0.1161
      7  CD       -33.3400   -1.5100   -7.9970 C.2    32  GLU32       0.3649
      8  OE1      -33.5770   -0.9340   -9.1070 O.co2  32  GLU32      -0.2457
      9  OE2      -32.2040   -1.5250   -7.5260 O.co2  32  GLU32      -0.2457
     10  N        -36.2660   -5.4530   -7.2100 N.am   33  GLY33      -0.1957
     11  CA       -35.5840   -6.6800   -6.8080 C.3    33  GLY33       0.1869
     12  C        -36.5230   -7.8520   -6.7620 C.2    33  GLY33       0.2309
     13  O        -36.0190   -8.9580   -6.5860 O.2    33  GLY33      -0.2863
     14  N        -29.8970    7.2510  -13.4050 N.3    91  THR91      -0.1218
     15  CA       -28.8620    7.2540  -12.3310 C.3    91  THR91       0.1862
     16  C        -29.1050    8.4300  -11.3820 C.2    91  THR91       0.2287
     17  O        -28.7210    8.3510  -10.1850 O.2    91  THR91      -0.2866
     18  CB       -27.4000    7.3980  -12.8240 C.3    91  THR91       0.1770
     19  OG1      -27.2760    8.5870  -13.5580 O.3    91  THR91      -0.2211
     20  CG2      -27.1030    6.2200  -13.7260 C.3    91  THR91       0.0375
     21  N        -30.5420    7.9250   -7.7660 N.3    94  TYR94      -0.1227
     22  CA       -30.5880    6.5060   -7.3100 C.3    94  TYR94       0.1736
     23  C        -29.6080    6.3750   -6.2080 C.2    94  TYR94       0.2595
     24  O        -28.4060    6.4910   -6.3800 O.2    94  TYR94      -0.2718
     25  CB       -30.1910    5.6390   -8.5080 C.3    94  TYR94       0.0548
     26  CG       -30.1690    4.1920   -8.1620 C.ar   94  TYR94      -0.0200
     27  CD1      -31.2910    3.3910   -8.4240 C.ar   94  TYR94      -0.0009
     28  CD2      -29.0710    3.5780   -7.5450 C.ar   94  TYR94      -0.0009
     29  CE1      -31.2760    2.0350   -8.1470 C.ar   94  TYR94       0.0417
     30  CE2      -29.1100    2.2230   -7.2440 C.ar   94  TYR94       0.0417
     31  CZ       -30.1860    1.4360   -7.5460 C.ar   94  TYR94       0.1957
     32  OH       -30.1570    0.0490   -7.2150 O.3    94  TYR94      -0.2866
     33  N        -30.1510    6.1960   -4.9970 N.am   95  LYS95      -0.1980
     34  CA       -29.4090    6.1190   -3.7290 C.3    95  LYS95       0.1596
     35  C        -28.4840    7.3430   -3.6000 C.2    95  LYS95       0.2287
     36  O        -27.2880    7.2090   -3.2170 O.2    95  LYS95      -0.2864
     37  CB       -28.6220    4.7920   -3.6770 C.3    95  LYS95       0.0298
     38  CG       -29.5090    3.5570   -3.6670 C.3    95  LYS95       0.0038
     39  CD       -28.6240    2.3110   -3.5650 C.3    95  LYS95       0.0206
     40  CE       -29.4820    0.9920   -3.5910 C.3    95  LYS95       0.1093
     41  NZ       -28.6710   -0.3120   -3.5880 N.3    95  LYS95      -0.1314
     42  N        -27.1040    9.0350   -6.0650 N.3    97  PHE97      -0.1241
     43  CA       -26.0510    9.3030   -7.0360 C.3    97  PHE97       0.1605
     44  C        -26.2480   10.6440   -7.7180 C.2    97  PHE97       0.2264
     45  O        -27.3900   11.0260   -8.0270 O.2    97  PHE97      -0.2867
     46  CB       -26.1870    8.2440   -8.0740 C.3    97  PHE97       0.0534
     47  CG       -25.0120    8.2950   -9.0700 C.ar   97  PHE97      -0.0203
     48  CD1      -23.8180    7.6290   -8.8520 C.ar   97  PHE97      -0.0042
     49  CD2      -25.2310    8.9560  -10.3150 C.ar   97  PHE97      -0.0042
     50  CE1      -22.7090    7.7400   -9.8110 C.ar   97  PHE97      -0.0003
     51  CE2      -24.1370    9.0380  -11.2550 C.ar   97  PHE97      -0.0003
     52  CZ       -22.8860    8.4340  -11.0070 C.ar   97  PHE97      -0.0000
     53  N        -22.6210    7.5630  -15.5450 N.3   102  CYS102     -0.1235
     54  CA       -21.3500    7.2490  -14.9110 C.3   102  CYS102      0.1677
     55  C        -20.2720    7.3150  -15.8690 C.2   102  CYS102      0.2270
     56  O        -20.4560    6.8370  -17.0210 O.2   102  CYS102     -0.2867
     57  CB       -21.2440    5.8360  -14.3150 C.3   102  CYS102      0.0956
     58  SG       -22.6920    5.3470  -13.2370 S.3   102  CYS102     -0.0801
     59  N        -16.1270    0.8430  -12.4890 N.3   110  CYS110     -0.1221
     60  CA       -17.4910    1.2750  -12.7240 C.3   110  CYS110      0.1808
     61  C        -17.8190    2.4240  -11.7860 C.2   110  CYS110      0.2601
     62  O        -17.1520    2.6240  -10.7250 O.2   110  CYS110     -0.2717
     63  CB       -18.5470    0.0980  -12.7000 C.3   110  CYS110      0.0970
     64  SG       -18.6210   -0.6720  -11.0850 S.3   110  CYS110     -0.0800
     65  N        -18.9270    3.0440  -12.0660 N.am  111  HIS111     -0.1975
     66  CA       -19.6330    3.9990  -11.1850 C.3   111  HIS111      0.1656
     67  C        -18.8840    5.2910  -10.8960 C.2   111  HIS111      0.2291
     68  O        -19.1660    5.9270   -9.8980 O.2   111  HIS111     -0.2864
     69  CB       -20.1140    3.3300   -9.8710 C.3   111  HIS111      0.0771
     70  CG       -20.9720    2.1050  -10.0830 C.ar  111  HIS111      0.0820
     71  ND1      -21.3040    1.2710   -9.0420 N.ar  111  HIS111     -0.2267
     72  CD2      -21.5460    1.5950  -11.2030 C.ar  111  HIS111      0.1154
     73  CE1      -22.0470    0.2730   -9.4950 C.ar  111  HIS111      0.1986
     74  NE2      -22.2090    0.4350  -10.8080 N.ar  111  HIS111     -0.2212
     75  N        -21.7490    5.3990  -19.1190 N.3   128  ASP128     -0.1239
     76  CA       -22.8700    4.5070  -18.8480 C.3   128  ASP128      0.1674
     77  C        -24.1280    5.3360  -18.5660 C.2   128  ASP128      0.2266
     78  O        -24.1470    6.1150  -17.6590 O.2   128  ASP128     -0.2867
     79  CB       -22.4770    3.6150  -17.6030 C.3   128  ASP128      0.1410
     80  CG       -23.4930    2.5000  -17.4180 C.2   128  ASP128      0.3668
     81  OD1      -24.6380    2.6950  -17.8350 O.co2 128  ASP128     -0.2456
     82  OD2      -23.1550    1.4090  -16.9210 O.co2 128  ASP128     -0.2456
     83  N        -28.4560    5.5220  -18.4840 N.3   130  THR130     -0.1218
     84  CA       -29.7680    4.8450  -18.4150 C.3   130  THR130      0.1862
     85  C        -30.8950    5.8470  -18.5770 C.2   130  THR130      0.2287
     86  O        -30.8500    6.9080  -17.9920 O.2   130  THR130     -0.2866
     87  CB       -29.8890    4.0920  -17.1160 C.3   130  THR130      0.1770
     88  OG1      -28.8350    3.0630  -17.1160 O.3   130  THR130     -0.2211
     89  CG2      -31.1830    3.2720  -16.9890 C.3   130  THR130      0.0375
     90  N        -30.6900    0.7350  -20.4380 N.3   139  ASP139     -0.1239
     91  CA       -29.3210    0.8710  -19.8730 C.3   139  ASP139      0.1674
     92  C        -28.2580    0.4350  -20.8890 C.2   139  ASP139      0.2266
     93  O        -28.2850   -0.6990  -21.3150 O.2   139  ASP139     -0.2867
     94  CB       -29.4000    0.0160  -18.5940 C.3   139  ASP139      0.1410
     95  CG       -28.1980    0.0320  -17.7240 C.2   139  ASP139      0.3668
     96  OD1      -28.2160   -0.6700  -16.6150 O.co2 139  ASP139     -0.2456
     97  OD2      -27.2810    0.7950  -17.9920 O.co2 139  ASP139     -0.2456
     98  N        -17.9060   -8.9700   -8.7670 N.3   198  ASP198     -0.1225
     99  CA       -18.8090   -8.4350   -7.6940 C.3   198  ASP198      0.1805
    100  C        -19.8160   -7.4920   -8.2600 C.2   198  ASP198      0.2598
    101  O        -20.7630   -7.1580   -7.5140 O.2   198  ASP198     -0.2718
    102  CB       -18.1080   -7.7630   -6.5060 C.3   198  ASP198      0.1424
    103  CG       -17.3460   -8.7130   -5.6690 C.2   198  ASP198      0.3668
    104  OD1      -17.5270   -9.9550   -5.7890 O.co2 198  ASP198     -0.2456
    105  OD2      -16.5730   -8.1750   -4.8260 O.co2 198  ASP198     -0.2456
    106  N        -19.6640   -7.1000   -9.5420 N.am  199  PHE199     -0.1962
    107  CA       -20.6230   -6.2470  -10.2320 C.3   199  PHE199      0.1771
    108  C        -21.1330   -7.0350  -11.3990 C.2   199  PHE199      0.2620
    109  O        -20.4070   -7.7550  -12.0280 O.2   199  PHE199     -0.2715
    110  CB       -19.9020   -4.9150  -10.6670 C.3   199  PHE199      0.0574
    111  CG       -19.3350   -4.1920   -9.4340 C.ar  199  PHE199     -0.0200
    112  CD1      -20.1790   -3.2810   -8.7600 C.ar  199  PHE199     -0.0042
    113  CD2      -18.0300   -4.3530   -9.0200 C.ar  199  PHE199     -0.0042
    114  CE1      -19.7420   -2.6580   -7.5460 C.ar  199  PHE199     -0.0003
    115  CE2      -17.5730   -3.7460   -7.7870 C.ar  199  PHE199     -0.0003
    116  CZ       -18.4250   -2.9140   -7.0980 C.ar  199  PHE199     -0.0000
    117  N        -22.4300   -6.9560  -11.5930 N.am  200  THR200     -0.1951
    118  CA       -23.0650   -7.9570  -12.4920 C.3   200  THR200      0.1897
    119  C        -24.0790   -7.2510  -13.4010 C.2   200  THR200      0.2313
    120  O        -24.5120   -6.0990  -13.1810 O.2   200  THR200     -0.2863
    121  CB       -23.8720   -9.0550  -11.7250 C.3   200  THR200      0.1794
    122  OG1      -25.0890   -8.5340  -11.1330 O.3   200  THR200     -0.2208
    123  CG2      -23.0490   -9.6800  -10.6770 C.3   200  THR200      0.0378
    124  N        -28.0750   -7.5440  -15.0370 N.3   202  HIS202     -0.1241
    125  CA       -29.3060   -7.6060  -14.2300 C.3   202  HIS202      0.1621
    126  C        -30.5360   -7.5470  -15.1110 C.2   202  HIS202      0.2264
    127  O        -30.5110   -6.9880  -16.2190 O.2   202  HIS202     -0.2867
    128  CB       -29.3870   -6.4150  -13.2720 C.3   202  HIS202      0.0745
    129  CG       -29.1410   -5.1020  -13.9390 C.ar  202  HIS202      0.0817
    130  ND1      -30.1700   -4.3240  -14.4010 N.ar  202  HIS202     -0.2268
    131  CD2      -27.9970   -4.4790  -14.3220 C.ar  202  HIS202      0.1154
    132  CE1      -29.6870   -3.2270  -14.9910 C.ar  202  HIS202      0.1986
    133  NE2      -28.3660   -3.3200  -15.0050 N.ar  202  HIS202     -0.2212
    134  N        -35.1330   -0.6240  -12.4390 N.3   208  PHE208     -0.1227
    135  CA       -33.7760   -0.5350  -12.9310 C.3   208  PHE208      0.1736
    136  C        -33.0400   -1.8430  -12.7860 C.2   208  PHE208      0.2595
    137  O        -32.4890   -2.3780  -13.7550 O.2   208  PHE208     -0.2718
    138  CB       -33.1250    0.5970  -12.1630 C.3   208  PHE208      0.0547
    139  CG       -31.8650    1.2070  -12.7810 C.ar  208  PHE208     -0.0202
    140  CD1      -31.1100    0.6090  -13.7970 C.ar  208  PHE208     -0.0042
    141  CD2      -31.4410    2.4330  -12.2640 C.ar  208  PHE208     -0.0042
    142  CE1      -29.9210    1.2080  -14.2380 C.ar  208  PHE208     -0.0003
    143  CE2      -30.2490    2.9950  -12.7040 C.ar  208  PHE208     -0.0003
    144  CZ       -29.5130    2.3950  -13.7420 C.ar  208  PHE208     -0.0000
    145  N        -33.0980   -2.4680  -11.6090 N.am  209  HIS209     -0.1975
    146  CA       -32.4950   -3.7560  -11.3800 C.3   209  HIS209      0.1656
    147  C        -33.6320   -4.5970  -10.7350 C.2   209  HIS209      0.2291
    148  O        -33.9630   -4.4250   -9.5200 O.2   209  HIS209     -0.2864
    149  CB       -31.3460   -3.5670  -10.4260 C.3   209  HIS209      0.0771
    150  CG       -30.3390   -2.5240  -10.8530 C.ar  209  HIS209      0.0820
    151  ND1      -30.4070   -1.1960  -10.4930 N.ar  209  HIS209     -0.2267
    152  CD2      -29.2520   -2.6400  -11.6530 C.ar  209  HIS209      0.1154
    153  CE1      -29.3600   -0.5270  -11.0130 C.ar  209  HIS209      0.1986
    154  NE2      -28.6370   -1.3910  -11.7070 N.ar  209  HIS209     -0.2212
    155  N        -33.9700   -7.8460   -9.8300 N.3   211  GLY211     -0.1210
    156  CA       -33.7300   -8.9860   -8.9810 C.3   211  GLY211      0.1956
    157  C        -33.0970  -10.1440   -9.7150 C.2   211  GLY211      0.2612
    158  O        -32.2860  -10.9460   -9.1370 O.2   211  GLY211     -0.2717
    159  N        -33.3210  -10.2030  -11.0910 N.am  212  LEU212     -0.1965
    160  CA       -32.5770  -11.1800  -11.8730 C.3   212  LEU212      0.1728
    161  C        -31.1070  -10.7500  -11.8920 C.2   212  LEU212      0.2616
    162  O        -30.8400   -9.5540  -12.2050 O.2   212  LEU212     -0.2715
    163  CB       -33.1240  -11.2450  -13.3080 C.3   212  LEU212      0.0311
    164  CG       -32.3300  -12.0790  -14.2980 C.3   212  LEU212      0.0022
    165  CD1      -32.3380  -13.5810  -14.0220 C.3   212  LEU212      0.0001
    166  CD2      -32.9510  -11.9160  -15.6990 C.3   212  LEU212      0.0001
    167  N        -30.1700  -11.6580  -11.6790 N.am  213  VAL213     -0.1977
    168  CA       -28.7290  -11.3040  -11.8000 C.3   213  VAL213      0.1596
    169  C        -28.1140  -12.0450  -12.9930 C.2   213  VAL213      0.2287
    170  O        -28.3950  -13.2630  -13.1710 O.2   213  VAL213     -0.2864
    171  CB       -28.0930  -11.8010  -10.5000 C.3   213  VAL213      0.0276
    172  CG1      -26.5590  -11.7110  -10.6510 C.3   213  VAL213      0.0022
    173  CG2      -28.5950  -10.9700   -9.3000 C.3   213  VAL213      0.0022
    174  N        -23.1570   -6.7890  -19.2080 N.3   235  GLU235     -0.1245
    175  CA       -22.3080   -5.5620  -19.0610 C.3   235  GLU235      0.1567
    176  C        -20.9580   -5.8790  -18.4360 C.2   235  GLU235      0.2260
    177  O        -20.6100   -5.3460  -17.3830 O.2   235  GLU235     -0.2867
    178  CB       -23.0530   -4.5400  -18.2230 C.3   235  GLU235      0.0388
    179  CG       -23.5240   -4.8730  -16.7560 C.3   235  GLU235      0.1160
    180  CD       -24.2770   -3.7150  -16.2030 C.2   235  GLU235      0.3649
    181  OE1      -23.5670   -2.6170  -16.0950 O.co2 235  GLU235     -0.2457
    182  OE2      -25.4580   -3.8310  -15.8480 O.co2 235  GLU235     -0.2457
    183  N        -17.3020   -6.1130  -17.0160 N.3   237  MET237     -0.1245
    184  CA       -16.1180   -5.3290  -16.7780 C.3   237  MET237      0.1570
    185  C        -14.9490   -6.3160  -16.7800 C.2   237  MET237      0.2261
    186  O        -15.0130   -7.3730  -16.0900 O.2   237  MET237     -0.2867
    187  CB       -16.2700   -4.6630  -15.3750 C.3   237  MET237      0.0387
    188  CG       -17.4030   -3.6360  -15.3780 C.3   237  MET237      0.0595
    189  SD       -18.3930   -3.6950  -13.8500 S.3   237  MET237     -0.1393
    190  CE       -19.4020   -5.1790  -14.1840 C.3   237  MET237      0.0692
    191  N        -19.0250    5.6600   -4.3150 N.3   252  TRP252     -0.1241
    192  CA       -19.4350    5.2030   -5.6420 C.3   252  TRP252      0.1605
    193  C        -18.3250    4.6330   -6.4770 C.2   252  TRP252      0.2264
    194  O        -18.3870    3.5610   -7.0100 O.2   252  TRP252     -0.2867
    195  CB       -20.1640    6.3310   -6.3830 C.3   252  TRP252      0.0550
    196  CG       -21.5920    6.5440   -5.9280 C.ar  252  TRP252      0.0003
    197  CD1      -22.0270    7.5820   -5.1970 C.ar  252  TRP252      0.0946
    198  CD2      -22.6870    5.6400   -6.0910 C.ar  252  TRP252      0.0152
    199  NE1      -23.4010    7.4730   -4.9940 N.ar  252  TRP252     -0.2442
    200  CE2      -23.7940    6.2580   -5.4820 C.ar  252  TRP252      0.0810
    201  CE3      -22.8620    4.4130   -6.7390 C.ar  252  TRP252      0.0012
    202  CZ2      -25.0630    5.6550   -5.5420 C.ar  252  TRP252      0.0191
    203  CZ3      -24.0990    3.7620   -6.7400 C.ar  252  TRP252      0.0001
    204  CH2      -25.2010    4.4140   -6.1400 C.ar  252  TRP252      0.0015
    205  N        -15.4190   -1.8830  -20.2020 N.3   264  GLN264     -0.1245
    206  CA       -16.7860   -2.3860  -20.1010 C.3   264  GLN264      0.1566
    207  C        -17.6170   -2.0130  -21.3510 C.2   264  GLN264      0.2260
    208  O        -17.4340   -0.9000  -21.8900 O.2   264  GLN264     -0.2867
    209  CB       -17.3420   -1.8260  -18.7480 C.3   264  GLN264      0.0367
    210  CG       -18.7580   -2.4180  -18.5240 C.3   264  GLN264      0.0905
    211  CD       -19.3870   -1.8230  -17.2690 C.2   264  GLN264      0.2608
    212  OE1      -19.0850   -0.7140  -16.8320 O.2   264  GLN264     -0.2717
    213  NE2      -20.4350   -2.4950  -16.8120 N.am  264  GLN264     -0.0878
    214  N        -22.0260   -2.4370  -22.4110 N.3   266  GLU266     -0.1245
    215  CA       -23.3490   -2.9060  -21.9520 C.3   266  GLU266      0.1567
    216  C        -24.4170   -2.6660  -22.9820 C.2   266  GLU266      0.2260
    217  O        -24.5070   -1.5810  -23.5280 O.2   266  GLU266     -0.2867
    218  CB       -23.7310   -2.1560  -20.6610 C.3   266  GLU266      0.0388
    219  CG       -25.1900   -2.4030  -20.1620 C.3   266  GLU266      0.1160
    220  CD       -25.4290   -1.7510  -18.7940 C.2   266  GLU266      0.3649
    221  OE1      -26.2140   -2.2250  -17.9540 O.co2 266  GLU266     -0.2457
    222  OE2      -24.8470   -0.6960  -18.6330 O.co2 266  GLU266     -0.2457
@<TRIPOS>BOND
     1   217   216    2
     2   216   215    1
     3   214   215    1
     4   215   218    1
     5   208   207    2
     6   207   206    1
     7    93    92    2
     8    92    91    1
     9   218   219    1
    10    90    91    1
    11   205   206    1
    12   219   220    1
    13   206   209    1
    14    91    94    1
    15   174   175    1
    16    75    76    1
    17   175   176    1
    18   175   178    1
    19    76    77    1
    20    76    79    1
    21   220   222   ar
    22   220   221   ar
    23   209   210    1
    24    94    95    1
    25    85    84    1
    26    85    86    2
    27    77    78    2
    28   210   211    1
    29    83    84    1
    30   176   177    2
    31    84    87    1
    32   178   179    1
    33    97    95   ar
    34    81    80   ar
    35    95    96   ar
    36    79    80    1
    37    80    82   ar
    38   211   212    2
    39   211   213   am
    40    88    87    1
    41    87    89    1
    42    56    55    2
    43   183   184    1
    44   185   184    1
    45   185   186    2
    46   184   187    1
    47   179   180    1
    48   127   126    2
    49   180   181   ar
    50   180   182   ar
    51    55    54    1
    52   166   164    1
    53    53    54    1
    54   188   187    1
    55   188   189    1
    56   126   125    1
    57   124   125    1
    58   133   132   ar
    59   133   131   ar
    60   132   130   ar
    61    54    57    1
    62   130   129   ar
    63   131   129   ar
    64    57    58    1
    65   164   165    1
    66   164   163    1
    67   142   140   ar
    68   142   144   ar
    69   125   128    1
    70   190   189    1
    71   129   128    1
    72   140   139   ar
    73   137   136    2
    74   144   143   ar
    75    20    18    1
    76    19    18    1
    77    14    15    1
    78   119   120    2
    79   119   118    1
    80   163   160    1
    81   170   169    2
    82   169   168    1
    83   135   136    1
    84   135   134    1
    85   135   138    1
    86    18    15    1
    87   136   145   am
    88   139   141   ar
    89   139   138    1
    90    60    63    1
    91    60    59    1
    92    60    61    1
    93   143   141   ar
    94    63    64    1
    95   118   121    1
    96   118   117    1
    97    15    16    1
    98   162   161    2
    99    65    61   am
   100    65    66    1
   101   109   108    2
   102   161   160    1
   103   161   167   am
   104   160   159    1
   105   168   167    1
   106   168   171    1
   107    61    62    2
   108   121   122    1
   109   121   123    1
   110   154   152   ar
   111   154   153   ar
   112   152   150   ar
   113   145   146    1
   114   117   108   am
   115   108   107    1
   116    16    17    2
   117   146   147    1
   118   146   149    1
   119    51    52   ar
   120    51    49   ar
   121    72    74   ar
   122    72    70   ar
   123    66    67    1
   124    66    69    1
   125   159   157   am
   126   153   151   ar
   127    52    50   ar
   128    67    68    2
   129   150   151   ar
   130   150   149    1
   131    74    73   ar
   132   147   148    2
   133   110   107    1
   134   110   111    1
   135   172   171    1
   136   171   173    1
   137    49    47   ar
   138   107   106    1
   139    70    69    1
   140    70    71   ar
   141   155   156    1
   142    50    48   ar
   143   157   158    2
   144   157   156    1
   145   106   100   am
   146    73    71   ar
   147   111   113   ar
   148   111   112   ar
   149     8     7   ar
   150    47    48   ar
   151    47    46    1
   152   113   115   ar
   153    98    99    1
   154   112   114   ar
   155    25    26    1
   156    25    22    1
   157    27    26   ar
   158    27    29   ar
   159   100    99    1
   160   100   101    2
   161    26    28   ar
   162    29    31   ar
   163    46    43    1
   164    45    44    2
   165     7     9   ar
   166     7     6    1
   167     5     6    1
   168     5     2    1
   169   115   116   ar
   170    21    22    1
   171    44    43    1
   172    99   102    1
   173    31    30   ar
   174    31    32    1
   175   114   116   ar
   176    28    30   ar
   177    22    23    1
   178    10    11    1
   179    10     3   am
   180    43    42    1
   181   194   193    2
   182     2     3    1
   183     2     1    1
   184    11    12    1
   185    12    13    2
   186   203   201   ar
   187   203   204   ar
   188   201   198   ar
   189   102   103    1
   190   193   192    1
   191     3     4    2
   192   195   196    1
   193   195   192    1
   194    24    23    2
   195    23    33   am
   196   204   202   ar
   197   198   196   ar
   198   198   200   ar
   199   196   197   ar
   200   104   103   ar
   201   103   105   ar
   202   192   191    1
   203   202   200   ar
   204   200   199   ar
   205   197   199   ar
   206    33    34    1
   207    34    37    1
   208    34    35    1
   209    37    38    1
   210    38    39    1
   211    35    36    2
   212    40    41    1
   213    40    39    1
