@<TRIPOS>MOLECULE
tmp/3pkdA00.pdb
 214 206 0 0 0
SMALL
GASTEIGER

@<TRIPOS>ATOM
      1  N         37.4090   -2.3650    5.6880 N.3    32  GLU32      -0.1245
      2  CA        36.9180   -3.2640    6.7570 C.3    32  GLU32       0.1567
      3  C         36.3740   -4.5190    6.1680 C.2    32  GLU32       0.2260
      4  O         35.9880   -4.5310    4.9620 O.2    32  GLU32      -0.2867
      5  CB        35.8350   -2.5840    7.6260 C.3    32  GLU32       0.0388
      6  CG        34.5320   -2.3920    6.8660 C.3    32  GLU32       0.1160
      7  CD        33.4420   -1.5830    7.6150 C.2    32  GLU32       0.3649
      8  OE1       33.6540   -1.0430    8.7070 O.co2  32  GLU32      -0.2457
      9  OE2       32.3820   -1.4730    6.9450 O.co2  32  GLU32      -0.2457
     10  N         29.7710    7.2400   13.2480 N.3    91  THR91      -0.1218
     11  CA        28.7810    7.2350   12.1580 C.3    91  THR91       0.1862
     12  C         29.0460    8.3790   11.1740 C.2    91  THR91       0.2287
     13  O         28.6150    8.2980    9.9800 O.2    91  THR91      -0.2866
     14  CB        27.3360    7.3750   12.6760 C.3    91  THR91       0.1770
     15  OG1       27.2100    8.5800   13.3980 O.3    91  THR91      -0.2211
     16  CG2       26.9520    6.2140   13.5470 C.3    91  THR91       0.0375
     17  N         30.4950    7.8380    7.6660 N.3    94  TYR94      -0.1227
     18  CA        30.5700    6.4400    7.2390 C.3    94  TYR94       0.1736
     19  C         29.5560    6.2690    6.1100 C.2    94  TYR94       0.2592
     20  O         28.3580    6.3820    6.2740 O.2    94  TYR94      -0.2718
     21  CB        30.1280    5.5940    8.4280 C.3    94  TYR94       0.0548
     22  CG        30.1860    4.0810    8.1070 C.ar   94  TYR94      -0.0200
     23  CD1       31.4110    3.3610    8.2730 C.ar   94  TYR94      -0.0009
     24  CD2       29.0520    3.3800    7.6240 C.ar   94  TYR94      -0.0009
     25  CE1       31.4380    1.9910    7.9500 C.ar   94  TYR94       0.0417
     26  CE2       29.1090    2.0160    7.3310 C.ar   94  TYR94       0.0417
     27  CZ        30.2960    1.3240    7.5610 C.ar   94  TYR94       0.1957
     28  OH        30.2560   -0.0510    7.2520 O.3    94  TYR94      -0.2866
     29  N         30.1110    6.0260    4.9000 N.am   95  LYS95      -0.2033
     30  CA        29.2700    5.9340    3.6680 C.3    95  LYS95       0.1282
     31  C         28.4330    7.1940    3.5740 C.3    95  LYS95       0.2036
     32  O         27.2230    7.1240    3.1300 O.3    95  LYS95      -0.2185
     33  CB        28.4160    4.6480    3.6190 C.3    95  LYS95       0.0244
     34  CG        29.3200    3.3650    3.6090 C.3    95  LYS95       0.0034
     35  CD        28.3670    2.1590    3.5070 C.3    95  LYS95       0.0206
     36  CE        29.2980    0.9420    3.4610 C.3    95  LYS95       0.1093
     37  NZ        28.5260   -0.4030    3.4280 N.3    95  LYS95      -0.1314
     38  N         27.0620    8.9380    5.9090 N.3    97  PHE97      -0.1241
     39  CA        25.9930    9.2260    6.8980 C.3    97  PHE97       0.1605
     40  C         26.2040   10.5910    7.5140 C.2    97  PHE97       0.2264
     41  O         27.3620   10.9580    7.8660 O.2    97  PHE97      -0.2867
     42  CB        26.1100    8.1290    7.9310 C.3    97  PHE97       0.0534
     43  CG        24.9640    8.1850    8.9650 C.ar   97  PHE97      -0.0203
     44  CD1       23.7190    7.6000    8.6880 C.ar   97  PHE97      -0.0042
     45  CD2       25.1350    8.9200   10.1570 C.ar   97  PHE97      -0.0042
     46  CE1       22.6350    7.7310    9.6490 C.ar   97  PHE97      -0.0003
     47  CE2       24.0680    9.0200   11.0850 C.ar   97  PHE97      -0.0003
     48  CZ        22.8300    8.4120   10.8090 C.ar   97  PHE97      -0.0000
     49  N         22.5130    7.5700   15.4040 N.3   102  CYS102     -0.1235
     50  CA        21.2460    7.2710   14.7870 C.3   102  CYS102      0.1677
     51  C         20.1470    7.3570   15.7640 C.2   102  CYS102      0.2270
     52  O         20.2890    6.9170   16.9240 O.2   102  CYS102     -0.2867
     53  CB        21.1770    5.8420   14.1780 C.3   102  CYS102      0.0956
     54  SG        22.5520    5.3670   13.0980 S.3   102  CYS102     -0.0801
     55  N         15.9690    0.8730   12.3140 N.3   110  CYS110     -0.1221
     56  CA        17.3290    1.3400   12.5710 C.3   110  CYS110      0.1808
     57  C         17.6660    2.4230   11.5690 C.2   110  CYS110      0.2601
     58  O         17.0430    2.6140   10.5460 O.2   110  CYS110     -0.2717
     59  CB        18.3710    0.1480   12.5160 C.3   110  CYS110      0.0970
     60  SG        18.4930   -0.6360   10.8650 S.3   110  CYS110     -0.0800
     61  N         18.7840    3.0530   11.9050 N.am  111  HIS111     -0.1975
     62  CA        19.5170    4.0110   10.9900 C.3   111  HIS111      0.1656
     63  C         18.7200    5.2810   10.6900 C.2   111  HIS111      0.2291
     64  O         19.0040    5.9720    9.7220 O.2   111  HIS111     -0.2864
     65  CB        19.9490    3.3300    9.6670 C.3   111  HIS111      0.0771
     66  CG        20.8600    2.1510    9.8700 C.ar  111  HIS111      0.0820
     67  ND1       21.1700    1.3300    8.7970 N.ar  111  HIS111     -0.2267
     68  CD2       21.4400    1.6130   10.9680 C.ar  111  HIS111      0.1154
     69  CE1       21.9240    0.3250    9.2210 C.ar  111  HIS111      0.1986
     70  NE2       22.0960    0.4500   10.5390 N.ar  111  HIS111     -0.2212
     71  N         21.6200    5.4300   18.9800 N.3   128  ASP128     -0.1239
     72  CA        22.7310    4.5270   18.7090 C.3   128  ASP128      0.1674
     73  C         23.9880    5.3490   18.4600 C.2   128  ASP128      0.2266
     74  O         24.0510    6.1070   17.4780 O.2   128  ASP128     -0.2867
     75  CB        22.3280    3.6210   17.5010 C.3   128  ASP128      0.1410
     76  CG        23.3730    2.4950   17.3400 C.2   128  ASP128      0.3668
     77  OD1       24.5150    2.6960   17.7430 O.co2 128  ASP128     -0.2456
     78  OD2       23.0220    1.4420   16.7890 O.co2 128  ASP128     -0.2456
     79  N         28.3450    5.5570   18.3390 N.3   130  THR130     -0.1218
     80  CA        29.6330    4.8310   18.2270 C.3   130  THR130      0.1862
     81  C         30.7480    5.8620   18.3660 C.2   130  THR130      0.2287
     82  O         30.7180    6.9260   17.7930 O.2   130  THR130     -0.2866
     83  CB        29.7490    4.1170   16.8910 C.3   130  THR130      0.1770
     84  OG1       28.5860    3.2310   16.8130 O.3   130  THR130     -0.2211
     85  CG2       31.0110    3.2650   16.7690 C.3   130  THR130      0.0375
     86  N         30.5460    0.7220   20.3240 N.3   139  ASP139     -0.1239
     87  CA        29.2230    0.8770   19.6920 C.3   139  ASP139      0.1674
     88  C         28.1350    0.3900   20.6740 C.2   139  ASP139      0.2266
     89  O         28.1830   -0.7400   21.1580 O.2   139  ASP139     -0.2867
     90  CB        29.3070   -0.0090   18.4120 C.3   139  ASP139      0.1410
     91  CG        28.1100    0.0510   17.5290 C.2   139  ASP139      0.3668
     92  OD1       28.0940   -0.6900   16.4290 O.co2 139  ASP139     -0.2456
     93  OD2       27.1880    0.8530   17.7840 O.co2 139  ASP139     -0.2456
     94  N         19.4900   -7.0800    9.3490 N.3   199  PHE199     -0.1227
     95  CA        20.4770   -6.2690   10.0290 C.3   199  PHE199      0.1736
     96  C         20.9630   -7.0660   11.2050 C.2   199  PHE199      0.2596
     97  O         20.1300   -7.7100   11.8910 O.2   199  PHE199     -0.2718
     98  CB        19.7840   -4.9090   10.4640 C.3   199  PHE199      0.0547
     99  CG        19.2550   -4.1220    9.2290 C.ar  199  PHE199     -0.0202
    100  CD1       17.9580   -4.3100    8.8130 C.ar  199  PHE199     -0.0042
    101  CD2       20.1030   -3.2470    8.6220 C.ar  199  PHE199     -0.0042
    102  CE1       17.4840   -3.6610    7.6030 C.ar  199  PHE199     -0.0003
    103  CE2       19.7160   -2.6090    7.3910 C.ar  199  PHE199     -0.0003
    104  CZ        18.3540   -2.8650    6.9180 C.ar  199  PHE199     -0.0000
    105  N         22.2730   -6.9860   11.4230 N.am  200  THR200     -0.1939
    106  CA        22.8890   -7.9430   12.4100 C.3   200  THR200      0.2028
    107  C         23.8870   -7.2250   13.2950 C.2   200  THR200      0.2643
    108  O         24.3410   -6.1000   13.0210 O.2   200  THR200     -0.2714
    109  CB        23.6370   -9.0900   11.6580 C.3   200  THR200      0.1808
    110  OG1       24.8500   -8.5980   11.0190 O.3   200  THR200     -0.2208
    111  CG2       22.7000   -9.6610   10.5170 C.3   200  THR200      0.0379
    112  N         24.3440   -7.9270   14.3280 N.am  201  GLY201     -0.1939
    113  CA        25.5480   -7.4960   14.9810 C.3   201  GLY201      0.2014
    114  C         26.8080   -7.8760   14.2320 C.2   201  GLY201      0.2638
    115  O         26.7410   -8.4430   13.1040 O.2   201  GLY201     -0.2714
    116  N         27.9560   -7.5290   14.8640 N.am  202  HIS202     -0.1973
    117  CA        29.1730   -7.6420   14.0200 C.3   202  HIS202      0.1656
    118  C         30.3850   -7.5590   14.9120 C.2   202  HIS202      0.2291
    119  O         30.3790   -6.9850   16.0090 O.2   202  HIS202     -0.2864
    120  CB        29.2280   -6.4100   13.0430 C.3   202  HIS202      0.0771
    121  CG        29.0030   -5.1000   13.7710 C.ar  202  HIS202      0.0820
    122  ND1       30.0310   -4.2650   14.2020 N.ar  202  HIS202     -0.2267
    123  CD2       27.8470   -4.5050   14.1430 C.ar  202  HIS202      0.1154
    124  CE1       29.5200   -3.2170   14.8570 C.ar  202  HIS202      0.1986
    125  NE2       28.1740   -3.3440   14.8320 N.ar  202  HIS202     -0.2212
    126  N         34.9480   -0.6960   12.1360 N.3   208  PHE208     -0.1227
    127  CA        33.5470   -0.6180   12.6270 C.3   208  PHE208      0.1736
    128  C         32.7930   -1.9010   12.4500 C.2   208  PHE208      0.2595
    129  O         32.2680   -2.4470   13.4270 O.2   208  PHE208     -0.2718
    130  CB        32.8920    0.5000   11.8570 C.3   208  PHE208      0.0547
    131  CG        31.6500    1.1310   12.4820 C.ar  208  PHE208     -0.0202
    132  CD1       30.8730    0.5520   13.5170 C.ar  208  PHE208     -0.0042
    133  CD2       31.2450    2.3960   12.0100 C.ar  208  PHE208     -0.0042
    134  CE1       29.7370    1.2110   13.9550 C.ar  208  PHE208     -0.0003
    135  CE2       30.0900    3.0260   12.5110 C.ar  208  PHE208     -0.0003
    136  CZ        29.3850    2.4370   13.4960 C.ar  208  PHE208     -0.0000
    137  N         32.7980   -2.4870   11.2440 N.am  209  HIS209     -0.1975
    138  CA        32.0970   -3.7190   10.9340 C.3   209  HIS209      0.1656
    139  C         33.2220   -4.5890   10.3590 C.2   209  HIS209      0.2291
    140  O         33.5220   -4.4730    9.1350 O.2   209  HIS209     -0.2864
    141  CB        30.9840   -3.4080    9.9190 C.3   209  HIS209      0.0771
    142  CG        29.9650   -2.5020   10.4950 C.ar  209  HIS209      0.0820
    143  ND1       29.8990   -1.2120   10.0890 N.ar  209  HIS209     -0.2267
    144  CD2       29.0130   -2.6520   11.4480 C.ar  209  HIS209      0.1154
    145  CE1       28.9330   -0.5690   10.7660 C.ar  209  HIS209      0.1986
    146  NE2       28.3640   -1.4260   11.5820 N.ar  209  HIS209     -0.2212
    147  N         33.8210   -7.8020    9.5520 N.3   211  GLY211     -0.1210
    148  CA        33.6310   -9.0180    8.7740 C.3   211  GLY211      0.1956
    149  C         32.9800  -10.1140    9.5460 C.2   211  GLY211      0.2612
    150  O         32.2220  -10.9190    8.9260 O.2   211  GLY211     -0.2717
    151  N         33.1930  -10.1870   10.8780 N.am  212  LEU212     -0.1965
    152  CA        32.4230  -11.1290   11.6510 C.3   212  LEU212      0.1728
    153  C         30.9620  -10.7000   11.7210 C.2   212  LEU212      0.2616
    154  O         30.7330   -9.4940   11.9670 O.2   212  LEU212     -0.2715
    155  CB        33.0600  -11.1690   13.0580 C.3   212  LEU212      0.0311
    156  CG        32.3020  -11.9850   14.0880 C.3   212  LEU212      0.0022
    157  CD1       32.1510  -13.5050   13.6930 C.3   212  LEU212      0.0001
    158  CD2       32.9520  -11.9000   15.4290 C.3   212  LEU212      0.0001
    159  N         30.0230  -11.6150   11.4690 N.am  213  VAL213     -0.1977
    160  CA        28.5710  -11.3080   11.5320 C.3   213  VAL213      0.1596
    161  C         28.0110  -12.0380   12.7380 C.2   213  VAL213      0.2287
    162  O         28.3380  -13.2340   12.9830 O.2   213  VAL213     -0.2864
    163  CB        27.9210  -11.8700   10.2720 C.3   213  VAL213      0.0276
    164  CG1       26.4180  -11.7720   10.4210 C.3   213  VAL213      0.0022
    165  CG2       28.4340  -11.0260    9.0960 C.3   213  VAL213      0.0022
    166  N         23.0160   -6.7300   19.0460 N.3   235  GLU235     -0.1245
    167  CA        22.1720   -5.5140   18.8830 C.3   235  GLU235      0.1567
    168  C         20.8550   -5.8740   18.2680 C.2   235  GLU235      0.2260
    169  O         20.4490   -5.3060   17.2390 O.2   235  GLU235     -0.2867
    170  CB        22.9420   -4.4490   18.0470 C.3   235  GLU235      0.0388
    171  CG        23.3960   -4.8180   16.6290 C.3   235  GLU235      0.1160
    172  CD        24.1130   -3.6260   16.0070 C.2   235  GLU235      0.3649
    173  OE1       23.4180   -2.5340   15.9110 O.co2 235  GLU235     -0.2457
    174  OE2       25.3060   -3.7650   15.6480 O.co2 235  GLU235     -0.2457
    175  N         17.2350   -6.0730   16.8730 N.3   237  MET237     -0.1245
    176  CA        15.9900   -5.3260   16.5700 C.3   237  MET237      0.1570
    177  C         14.8260   -6.2850   16.5440 C.2   237  MET237      0.2261
    178  O         14.8740   -7.3670   15.9040 O.2   237  MET237     -0.2867
    179  CB        16.1390   -4.6930   15.1560 C.3   237  MET237      0.0387
    180  CG        17.2740   -3.6180   15.1860 C.3   237  MET237      0.0595
    181  SD        18.2480   -3.6350   13.6540 S.3   237  MET237     -0.1393
    182  CE        19.2170   -5.0960   13.9570 C.3   237  MET237      0.0692
    183  N         18.8280    5.6660    4.0940 N.3   252  TRP252     -0.1241
    184  CA        19.2690    5.1890    5.4010 C.3   252  TRP252      0.1605
    185  C         18.1160    4.6790    6.2630 C.2   252  TRP252      0.2264
    186  O         18.1830    3.6210    6.8250 O.2   252  TRP252     -0.2867
    187  CB        19.9710    6.3070    6.2030 C.3   252  TRP252      0.0550
    188  CG        21.4170    6.5480    5.7460 C.ar  252  TRP252      0.0003
    189  CD1       21.8770    7.6270    4.9840 C.ar  252  TRP252      0.0946
    190  CD2       22.4800    5.6630    5.9150 C.ar  252  TRP252      0.0152
    191  NE1       23.2050    7.4970    4.7890 N.ar  252  TRP252     -0.2442
    192  CE2       23.6190    6.3230    5.3650 C.ar  252  TRP252      0.0810
    193  CE3       22.6320    4.4260    6.6120 C.ar  252  TRP252      0.0012
    194  CZ2       24.8920    5.7530    5.4220 C.ar  252  TRP252      0.0191
    195  CZ3       23.9340    3.8200    6.6520 C.ar  252  TRP252      0.0001
    196  CH2       25.0400    4.5140    6.0200 C.ar  252  TRP252      0.0015
    197  N         15.2620   -1.9140   20.0320 N.3   264  GLN264     -0.1245
    198  CA        16.6570   -2.4000   19.9090 C.3   264  GLN264      0.1566
    199  C         17.4850   -2.0290   21.0980 C.2   264  GLN264      0.2260
    200  O         17.2720   -0.9390   21.7280 O.2   264  GLN264     -0.2867
    201  CB        17.2690   -1.7400   18.6720 C.3   264  GLN264      0.0367
    202  CG        18.6240   -2.3790   18.3480 C.3   264  GLN264      0.0905
    203  CD        19.2750   -1.7450   17.1150 C.2   264  GLN264      0.2608
    204  OE1       18.9590   -0.6480   16.6760 O.2   264  GLN264     -0.2717
    205  NE2       20.2820   -2.4650   16.6140 N.am  264  GLN264     -0.0878
    206  N         21.9170   -2.4630   22.2750 N.3   266  GLU266     -0.1245
    207  CA        23.2240   -2.9080   21.7670 C.3   266  GLU266      0.1567
    208  C         24.3010   -2.6830   22.7990 C.2   266  GLU266      0.2260
    209  O         24.4040   -1.6010   23.3770 O.2   266  GLU266     -0.2867
    210  CB        23.6180   -2.1050   20.5030 C.3   266  GLU266      0.0388
    211  CG        25.0620   -2.3830   19.9680 C.3   266  GLU266      0.1160
    212  CD        25.2930   -1.7170   18.6160 C.2   266  GLU266      0.3649
    213  OE1       26.0520   -2.2520   17.7660 O.co2 266  GLU266     -0.2457
    214  OE2       24.7200   -0.6300   18.4610 O.co2 266  GLU266     -0.2457
@<TRIPOS>BOND
     1    32    31    1
     2    37    36    1
     3    36    35    1
     4    35    34    1
     5    31    30    1
     6    34    33    1
     7    33    30    1
     8    30    29    1
     9   183   184    1
    10   191   189   ar
    11   191   192   ar
    12    29    19   am
    13     4     3    2
    14   189   188   ar
    15   192   194   ar
    16   192   190   ar
    17   184   187    1
    18   184   185    1
    19   194   196   ar
    20     1     2    1
    21   188   190   ar
    22   188   187    1
    23    38    39    1
    24   190   193   ar
    25   196   195   ar
    26    19    20    2
    27    19    18    1
    28     3     2    1
    29   185   186    2
    30   193   195   ar
    31     2     5    1
    32     6     7    1
    33     6     5    1
    34    39    40    1
    35    39    42    1
    36   104   103   ar
    37   104   102   ar
    38     9     7   ar
    39    18    17    1
    40    18    21    1
    41    28    27    1
    42    26    27   ar
    43    26    24   ar
    44   103   101   ar
    45    40    41    2
    46    27    25   ar
    47   102   100   ar
    48     7     8   ar
    49    24    22   ar
    50    42    43    1
    51    25    23   ar
    52    22    23   ar
    53    22    21    1
    54   101    99   ar
    55    44    43   ar
    56    44    46   ar
    57   148   149    1
    58   148   147    1
    59    67    69   ar
    60    67    66   ar
    61   100    99   ar
    62   150   149    2
    63    43    45   ar
    64   165   163    1
    65   140   139    2
    66    69    70   ar
    67    99    98    1
    68    94    95    1
    69   149   151   am
    70    46    48   ar
    71    65    66    1
    72    65    62    1
    73    64    63    2
    74    66    68   ar
    75   141   142    1
    76   141   138    1
    77    13    12    2
    78    95    98    1
    79    95    96    1
    80   143   142   ar
    81   143   145   ar
    82    45    47   ar
    83   163   164    1
    84   163   160    1
    85   139   138    1
    86   142   144   ar
    87   111   109    1
    88    70    68   ar
    89    58    57    2
    90    63    62    1
    91   145   146   ar
    92    48    47   ar
    93    60    59    1
    94   151   152    1
    95   138   137    1
    96    62    61    1
    97   110   109    1
    98    12    11    1
    99    96   105   am
   100    96    97    2
   101   137   128   am
   102   105   106    1
   103   144   146   ar
   104   159   160    1
   105   159   153   am
   106   160   161    1
   107    57    61   am
   108    57    56    1
   109   152   153    1
   110   152   155    1
   111   109   106    1
   112   153   154    2
   113   130   131    1
   114   130   127    1
   115   133   131   ar
   116   133   135   ar
   117   126   127    1
   118    11    14    1
   119    11    10    1
   120    55    56    1
   121   106   107    1
   122   128   127    1
   123   128   129    2
   124   131   132   ar
   125   135   136   ar
   126    59    56    1
   127    14    15    1
   128    14    16    1
   129   161   162    2
   130   108   107    2
   131   120   121    1
   132   120   117    1
   133   155   156    1
   134    54    53    1
   135   115   114    2
   136   107   112   am
   137   136   134   ar
   138   132   134   ar
   139   181   182    1
   140   181   180    1
   141   157   156    1
   142   121   123   ar
   143   121   122   ar
   144   117   116    1
   145   117   118    1
   146   156   158    1
   147   123   125   ar
   148    53    50    1
   149   122   124   ar
   150   114   116   am
   151   114   113    1
   152   112   113    1
   153    50    49    1
   154    50    51    1
   155   125   124   ar
   156   118   119    2
   157   179   180    1
   158   179   176    1
   159   174   172   ar
   160    51    52    2
   161   178   177    2
   162   173   172   ar
   163   172   171    1
   164    92    91   ar
   165   177   176    1
   166   176   175    1
   167   205   203   am
   168   171   170    1
   169   204   203    2
   170    85    83    1
   171    78    76   ar
   172    84    83    1
   173    83    80    1
   174   203   202    1
   175   169   168    2
   176    76    75    1
   177    76    77   ar
   178    74    73    2
   179    75    72    1
   180    91    93   ar
   181    91    90    1
   182   213   212   ar
   183    82    81    2
   184   170   167    1
   185    80    79    1
   186    80    81    1
   187   168   167    1
   188   202   201    1
   189    90    87    1
   190    73    72    1
   191   214   212   ar
   192   212   211    1
   193   201   198    1
   194    72    71    1
   195   167   166    1
   196    87    86    1
   197    87    88    1
   198   198   197    1
   199   198   199    1
   200   211   210    1
   201   210   207    1
   202    88    89    2
   203   199   200    2
   204   207   206    1
   205   207   208    1
   206   208   209    2
