@<TRIPOS>MOLECULE
tmp/3pknA00.pdb
 153 147 0 0 0
SMALL
GASTEIGER

@<TRIPOS>ATOM
      1  N         -5.4010   -3.7590    8.4910 N.3    17  GLN17      -0.1245
      2  CA        -6.5250   -4.0560    9.3810 C.3    17  GLN17       0.1566
      3  C         -6.0630   -4.6280   10.7120 C.2    17  GLN17       0.2260
      4  O         -6.6780   -4.3670   11.7380 O.2    17  GLN17      -0.2867
      5  CB        -7.5910   -4.9550    8.7530 C.3    17  GLN17       0.0367
      6  CG        -7.2480   -5.6260    7.4550 C.3    17  GLN17       0.0905
      7  CD        -7.2710   -4.6720    6.2740 C.2    17  GLN17       0.2608
      8  OE1       -6.3380   -4.6420    5.4920 O.2    17  GLN17      -0.2717
      9  NE2       -8.3330   -3.8820    6.1540 N.am   17  GLN17      -0.0878
     10  N         -5.1020   -1.6000   12.5730 N.3    20  GLY20      -0.1210
     11  CA        -6.2770   -0.7890   12.8970 C.3    20  GLY20       0.1956
     12  C         -7.0410   -1.4000   14.0550 C.2    20  GLY20       0.2611
     13  O         -7.5770   -0.6830   14.9040 O.2    20  GLY20      -0.2717
     14  N         -7.0550   -2.7260   14.1080 N.am   21  GLU21      -0.1979
     15  CA        -7.7730   -3.4580   15.1660 C.3    21  GLU21       0.1602
     16  C         -7.2110   -3.2050   16.5610 C.2    21  GLU21       0.2287
     17  O         -7.9310   -3.2880   17.5660 O.2    21  GLU21      -0.2864
     18  CB        -7.7500   -4.9610   14.8790 C.3    21  GLU21       0.0415
     19  CG        -8.8240   -5.3980   13.9150 C.3    21  GLU21       0.1163
     20  CD       -10.1940   -5.4060   14.5600 C.2    21  GLU21       0.3649
     21  OE1      -10.4110   -6.2000   15.5030 O.co2  21  GLU21      -0.2457
     22  OE2      -11.0520   -4.6180   14.1180 O.co2  21  GLU21      -0.2457
     23  N         -7.3710    1.2370   17.1670 N.3    24  PHE24      -0.1228
     24  CA        -8.6810    1.8190   17.4470 C.3    24  PHE24       0.1721
     25  C         -9.0740    1.9400   18.9440 C.2    24  PHE24       0.2437
     26  O         -9.4370    3.0350   19.3600 O.2    24  PHE24      -0.2733
     27  CB        -9.7710    1.1250   16.6280 C.3    24  PHE24       0.0547
     28  CG       -11.1530    1.6820   16.8660 C.ar   24  PHE24      -0.0202
     29  CD1      -11.5720    2.8430   16.2140 C.ar   24  PHE24      -0.0042
     30  CD2      -12.0230    1.0520   17.7330 C.ar   24  PHE24      -0.0042
     31  CE1      -12.8470    3.3540   16.4350 C.ar   24  PHE24      -0.0003
     32  CE2      -13.3020    1.5660   17.9480 C.ar   24  PHE24      -0.0003
     33  CZ       -13.7090    2.7090   17.2900 C.ar   24  PHE24      -0.0000
     34  N         -8.9890    0.8490   19.7560 N.am   25  PRO25      -0.2729
     35  CA        -9.4370    0.9900   21.1570 C.3    25  PRO25       0.1401
     36  C         -8.6850    2.0690   21.9200 C.2    25  PRO25       0.2269
     37  O         -9.2810    2.7560   22.7700 O.2    25  PRO25      -0.2865
     38  CB        -9.1540   -0.3910   21.7720 C.3    25  PRO25       0.0296
     39  CG        -9.1010   -1.3150   20.5850 C.3    25  PRO25       0.0237
     40  CD        -8.4920   -0.5140   19.4900 C.3    25  PRO25       0.0939
     41  N        -12.8110    6.8200   14.7900 N.3    36  GLY36      -0.1210
     42  CA       -12.8630    6.1260   13.4890 C.3    36  GLY36       0.1956
     43  C        -12.1620    6.8970   12.3860 C.2    36  GLY36       0.2611
     44  O        -11.4320    6.3370   11.5540 O.2    36  GLY36      -0.2717
     45  N        -12.3930    8.2020   12.3750 N.am   37  LYS37      -0.1979
     46  CA       -11.7470    9.0710   11.4000 C.3    37  LYS37       0.1596
     47  C        -10.2350    9.1620   11.6880 C.2    37  LYS37       0.2287
     48  O         -9.4270    9.0180   10.7830 O.2    37  LYS37      -0.2864
     49  CB       -12.4130   10.4450   11.4140 C.3    37  LYS37       0.0298
     50  CG       -11.9220   11.4280   10.3520 C.3    37  LYS37       0.0038
     51  CD       -12.0840   10.8710    8.9490 C.3    37  LYS37       0.0206
     52  CE       -12.4680   11.9580    7.9840 C.3    37  LYS37       0.1093
     53  NZ       -12.2870   11.5470    6.5700 N.3    37  LYS37      -0.1314
     54  N         -8.2350    7.0440   13.3130 N.3    39  THR39      -0.1203
     55  CA        -7.6130    5.7470   12.9880 C.3    39  THR39       0.1994
     56  C         -7.3850    5.6070   11.4830 C.2    39  THR39       0.2618
     57  O         -6.3190    5.1910   11.0530 O.2    39  THR39      -0.2717
     58  CB        -8.4250    4.5420   13.5540 C.3    39  THR39       0.1784
     59  OG1       -8.7470    4.7840   14.9330 O.3    39  THR39      -0.2211
     60  CG2       -7.6160    3.2670   13.4650 C.3    39  THR39       0.0376
     61  N         -8.3780    5.9970   10.6880 N.am   40  GLY40      -0.1942
     62  CA        -8.2560    6.0160    9.2320 C.3    40  GLY40       0.2014
     63  C         -7.0860    6.8470    8.7500 C.2    40  GLY40       0.2639
     64  O         -6.3820    6.4550    7.8160 O.2    40  GLY40      -0.2714
     65  N         -6.8690    7.9840    9.4140 N.am   41  MET41      -0.1963
     66  CA        -5.7960    8.9170    9.0630 C.3    41  MET41       0.1736
     67  C         -4.4240    8.3360    9.3810 C.2    41  MET41       0.2616
     68  O         -3.5070    8.4090    8.5520 O.2    41  MET41      -0.2715
     69  CB        -6.0040   10.2520    9.7830 C.3    41  MET41       0.0427
     70  CG        -7.2110   11.0490    9.2720 C.3    41  MET41       0.0599
     71  SD        -7.5670   12.5040   10.2850 S.3    41  MET41      -0.1393
     72  CE        -6.2430   13.6420    9.8560 C.3    41  MET41       0.0692
     73  N         -4.2950    7.7480   10.5720 N.am   42  LEU42      -0.1963
     74  CA        -3.0330    7.1590   11.0040 C.3    42  LEU42       0.1728
     75  C         -2.6410    5.8850   10.2490 C.2    42  LEU42       0.2616
     76  O         -1.4520    5.5890   10.1000 O.2    42  LEU42      -0.2715
     77  CB        -3.0410    6.9100   12.5100 C.3    42  LEU42       0.0311
     78  CG        -3.0910    8.1510   13.4220 C.3    42  LEU42       0.0022
     79  CD1       -2.7130    7.7570   14.8240 C.3    42  LEU42       0.0001
     80  CD2       -2.2030    9.3100   12.9340 C.3    42  LEU42       0.0001
     81  N         -3.6270    5.1440    9.7560 N.am   43  LEU43      -0.1963
     82  CA        -3.3210    3.9130    9.0370 C.3    43  LEU43       0.1728
     83  C         -2.5500    4.1600    7.7450 C.2    43  LEU43       0.2616
     84  O         -1.9920    3.2280    7.1690 O.2    43  LEU43      -0.2715
     85  CB        -4.5810    3.0760    8.7750 C.3    43  LEU43       0.0311
     86  CG        -5.1570    2.2770    9.9490 C.3    43  LEU43       0.0022
     87  CD1       -6.3820    1.4740    9.4880 C.3    43  LEU43       0.0001
     88  CD2       -4.1500    1.3370   10.5780 C.3    43  LEU43       0.0001
     89  N         -2.4930    5.4210    7.3150 N.am   44  GLU44      -0.1963
     90  CA        -1.7020    5.7920    6.1450 C.3    44  GLU44       0.1733
     91  C         -0.1950    5.7770    6.4340 C.2    44  GLU44       0.2616
     92  O          0.6260    5.7050    5.5090 O.2    44  GLU44      -0.2715
     93  CB        -2.1790    7.1400    5.5890 C.3    44  GLU44       0.0429
     94  CG        -3.6390    7.0830    5.1280 C.3    44  GLU44       0.1163
     95  CD        -4.0510    8.2250    4.2220 C.2    44  GLU44       0.3649
     96  OE1       -3.2360    9.1440    4.0030 O.co2  44  GLU44      -0.2457
     97  OE2       -5.2010    8.1990    3.7210 O.co2  44  GLU44      -0.2457
     98  N          0.1580    5.8260    7.7180 N.am   45  ILE45      -0.1977
     99  CA         1.5500    5.7690    8.1590 C.3    45  ILE45       0.1596
    100  C          2.1390    4.3810    7.8830 C.2    45  ILE45       0.2287
    101  O          1.4090    3.3880    7.7980 O.2    45  ILE45      -0.2864
    102  CB         1.6820    6.1400    9.6690 C.3    45  ILE45       0.0276
    103  CG1        1.2090    7.5850    9.9080 C.3    45  ILE45       0.0022
    104  CG2        3.1090    5.9520   10.1680 C.3    45  ILE45       0.0022
    105  CD1        1.1360    8.0090   11.3780 C.3    45  ILE45       0.0001
    106  N          0.9790   11.7800   17.8030 N.3    63  LYS63      -0.1245
    107  CA         0.4360   11.6520   16.4380 C.3    63  LYS63       0.1561
    108  C         -1.0820   11.8500   16.3970 C.2    63  LYS63       0.2260
    109  O         -1.6270   12.4250   15.4480 O.2    63  LYS63      -0.2867
    110  CB         0.8240   10.3090   15.7950 C.3    63  LYS63       0.0271
    111  CG         2.0090   10.3800   14.8400 C.3    63  LYS63       0.0035
    112  CD         1.7040   11.2280   13.5950 C.3    63  LYS63       0.0206
    113  CE         2.9640   11.5790   12.8060 C.3    63  LYS63       0.1093
    114  NZ         2.6700   12.5240   11.6790 N.3    63  LYS63      -0.1314
    115  N         -1.7960   15.5280   16.4920 N.3    66  GLU66      -0.1231
    116  CA        -1.5840   16.1060   15.1600 C.3    66  GLU66       0.1699
    117  C         -2.7970   15.8590   14.2600 C.2    66  GLU66       0.2592
    118  O         -3.3320   16.7990   13.6620 O.2    66  GLU66      -0.2718
    119  CB        -0.3160   15.5550   14.5000 C.3    66  GLU66       0.0402
    120  CG         0.9850   15.9760   15.1670 C.3    66  GLU66       0.1161
    121  CD         2.2320   15.6950   14.3150 C.2    66  GLU66       0.3649
    122  OE1        3.1230   16.5730   14.2720 O.co2  66  GLU66      -0.2457
    123  OE2        2.3260   14.6020   13.6960 O.co2  66  GLU66      -0.2457
    124  N         -3.2300   14.5980   14.1740 N.am   67  ALA67      -0.1980
    125  CA        -4.4270   14.2250   13.4160 C.3    67  ALA67       0.1597
    126  C         -5.6560   15.0820   13.7760 C.2    67  ALA67       0.2287
    127  O         -6.3510   15.5820   12.8930 O.2    67  ALA67      -0.2864
    128  CB        -4.7260   12.7290   13.6100 C.3    67  ALA67       0.0319
    129  N         -5.3210   18.6310   12.4560 N.3    70  VAL70      -0.1231
    130  CA        -5.4600   18.6380   10.9920 C.3    70  VAL70       0.1692
    131  C         -6.9320   18.4860   10.5770 C.2    70  VAL70       0.2591
    132  O         -7.4060   19.1790    9.6690 O.2    70  VAL70      -0.2718
    133  CB        -4.5820   17.5430   10.3220 C.3    70  VAL70       0.0266
    134  CG1       -4.9350   17.3730    8.8540 C.3    70  VAL70       0.0020
    135  CG2       -3.1040   17.8910   10.4360 C.3    70  VAL70       0.0020
    136  N         -7.6450   17.5800   11.2420 N.am   71  LEU71      -0.1980
    137  CA        -9.0910   17.4160   11.0380 C.3    71  LEU71       0.1596
    138  C         -9.8730   18.6820   11.3440 C.2    71  LEU71       0.2287
    139  O        -10.7800   19.0490   10.5980 O.2    71  LEU71      -0.2864
    140  CB        -9.6330   16.2840   11.9130 C.3    71  LEU71       0.0297
    141  CG       -10.1300   14.9830   11.3060 C.3    71  LEU71       0.0022
    142  CD1      -10.7340   14.1390   12.4310 C.3    71  LEU71       0.0001
    143  CD2      -11.1490   15.2070   10.1850 C.3    71  LEU71       0.0001
    144  N         -9.1710   21.2600    8.6790 N.3    74  HIS74      -0.1241
    145  CA        -9.9010   20.8960    7.4650 C.3    74  HIS74       0.1621
    146  C        -11.3880   21.2630    7.5560 C.2    74  HIS74       0.2264
    147  O        -11.9700   21.7000    6.5600 O.2    74  HIS74      -0.2867
    148  CB        -9.7110   19.4110    7.1510 C.3    74  HIS74       0.0745
    149  CG       -10.3520   18.9690    5.8720 C.ar   74  HIS74       0.0817
    150  ND1      -11.4060   18.0810    5.8360 N.ar   74  HIS74      -0.2268
    151  CD2      -10.0660   19.2640    4.5820 C.ar   74  HIS74       0.1154
    152  CE1      -11.7530   17.8630    4.5800 C.ar   74  HIS74       0.1986
    153  NE2      -10.9560   18.5690    3.7990 N.ar   74  HIS74      -0.2212
@<TRIPOS>BOND
     1    97    95   ar
     2   153   152   ar
     3   153   151   ar
     4    96    95   ar
     5    95    94    1
     6   152   150   ar
     7   151   149   ar
     8    94    93    1
     9     8     7    2
    10    92    91    2
    11    93    90    1
    12   150   149   ar
    13   149   148    1
    14    90    91    1
    15    90    89    1
    16     9     7   am
    17     7     6    1
    18    91    98   am
    19   147   146    2
    20    53    52    1
    21   148   145    1
    22    84    83    2
    23    89    83   am
    24     6     5    1
    25   145   146    1
    26   145   144    1
    27    98    99    1
    28    83    82    1
    29   101   100    2
    30    64    63    2
    31   100    99    1
    32    52    51    1
    33    99   102    1
    34     1     2    1
    35    68    67    2
    36    63    62    1
    37    63    65   am
    38     5     2    1
    39    85    82    1
    40    85    86    1
    41   134   133    1
    42    51    50    1
    43    82    81    1
    44    66    67    1
    45    66    65    1
    46    66    69    1
    47    62    61    1
    48    70    69    1
    49    70    71    1
    50     2     3    1
    51    67    73   am
    52    87    86    1
    53   102   103    1
    54   102   104    1
    55   132   131    2
    56    81    75   am
    57    72    71    1
    58   103   105    1
    59    86    88    1
    60    76    75    2
    61   143   141    1
    62    75    74    1
    63   133   135    1
    64   133   130    1
    65    50    49    1
    66    73    74    1
    67   131   130    1
    68   131   136   am
    69   139   138    2
    70    61    56   am
    71     3     4    2
    72    48    47    2
    73   130   129    1
    74    74    77    1
    75   137   136    1
    76   137   138    1
    77   137   140    1
    78    57    56    2
    79   141   140    1
    80   141   142    1
    81    46    49    1
    82    46    47    1
    83    46    45    1
    84    56    55    1
    85    44    43    2
    86   114   113    1
    87    45    43   am
    88    43    42    1
    89    77    78    1
    90    10    11    1
    91   113   112    1
    92   127   126    2
    93    11    12    1
    94    80    78    1
    95    55    54    1
    96    55    58    1
    97   125   128    1
    98   125   126    1
    99   125   124    1
   100    78    79    1
   101    60    58    1
   102    42    41    1
   103    58    59    1
   104   112   111    1
   105   118   117    2
   106   123   121   ar
   107    19    20    1
   108    19    18    1
   109    12    14   am
   110    12    13    2
   111    14    15    1
   112    22    20   ar
   113   124   117   am
   114   117   116    1
   115   122   121   ar
   116   121   120    1
   117   119   116    1
   118   119   120    1
   119    20    21   ar
   120   111   110    1
   121    18    15    1
   122   116   115    1
   123    15    16    1
   124   109   108    2
   125   110   107    1
   126    29    31   ar
   127    29    28   ar
   128   108   107    1
   129    31    33   ar
   130   107   106    1
   131    16    17    2
   132    27    28    1
   133    27    24    1
   134    28    30   ar
   135    23    24    1
   136    33    32   ar
   137    24    25    1
   138    30    32   ar
   139    25    26    2
   140    25    34   am
   141    40    34    1
   142    40    39    1
   143    34    35    1
   144    39    38    1
   145    35    38    1
   146    35    36    1
   147    36    37    2
