@<TRIPOS>MOLECULE
tmp/3pkoA00.pdb
 119 115 0 0 0
SMALL
GASTEIGER

@<TRIPOS>ATOM
      1  N         18.0080   72.2790  -10.9460 N.3     2  HIS2       -0.1241
      2  CA        16.8140   73.0750  -10.6420 C.3     2  HIS2        0.1621
      3  C         16.7610   73.5120   -9.1670 C.2     2  HIS2        0.2264
      4  O         16.2660   72.7870   -8.3000 O.2     2  HIS2       -0.2867
      5  CB        15.5260   72.3270  -11.0230 C.3     2  HIS2        0.0745
      6  CG        14.3370   73.2270  -11.1500 C.ar    2  HIS2        0.0817
      7  ND1       14.0370   73.9010  -12.3160 N.ar    2  HIS2       -0.2268
      8  CD2       13.4030   73.6100  -10.2460 C.ar    2  HIS2        0.1154
      9  CE1       12.9550   74.6390  -12.1320 C.ar    2  HIS2        0.1986
     10  NE2       12.5530   74.4850  -10.8840 N.ar    2  HIS2       -0.2212
     11  N         11.9350   76.3470   -6.1690 N.3     5  HIS5       -0.1241
     12  CA        10.5880   75.7810   -6.1190 C.3     5  HIS5        0.1621
     13  C          9.5430   76.8950   -6.2540 C.2     5  HIS5        0.2264
     14  O          9.7070   77.9830   -5.7060 O.2     5  HIS5       -0.2867
     15  CB        10.3900   75.0040   -4.8110 C.3     5  HIS5        0.0745
     16  CG        11.6550   74.4010   -4.2670 C.ar    5  HIS5        0.0817
     17  ND1       12.2700   73.3080   -4.8430 N.ar    5  HIS5       -0.2268
     18  CD2       12.4190   74.7440   -3.2020 C.ar    5  HIS5        0.1154
     19  CE1       13.3580   73.0040   -4.1560 C.ar    5  HIS5        0.1986
     20  NE2       13.4700   73.8590   -3.1540 N.ar    5  HIS5       -0.2212
     21  N          4.6830   65.0850   -5.1240 N.3    53  GLY53      -0.1210
     22  CA         3.6320   64.9660   -6.0860 C.3    53  GLY53       0.1956
     23  C          4.0850   65.9540   -7.1150 C.2    53  GLY53       0.2612
     24  O          5.2690   66.1410   -7.3370 O.2    53  GLY53      -0.2717
     25  N          3.1320   66.6560   -7.6850 N.am   54  LYS54      -0.1965
     26  CA         3.4010   67.5500   -8.7670 C.3    54  LYS54       0.1728
     27  C          3.3030   66.7840  -10.0360 C.2    54  LYS54       0.2616
     28  O          2.3450   66.9640  -10.7160 O.2    54  LYS54      -0.2715
     29  CB         4.8250   68.0400   -8.6070 C.3    54  LYS54       0.0311
     30  CG         5.1050   69.3310   -9.2700 C.3    54  LYS54       0.0038
     31  CD         6.0130   70.1460   -8.4330 C.3    54  LYS54       0.0206
     32  CE         6.6490   71.2000   -9.2350 C.3    54  LYS54       0.1093
     33  NZ         7.7080   71.8220   -8.4910 N.3    54  LYS54      -0.1314
     34  N          4.2020   65.8500  -10.3120 N.am   55  LEU55      -0.1963
     35  CA         4.0000   65.0140  -11.4900 C.3    55  LEU55       0.1728
     36  C          3.7970   65.9050  -12.7290 C.2    55  LEU55       0.2616
     37  O          2.9160   65.6790  -13.5370 O.2    55  LEU55      -0.2715
     38  CB         2.8030   64.0860  -11.2800 C.3    55  LEU55       0.0311
     39  CG         2.8940   63.0950  -10.1170 C.3    55  LEU55       0.0022
     40  CD1        1.5510   62.4190   -9.8700 C.3    55  LEU55       0.0001
     41  CD2        3.9630   62.0360  -10.3730 C.3    55  LEU55       0.0001
     42  N          4.6390   66.9220  -12.8540 N.am   56  LEU56      -0.1963
     43  CA         4.5450   67.8950  -13.9320 C.3    56  LEU56       0.1728
     44  C          4.5880   67.2420  -15.2970 C.2    56  LEU56       0.2616
     45  O          3.8040   67.5550  -16.2030 O.2    56  LEU56      -0.2715
     46  CB         5.7400   68.7950  -13.7920 C.3    56  LEU56       0.0311
     47  CG         5.8070   70.1140  -14.4930 C.3    56  LEU56       0.0022
     48  CD1        4.4680   70.8310  -14.3530 C.3    56  LEU56       0.0001
     49  CD2        6.9500   70.8840  -13.8030 C.3    56  LEU56       0.0001
     50  N          5.5230   66.3170  -15.4500 N.am   57  ARG57      -0.1977
     51  CA         5.7310   65.7010  -16.7430 C.3    57  ARG57       0.1597
     52  C          4.5940   64.7540  -17.0790 C.2    57  ARG57       0.2287
     53  O          4.0750   64.7880  -18.1880 O.2    57  ARG57      -0.2864
     54  CB         7.1450   65.0670  -16.8050 C.3    57  ARG57       0.0334
     55  CG         8.2180   66.1720  -16.7920 C.3    57  ARG57       0.0492
     56  CD         9.5430   65.6270  -16.2490 C.3    57  ARG57       0.2205
     57  NE        10.5160   66.6720  -16.0030 N.pl3  57  ARG57      -0.0865
     58  CZ        10.6240   67.3400  -14.8580 C.cat  57  ARG57       0.5346
     59  NH1        9.7840   67.0750  -13.8780 N.pl3  57  ARG57       0.1354
     60  NH2       11.5660   68.2700  -14.7010 N.pl3  57  ARG57       0.1354
     61  N         12.4570   59.9300  -14.4430 N.3    87  HIS87      -0.1241
     62  CA        12.7760   61.1630  -13.7690 C.3    87  HIS87       0.1621
     63  C         13.3390   60.8820  -12.3680 C.2    87  HIS87       0.2264
     64  O         14.3980   61.3680  -11.9990 O.2    87  HIS87      -0.2867
     65  CB        11.5230   62.0470  -13.7230 C.3    87  HIS87       0.0745
     66  CG        11.7140   63.3540  -13.0240 C.ar   87  HIS87       0.0817
     67  ND1       12.7440   64.2210  -13.3220 N.ar   87  HIS87      -0.2268
     68  CD2       10.9650   63.9700  -12.0770 C.ar   87  HIS87       0.1154
     69  CE1       12.6370   65.3020  -12.5680 C.ar   87  HIS87       0.1986
     70  NE2       11.5670   65.1730  -11.8030 N.ar   87  HIS87      -0.2212
     71  N         17.0470   61.6490  -10.6070 N.3    91  LEU91      -0.1245
     72  CA        17.1900   62.4100   -9.3380 C.3    91  LEU91       0.1561
     73  C         18.0330   61.6820   -8.2620 C.2    91  LEU91       0.2260
     74  O         18.8740   62.2980   -7.5960 O.2    91  LEU91      -0.2867
     75  CB        15.8090   62.7370   -8.7560 C.3    91  LEU91       0.0270
     76  CG        14.8630   63.5420   -9.6610 C.3    91  LEU91       0.0019
     77  CD1       13.5850   63.9010   -8.8850 C.3    91  LEU91       0.0001
     78  CD2       15.5120   64.7940  -10.2250 C.3    91  LEU91       0.0001
     79  N         15.7730   65.1080   -0.3590 N.3   103  ARG103     -0.1231
     80  CA        15.1120   65.3130   -1.6360 C.3   103  ARG103      0.1694
     81  C         13.6230   65.2210   -1.4070 C.2   103  ARG103      0.2591
     82  O         13.1260   64.2530   -0.8300 O.2   103  ARG103     -0.2718
     83  CB        15.6020   64.2750   -2.6670 C.3   103  ARG103      0.0321
     84  CG        14.6340   64.0020   -3.8150 C.3   103  ARG103      0.0489
     85  CD        14.6500   65.1150   -4.8420 C.3   103  ARG103      0.2205
     86  NE        15.9500   65.2260   -5.4890 N.pl3 103  ARG103     -0.0865
     87  CZ        16.2470   66.1290   -6.4160 C.cat 103  ARG103      0.5346
     88  NH1       15.3290   67.0110   -6.8020 N.pl3 103  ARG103      0.1354
     89  NH2       17.4600   66.1560   -6.9510 N.pl3 103  ARG103      0.1354
     90  N         12.8950   66.2380   -1.8330 N.am  104  ARG104     -0.1980
     91  CA        11.4800   66.2600   -1.5440 C.3   104  ARG104      0.1597
     92  C         11.2520   66.1400   -0.0270 C.2   104  ARG104      0.2287
     93  O         10.3080   65.4980    0.3920 O.2   104  ARG104     -0.2864
     94  CB        10.7800   65.1060   -2.2740 C.3   104  ARG104      0.0334
     95  CG        10.6700   65.2990   -3.8070 C.3   104  ARG104      0.0492
     96  CD        10.3760   63.9930   -4.5310 C.3   104  ARG104      0.2205
     97  NE        10.2860   64.2260   -5.9710 N.pl3 104  ARG104     -0.0865
     98  CZ         9.7710   63.3720   -6.8480 C.cat 104  ARG104      0.5346
     99  NH1        9.2980   62.1960   -6.4440 N.pl3 104  ARG104      0.1354
    100  NH2        9.7130   63.6960   -8.1480 N.pl3 104  ARG104      0.1354
    101  N         17.2040   69.0910  -19.5790 N.3   182  THR182     -0.1218
    102  CA        15.9180   69.5200  -18.9880 C.3   182  THR182      0.1862
    103  C         14.7240   69.3770  -19.9100 C.2   182  THR182      0.2287
    104  O         13.7160   68.7840  -19.5410 O.2   182  THR182     -0.2866
    105  CB        16.0050   70.9480  -18.3870 C.3   182  THR182      0.1770
    106  OG1       17.1130   71.0020  -17.4740 O.3   182  THR182     -0.2211
    107  CG2       14.7180   71.3230  -17.6270 C.3   182  THR182      0.0375
    108  N         11.7600   76.8190  -18.8560 N.3   218  TYR218     -0.1241
    109  CA        11.7600   76.3570  -17.4730 C.3   218  TYR218      0.1605
    110  C         13.1710   76.3340  -16.8660 C.2   218  TYR218      0.2264
    111  O         13.3790   76.8460  -15.7560 O.2   218  TYR218     -0.2867
    112  CB        11.1070   74.9810  -17.4420 C.3   218  TYR218      0.0534
    113  CG        11.0670   74.2600  -16.1180 C.ar  218  TYR218     -0.0201
    114  CD1       10.1310   74.5920  -15.1400 C.ar  218  TYR218     -0.0009
    115  CD2       11.8970   73.1790  -15.8840 C.ar  218  TYR218     -0.0009
    116  CE1       10.0720   73.8770  -13.9300 C.ar  218  TYR218      0.0417
    117  CE2       11.8470   72.4660  -14.6870 C.ar  218  TYR218      0.0417
    118  CZ        10.9340   72.8080  -13.7250 C.ar  218  TYR218      0.1957
    119  OH        10.9150   72.0720  -12.5570 O.3   218  TYR218     -0.2866
@<TRIPOS>BOND
     1   103   104    2
     2   103   102    1
     3   101   102    1
     4   102   105    1
     5   108   109    1
     6   105   107    1
     7   105   106    1
     8    53    52    2
     9   109   112    1
    10   109   110    1
    11   112   113    1
    12    52    51    1
    13   110   111    2
    14    54    55    1
    15    54    51    1
    16    55    56    1
    17    51    50    1
    18    56    57    1
    19    45    44    2
    20   113   115   ar
    21   113   114   ar
    22    57    58    2
    23   115   117   ar
    24    50    44   am
    25    44    43    1
    26   114   116   ar
    27    58    60    1
    28    58    59    1
    29   117   118   ar
    30    47    48    1
    31    47    49    1
    32    47    46    1
    33    61    62    1
    34    43    46    1
    35    43    42    1
    36   116   118   ar
    37    62    65    1
    38    62    63    1
    39   118   119    1
    40    65    66    1
    41    37    36    2
    42    67    66   ar
    43    67    69   ar
    44    66    68   ar
    45    42    36   am
    46    36    35    1
    47    69    70   ar
    48    63    64    2
    49     7     9   ar
    50     7     6   ar
    51     9    10   ar
    52    68    70   ar
    53    35    38    1
    54    35    34    1
    55    38    39    1
    56     6     5    1
    57     6     8   ar
    58     5     2    1
    59     1     2    1
    60    10     8   ar
    61    28    27    2
    62     2     3    1
    63    71    72    1
    64    41    39    1
    65    34    27   am
    66    78    76    1
    67    39    40    1
    68    27    26    1
    69    76    77    1
    70    76    75    1
    71    72    75    1
    72    72    73    1
    73    30    29    1
    74    30    31    1
    75    32    33    1
    76    32    31    1
    77     3     4    2
    78    26    29    1
    79    26    25    1
    80    73    74    2
    81   100    98    1
    82    25    23   am
    83    24    23    2
    84    23    22    1
    85    89    87    1
    86    98    99    1
    87    98    97    2
    88    88    87    1
    89    87    86    2
    90    13    12    1
    91    13    14    2
    92    11    12    1
    93    12    15    1
    94    22    21    1
    95    97    96    1
    96    86    85    1
    97    17    16   ar
    98    17    19   ar
    99    85    84    1
   100    15    16    1
   101    96    95    1
   102    16    18   ar
   103    19    20   ar
   104    84    83    1
   105    95    94    1
   106    18    20   ar
   107    83    80    1
   108    94    91    1
   109    90    91    1
   110    90    81   am
   111    80    81    1
   112    80    79    1
   113    91    92    1
   114    81    82    2
   115    92    93    2
