@<TRIPOS>MOLECULE
tmp/3pkqA01.pdb
 123 118 0 0 0
SMALL
GASTEIGER

@<TRIPOS>ATOM
      1  N        -46.4710   25.5420   16.9960 N.3     1  THR1       -0.1203
      2  CA       -46.1330   25.9080   18.3650 C.3     1  THR1        0.1994
      3  C        -44.9500   26.9080   18.4240 C.2     1  THR1        0.2618
      4  O        -44.8260   27.6700   19.3930 O.2     1  THR1       -0.2717
      5  CB       -45.9200   24.6260   19.2740 C.3     1  THR1        0.1784
      6  OG1      -45.8990   24.9760   20.6690 O.3     1  THR1       -0.2211
      7  CG2      -44.6430   23.8500   18.9120 C.3     1  THR1        0.0376
      8  N        -44.0920   26.9090   17.3940 N.am    2  ARG2       -0.1965
      9  CA       -42.9540   27.8510   17.3140 C.3     2  ARG2        0.1729
     10  C        -43.3930   29.1990   16.7290 C.2     2  ARG2        0.2616
     11  O        -43.7200   29.2820   15.5390 O.2     2  ARG2       -0.2715
     12  CB       -41.8110   27.2710   16.4660 C.3     2  ARG2        0.0348
     13  CG       -41.2610   25.9550   16.9710 C.3     2  ARG2        0.0492
     14  CD       -39.8570   25.6820   16.4490 C.3     2  ARG2        0.2205
     15  NE       -39.2890   24.4840   17.0610 N.pl3   2  ARG2       -0.0865
     16  CZ       -37.9870   24.2380   17.1730 C.cat   2  ARG2        0.5346
     17  NH1      -37.0990   25.1060   16.7160 N.pl3   2  ARG2        0.1354
     18  NH2      -37.5660   23.1210   17.7510 N.pl3   2  ARG2        0.1354
     19  N        -43.4240   30.2390   17.5590 N.am    3  LYS3       -0.1977
     20  CA       -43.9250   31.5450   17.1190 C.3     3  LYS3        0.1596
     21  C        -42.9130   32.6690   17.2990 C.2     3  LYS3        0.2287
     22  O        -42.0620   32.6160   18.1810 O.2     3  LYS3       -0.2864
     23  CB       -45.2160   31.8970   17.8430 C.3     3  LYS3        0.0298
     24  CG       -46.3660   30.9890   17.4980 C.3     3  LYS3        0.0038
     25  CD       -47.6080   31.4170   18.2470 C.3     3  LYS3        0.0206
     26  CE       -48.7940   30.5150   17.9160 C.3     3  LYS3        0.1093
     27  NZ       -49.9780   30.8160   18.7460 N.3     3  LYS3       -0.1314
     28  N        -38.9490   28.7310   13.3040 N.3    47  ILE47      -0.1245
     29  CA       -40.1720   29.4750   13.5370 C.3    47  ILE47       0.1561
     30  C        -40.8840   29.7630   12.2220 C.2    47  ILE47       0.2260
     31  O        -40.2920   30.3410   11.3200 O.2    47  ILE47      -0.2867
     32  CB       -39.8870   30.7730   14.2960 C.3    47  ILE47       0.0252
     33  CG1      -39.2930   30.4420   15.6740 C.3    47  ILE47       0.0019
     34  CG2      -41.1590   31.5830   14.4310 C.3    47  ILE47       0.0019
     35  CD1      -38.6540   31.6210   16.3950 C.3    47  ILE47       0.0001
     36  N        -44.7860   29.5020   23.5210 N.3   102  ASP102     -0.1225
     37  CA       -43.5700   30.2800   23.6850 C.3   102  ASP102      0.1805
     38  C        -43.4660   31.2710   22.5240 C.2   102  ASP102      0.2598
     39  O        -44.2060   31.1680   21.5340 O.2   102  ASP102     -0.2718
     40  CB       -42.3630   29.3420   23.7340 C.3   102  ASP102      0.1424
     41  CG       -42.3600   28.4730   24.9800 C.2   102  ASP102      0.3668
     42  OD1      -42.9470   28.8950   26.0010 O.co2 102  ASP102     -0.2456
     43  OD2      -41.7740   27.3740   24.9430 O.co2 102  ASP102     -0.2456
     44  N        -42.5660   32.2380   22.6440 N.am  103  CYS103     -0.1970
     45  CA       -42.4150   33.2590   21.6160 C.3   103  CYS103      0.1712
     46  C        -41.0070   33.8540   21.4970 C.2   103  CYS103      0.2296
     47  O        -40.3740   34.1810   22.4890 O.2   103  CYS103     -0.2864
     48  CB       -43.4140   34.4050   21.8330 C.3   103  CYS103      0.0983
     49  SG       -43.8070   35.3170   20.2680 S.3   103  CYS103     -0.0798
     50  N        -32.0690   27.7050   22.6560 N.3   124  ALA124     -0.1231
     51  CA       -32.9710   28.6780   23.2480 C.3   124  ALA124      0.1694
     52  C        -34.4530   28.2800   23.0980 C.2   124  ALA124      0.2591
     53  O        -35.2660   28.5100   23.9920 O.2   124  ALA124     -0.2718
     54  CB       -32.7100   30.0480   22.6600 C.3   124  ALA124      0.0304
     55  N        -34.7970   27.6850   21.9630 N.am  125  VAL125     -0.1980
     56  CA       -36.1400   27.1810   21.7340 C.3   125  VAL125      0.1595
     57  C        -36.4340   25.9930   22.6520 C.2   125  VAL125      0.2287
     58  O        -37.5440   25.8560   23.1700 O.2   125  VAL125     -0.2864
     59  CB       -36.3510   26.7300   20.2670 C.3   125  VAL125      0.0276
     60  CG1      -37.6810   26.0010   20.1290 C.3   125  VAL125      0.0022
     61  CG2      -36.3060   27.9200   19.3110 C.3   125  VAL125      0.0022
     62  N        -35.4130   25.3950   25.5790 N.3   127  LYS127     -0.1245
     63  CA       -35.3400   25.7100   26.9940 C.3   127  LYS127      0.1561
     64  C        -36.7380   25.5580   27.5770 C.2   127  LYS127      0.2260
     65  O        -37.6970   26.1650   27.0930 O.2   127  LYS127     -0.2867
     66  CB       -34.8060   27.1260   27.2070 C.3   127  LYS127      0.0271
     67  CG       -34.1180   27.3290   28.5240 C.3   127  LYS127      0.0035
     68  CD       -33.8900   28.7980   28.7990 C.3   127  LYS127      0.0206
     69  CE       -33.3650   28.9720   30.2150 C.3   127  LYS127      0.1093
     70  NZ       -33.6200   30.3370   30.7110 N.3   127  LYS127     -0.1314
     71  N        -38.2740   26.5070   30.2970 N.3   129  SER129     -0.1202
     72  CA       -38.8560   27.7200   30.8380 C.3   129  SER129      0.2020
     73  C        -37.8240   28.8450   30.8420 C.2   129  SER129      0.2619
     74  O        -36.6300   28.6220   30.6210 O.2   129  SER129     -0.2717
     75  CB       -39.3390   27.4640   32.2730 C.3   129  SER129      0.2103
     76  OG       -38.2410   27.3670   33.1750 O.3   129  SER129     -0.2182
     77  N        -38.2940   30.0560   31.1070 N.am  130  GLY130     -0.1942
     78  CA       -37.4250   31.2110   31.1540 C.3   130  GLY130      0.2014
     79  C        -37.2220   31.8580   29.7960 C.2   130  GLY130      0.2639
     80  O        -37.9870   31.6550   28.8600 O.2   130  GLY130     -0.2714
     81  N        -36.1600   32.6420   29.7040 N.am  131  ALA131     -0.1963
     82  CA       -35.8510   33.4280   28.5370 C.3   131  ALA131      0.1728
     83  C        -34.3770   33.2860   28.1240 C.2   131  ALA131      0.2616
     84  O        -33.5060   32.9990   28.9490 O.2   131  ALA131     -0.2715
     85  CB       -36.1760   34.8920   28.8180 C.3   131  ALA131      0.0334
     86  N        -34.1000   33.5010   26.8440 N.am  132  THR132     -0.1951
     87  CA       -32.7220   33.5550   26.3570 C.3   132  THR132      0.1897
     88  C        -32.4800   34.8710   25.6330 C.2   132  THR132      0.2313
     89  O        -33.2530   35.2630   24.7480 O.2   132  THR132     -0.2863
     90  CB       -32.3720   32.3800   25.4020 C.3   132  THR132      0.1794
     91  OG1      -32.7460   31.1190   25.9780 O.3   132  THR132     -0.2208
     92  CG2      -30.8820   32.3480   25.1040 C.3   132  THR132      0.0378
     93  N        -35.7020   35.0980   23.1200 N.3   173  PHE173     -0.1227
     94  CA       -36.6040   33.9530   23.2220 C.3   173  PHE173      0.1736
     95  C        -37.3090   33.8810   24.5720 C.2   173  PHE173      0.2595
     96  O        -36.6550   33.7880   25.6100 O.2   173  PHE173     -0.2718
     97  CB       -35.8440   32.6480   22.9730 C.3   173  PHE173      0.0547
     98  CG       -35.4440   32.4560   21.5550 C.ar  173  PHE173     -0.0202
     99  CD1      -34.3280   33.1000   21.0350 C.ar  173  PHE173     -0.0042
    100  CD2      -36.1800   31.6310   20.7300 C.ar  173  PHE173     -0.0042
    101  CE1      -33.9550   32.9060   19.7220 C.ar  173  PHE173     -0.0003
    102  CE2      -35.8210   31.4370   19.3950 C.ar  173  PHE173     -0.0003
    103  CZ       -34.7140   32.0860   18.8840 C.ar  173  PHE173     -0.0000
    104  N        -38.6360   33.9060   24.5540 N.am  174  TYR174     -0.1962
    105  CA       -39.4340   33.8460   25.7860 C.3   174  TYR174      0.1771
    106  C        -40.3480   32.6290   25.8800 C.2   174  TYR174      0.2619
    107  O        -40.8140   32.1020   24.8670 O.2   174  TYR174     -0.2715
    108  CB       -40.2860   35.1070   25.9260 C.3   174  TYR174      0.0574
    109  CG       -39.4610   36.3500   25.9490 C.ar  174  TYR174     -0.0198
    110  CD1      -39.5070   37.2530   24.8920 C.ar  174  TYR174     -0.0009
    111  CD2      -38.5940   36.6100   27.0080 C.ar  174  TYR174     -0.0009
    112  CE1      -38.7350   38.4110   24.9040 C.ar  174  TYR174      0.0417
    113  CE2      -37.8160   37.7530   27.0280 C.ar  174  TYR174      0.0417
    114  CZ       -37.8880   38.6460   25.9790 C.ar  174  TYR174      0.1957
    115  OH       -37.1130   39.7670   26.0090 O.3   174  TYR174     -0.2866
    116  N        -40.6070   32.1870   27.1080 N.am  175  ASP175     -0.1971
    117  CA       -41.6940   31.2470   27.3520 C.3   175  ASP175      0.1709
    118  C        -43.0030   32.0360   27.4990 C.2   175  ASP175      0.2293
    119  O        -42.9790   33.2660   27.5050 O.2   175  ASP175     -0.2864
    120  CB       -41.4160   30.3510   28.5600 C.3   175  ASP175      0.1436
    121  CG       -41.4110   31.1090   29.8610 C.2   175  ASP175      0.3671
    122  OD1      -41.8760   32.2690   29.8910 O.co2 175  ASP175     -0.2456
    123  OD2      -40.9360   30.5330   30.8630 O.co2 175  ASP175     -0.2456
@<TRIPOS>BOND
     1    31    30    2
     2    30    29    1
     3    28    29    1
     4    29    32    1
     5    32    34    1
     6    32    33    1
     7    11    10    2
     8    33    35    1
     9    14    13    1
    10    14    15    1
    11    12    13    1
    12    12     9    1
    13    17    16    1
    14    10     9    1
    15    10    19   am
    16     1     2    1
    17    15    16    2
    18    20    21    1
    19    20    19    1
    20    20    23    1
    21    16    18    1
    22    21    22    2
    23     9     8    1
    24     8     3   am
    25    24    23    1
    26    24    25    1
    27    26    25    1
    28    26    27    1
    29     2     3    1
    30     2     5    1
    31     3     4    2
    32   103   102   ar
    33   103   101   ar
    34     7     5    1
    35     5     6    1
    36    61    59    1
    37   102   100   ar
    38   101    99   ar
    39    60    59    1
    40    59    56    1
    41    49    48    1
    42   100    98   ar
    43    99    98   ar
    44    46    45    1
    45    46    47    2
    46    39    38    2
    47    98    97    1
    48    45    48    1
    49    45    44    1
    50    56    55    1
    51    56    57    1
    52    55    52   am
    53    38    44   am
    54    38    37    1
    55    57    58    2
    56    50    51    1
    57    54    51    1
    58    97    94    1
    59    52    51    1
    60    52    53    2
    61    93    94    1
    62    94    95    1
    63    36    37    1
    64    37    40    1
    65    40    41    1
    66   104    95   am
    67   104   105    1
    68    95    96    2
    69    89    88    2
    70   107   106    2
    71   110   112   ar
    72   110   109   ar
    73   112   114   ar
    74    43    41   ar
    75    41    42   ar
    76    92    90    1
    77    90    91    1
    78    90    87    1
    79    62    63    1
    80    88    87    1
    81   105   106    1
    82   105   108    1
    83   106   116   am
    84   108   109    1
    85   109   111   ar
    86   114   115    1
    87   114   113   ar
    88    87    86    1
    89    86    83   am
    90    63    66    1
    91    63    64    1
    92   111   113   ar
    93    65    64    2
    94   116   117    1
    95    66    67    1
    96   117   118    1
    97   117   120    1
    98   118   119    2
    99    83    82    1
   100    83    84    2
   101    67    68    1
   102    82    85    1
   103    82    81    1
   104   120   121    1
   105    68    69    1
   106    80    79    2
   107    81    79   am
   108    79    78    1
   109   121   122   ar
   110   121   123   ar
   111    69    70    1
   112    71    72    1
   113    74    73    2
   114    72    73    1
   115    72    75    1
   116    73    77   am
   117    77    78    1
   118    75    76    1
