@<TRIPOS>MOLECULE
tmp/3pkqD01.pdb
 152 144 0 0 0
SMALL
GASTEIGER

@<TRIPOS>ATOM
      1  N          6.6090   28.5740   -2.2400 N.3     6  LEU6       -0.1231
      2  CA         7.2390   29.2460   -3.3700 C.3     6  LEU6        0.1693
      3  C          6.9770   30.7370   -3.2880 C.2     6  LEU6        0.2592
      4  O          5.8580   31.1980   -3.5340 O.2     6  LEU6       -0.2718
      5  CB         6.6980   28.7080   -4.6940 C.3     6  LEU6        0.0284
      6  CG         7.2300   27.3420   -5.1220 C.3     6  LEU6        0.0019
      7  CD1        6.6290   26.9490   -6.4590 C.3     6  LEU6        0.0001
      8  CD2        8.7470   27.3950   -5.2070 C.3     6  LEU6        0.0001
      9  N          8.0200   31.4940   -2.9660 N.am    7  ALA7       -0.1966
     10  CA         7.8680   32.9130   -2.6720 C.3     7  ALA7        0.1728
     11  C          8.8030   33.7940   -3.4900 C.2     7  ALA7        0.2617
     12  O          9.2970   34.8160   -2.9960 O.2     7  ALA7       -0.2715
     13  CB         8.0880   33.1650   -1.1920 C.3     7  ALA7        0.0334
     14  N          9.0440   33.4080   -4.7370 N.am    8  GLY8       -0.1940
     15  CA         9.8740   34.2140   -5.6050 C.3     8  GLY8        0.2014
     16  C          9.0110   34.8310   -6.6780 C.2     8  GLY8        0.2639
     17  O          7.8840   35.2720   -6.4110 O.2     8  GLY8       -0.2714
     18  N          9.5330   34.8460   -7.9010 N.am    9  GLY9       -0.1939
     19  CA         8.7960   35.3810   -9.0250 C.3     9  GLY9        0.2014
     20  C          9.0110   36.8700   -9.1130 C.2     9  GLY9        0.2640
     21  O          9.6520   37.4650   -8.2460 O.2     9  GLY9       -0.2714
     22  N          8.4670   37.4730  -10.1610 N.am   10  SER10      -0.1935
     23  CA         8.6960   38.8860  -10.4200 C.3    10  SER10       0.2055
     24  C          7.5190   39.7580  -10.0220 C.2    10  SER10       0.2644
     25  O          7.7130   40.9270   -9.6790 O.2    10  SER10      -0.2714
     26  CB         9.0390   39.1180  -11.8960 C.3    10  SER10       0.2130
     27  OG        10.3620   38.6960  -12.1820 O.3    10  SER10      -0.2179
     28  N          6.3100   39.1910  -10.0650 N.am   11  GLY11      -0.1939
     29  CA         5.0940   39.9690   -9.8530 C.3    11  GLY11       0.2014
     30  C          5.0420   41.1890  -10.7640 C.2    11  GLY11       0.2640
     31  O          4.7550   42.2870  -10.3010 O.2    11  GLY11      -0.2714
     32  N          5.3110   40.9790  -12.0560 N.am   12  THR12      -0.1936
     33  CA         5.4530   42.0420  -13.0510 C.3    12  THR12       0.2028
     34  C          4.1250   42.7010  -13.3820 C.2    12  THR12       0.2642
     35  O          4.0700   43.8840  -13.7380 O.2    12  THR12      -0.2714
     36  CB         6.0690   41.4960  -14.3550 C.3    12  THR12       0.1808
     37  OG1        5.2270   40.4640  -14.8800 O.3    12  THR12      -0.2208
     38  CG2        7.4400   40.9130  -14.0840 C.3    12  THR12       0.0379
     39  N          3.0620   41.9170  -13.2800 N.am   13  ARG13      -0.1963
     40  CA         1.7090   42.4350  -13.3640 C.3    13  ARG13       0.1729
     41  C          1.4860   43.4940  -12.2920 C.2    13  ARG13       0.2616
     42  O          0.6080   44.3520  -12.4330 O.2    13  ARG13      -0.2715
     43  CB         0.6990   41.2980  -13.1680 C.3    13  ARG13       0.0348
     44  CG         0.2000   40.6440  -14.4530 C.3    13  ARG13       0.0492
     45  CD        -0.7490   39.4740  -14.1620 C.3    13  ARG13       0.2205
     46  NE        -0.0500   38.3630  -13.5140 N.pl3  13  ARG13      -0.0865
     47  CZ        -0.6110   37.2010  -13.1890 C.cat  13  ARG13       0.5346
     48  NH1       -1.9010   36.9710  -13.4480 N.pl3  13  ARG13       0.1354
     49  NH2        0.1240   36.2620  -12.6110 N.pl3  13  ARG13       0.1354
     50  N          2.2730   43.4330  -11.2160 N.am   14  LEU14      -0.1977
     51  CA         2.0810   44.3530  -10.0960 C.3    14  LEU14       0.1596
     52  C          2.9470   45.5970  -10.1090 C.2    14  LEU14       0.2287
     53  O          2.9210   46.3620   -9.1430 O.2    14  LEU14      -0.2864
     54  CB         2.2180   43.6290   -8.7520 C.3    14  LEU14       0.0297
     55  CG         1.0760   42.6420   -8.4880 C.3    14  LEU14       0.0022
     56  CD1        1.2480   41.9090   -7.1800 C.3    14  LEU14       0.0001
     57  CD2       -0.2520   43.3850   -8.4940 C.3    14  LEU14       0.0001
     58  N          6.4240   40.8030   -4.0980 N.3    23  LYS23      -0.1231
     59  CA         4.9930   40.5080   -4.0830 C.3    23  LYS23       0.1693
     60  C          4.5360   39.9060   -2.7590 C.2    23  LYS23       0.2591
     61  O          3.5480   40.3680   -2.1820 O.2    23  LYS23      -0.2718
     62  CB         4.6570   39.5380   -5.2130 C.3    23  LYS23       0.0285
     63  CG         3.2000   39.2040   -5.3480 C.3    23  LYS23       0.0035
     64  CD         3.0270   38.1860   -6.4560 C.3    23  LYS23       0.0206
     65  CE         1.5860   37.9580   -6.7500 C.3    23  LYS23       0.1093
     66  NZ         1.4740   36.9750   -7.8560 N.3    23  LYS23      -0.1314
     67  N          5.2610   38.8950   -2.2740 N.am   24  GLN24      -0.1979
     68  CA         4.8580   38.1720   -1.0660 C.3    24  GLN24       0.1601
     69  C          5.1490   38.9110    0.2370 C.2    24  GLN24       0.2287
     70  O          4.9470   38.3680    1.3220 O.2    24  GLN24      -0.2864
     71  CB         5.4370   36.7630   -1.0240 C.3    24  GLN24       0.0394
     72  CG         4.7960   35.8190   -2.0140 C.3    24  GLN24       0.0908
     73  CD         5.4200   35.8880   -3.3940 C.2    24  GLN24       0.2608
     74  OE1        6.5570   36.3410   -3.5520 O.2    24  GLN24      -0.2717
     75  NE2        4.6810   35.4320   -4.4020 N.am   24  GLN24      -0.0878
     76  N         11.3430   29.0040   -0.5360 N.3    52  ILE52      -0.1245
     77  CA        12.1900   29.2590   -1.6980 C.3    52  ILE52       0.1561
     78  C         11.9000   30.6370   -2.3030 C.2    52  ILE52       0.2260
     79  O         10.7610   30.9480   -2.6520 O.2    52  ILE52      -0.2867
     80  CB        11.9830   28.1790   -2.7730 C.3    52  ILE52       0.0252
     81  CG1       12.2060   26.7880   -2.1730 C.3    52  ILE52       0.0019
     82  CG2       12.8850   28.4580   -3.9790 C.3    52  ILE52       0.0019
     83  CD1       11.9520   25.6510   -3.1530 C.3    52  ILE52       0.0001
     84  N         16.7540   30.4980   -5.3090 N.3    80  ASP80      -0.1239
     85  CA        16.8680   29.9630   -6.6640 C.3    80  ASP80       0.1674
     86  C         17.0340   31.1080   -7.6540 C.2    80  ASP80       0.2266
     87  O         16.4370   32.1740   -7.4860 O.2    80  ASP80      -0.2867
     88  CB        15.6960   29.0290   -7.0340 C.3    80  ASP80       0.1410
     89  CG        14.4420   29.7780   -7.4600 C.2    80  ASP80       0.3668
     90  OD1       13.9220   30.5770   -6.6520 O.co2  80  ASP80      -0.2456
     91  OD2       13.9580   29.5420   -8.5930 O.co2  80  ASP80      -0.2456
     92  N         15.7670   31.6440  -10.0540 N.3    82  SER82      -0.1203
     93  CA        14.4640   31.6490  -10.7210 C.3    82  SER82       0.2005
     94  C         14.4620   31.0440  -12.1310 C.2    82  SER82       0.2461
     95  O         13.8600   31.6070  -13.0470 O.2    82  SER82      -0.2732
     96  CB        13.8470   33.0560  -10.7170 C.3    82  SER82       0.2103
     97  OG        13.4760   33.4580   -9.4040 O.3    82  SER82      -0.2182
     98  N         15.1260   29.8880  -12.3070 N.am   83  PRO83      -0.2717
     99  CA        15.0310   29.2110  -13.6020 C.3    83  PRO83       0.1535
    100  C         13.6430   28.6130  -13.7540 C.2    83  PRO83       0.2598
    101  O         13.1470   27.9780  -12.8250 O.2    83  PRO83      -0.2715
    102  CB        16.0750   28.0910  -13.4950 C.3    83  PRO83       0.0310
    103  CG        16.9230   28.4430  -12.3120 C.3    83  PRO83       0.0237
    104  CD        16.0020   29.1560  -11.3810 C.3    83  PRO83       0.0939
    105  N         13.0290   28.8200  -14.9120 N.am   84  ASP84      -0.1972
    106  CA        11.6690   28.3530  -15.1660 C.3    84  ASP84       0.1709
    107  C         11.4050   26.9470  -14.6210 C.2    84  ASP84       0.2293
    108  O         12.2310   26.0420  -14.7480 O.2    84  ASP84      -0.2864
    109  CB        11.3440   28.4180  -16.6650 C.3    84  ASP84       0.1436
    110  CG        11.3260   29.8440  -17.2030 C.2    84  ASP84       0.3671
    111  OD1       11.8900   30.0740  -18.2950 O.co2  84  ASP84      -0.2456
    112  OD2       10.7440   30.7310  -16.5410 O.co2  84  ASP84      -0.2456
    113  N          8.1200   25.5940  -11.7350 N.3    86  LEU86      -0.1245
    114  CA         7.6140   25.5050  -10.3750 C.3    86  LEU86       0.1561
    115  C          7.8890   24.1180   -9.7890 C.2    86  LEU86       0.2260
    116  O          8.1060   23.9870   -8.5860 O.2    86  LEU86      -0.2867
    117  CB         6.1180   25.8420  -10.3350 C.3    86  LEU86       0.0270
    118  CG         5.8400   27.3240  -10.0320 C.3    86  LEU86       0.0019
    119  CD1        6.6010   28.3410  -10.9020 C.3    86  LEU86       0.0001
    120  CD2        4.3650   27.6810   -9.8320 C.3    86  LEU86       0.0001
    121  N          1.8560   27.9550   -3.1460 N.3   106  LEU106     -0.1231
    122  CA         2.3510   29.1890   -3.7560 C.3   106  LEU106      0.1693
    123  C          2.2200   30.3750   -2.8060 C.2   106  LEU106      0.2593
    124  O          1.2050   30.5330   -2.1150 O.2   106  LEU106     -0.2718
    125  CB         1.6050   29.4940   -5.0560 C.3   106  LEU106      0.0284
    126  CG         1.5710   28.3580   -6.0710 C.3   106  LEU106      0.0019
    127  CD1        0.9700   28.8310   -7.3950 C.3   106  LEU106      0.0001
    128  CD2        2.9680   27.8530   -6.2700 C.3   106  LEU106      0.0001
    129  N          3.2380   31.2260   -2.7920 N.am  107  GLY107     -0.1942
    130  CA         3.3310   32.2760   -1.7920 C.3   107  GLY107      0.2014
    131  C          2.2570   33.3350   -1.8950 C.2   107  GLY107      0.2638
    132  O          2.0990   34.1510   -0.9840 O.2   107  GLY107     -0.2714
    133  N          1.5220   33.3380   -3.0040 N.am  108  ASP108     -0.1971
    134  CA         0.4920   34.3510   -3.2150 C.3   108  ASP108      0.1709
    135  C         -0.9100   33.7390   -3.1880 C.2   108  ASP108      0.2293
    136  O         -1.8780   34.3350   -3.6550 O.2   108  ASP108     -0.2864
    137  CB         0.7400   35.1290   -4.5200 C.3   108  ASP108      0.1436
    138  CG         0.6080   34.2570   -5.7680 C.2   108  ASP108      0.3671
    139  OD1        0.2550   33.0630   -5.6370 O.co2 108  ASP108     -0.2456
    140  OD2        0.8390   34.7770   -6.8870 O.co2 108  ASP108     -0.2456
    141  N         -6.4330   34.7790   -5.7080 N.3   214  ASP214     -0.1239
    142  CA        -5.1200   34.8490   -6.3030 C.3   214  ASP214      0.1674
    143  C         -4.8340   36.3210   -6.4080 C.2   214  ASP214      0.2266
    144  O         -5.7190   37.1250   -6.7210 O.2   214  ASP214     -0.2867
    145  CB        -5.0480   34.1560   -7.6570 C.3   214  ASP214      0.1410
    146  CG        -3.6680   33.5990   -7.9370 C.2   214  ASP214      0.3668
    147  OD1       -2.6960   34.1420   -7.3640 O.co2 214  ASP214     -0.2456
    148  OD2       -3.5540   32.6190   -8.7100 O.co2 214  ASP214     -0.2456
    149  N         -3.2410   38.2600   -8.3800 N.3   216  GLY216     -0.1225
    150  CA        -2.6660   38.5780   -9.6710 C.3   216  GLY216      0.1811
    151  C         -2.3890   40.0580   -9.8230 C.2   216  GLY216      0.2280
    152  O         -1.2540   40.4750  -10.0490 O.2   216  GLY216     -0.2866
@<TRIPOS>BOND
     1   111   110   ar
     2   110   109    1
     3   110   112   ar
     4   109   106    1
     5   106   105    1
     6   106   107    1
     7   105   100   am
     8    37    36    1
     9   108   107    2
    10    44    45    1
    11    44    43    1
    12    36    38    1
    13    36    33    1
    14    45    46    1
    15   100    99    1
    16   100   101    2
    17    35    34    2
    18    99   102    1
    19    99    98    1
    20    46    47    2
    21   102   103    1
    22    48    47    1
    23    34    39   am
    24    34    33    1
    25    40    39    1
    26    40    43    1
    27    40    41    1
    28    47    49    1
    29    33    32    1
    30    95    94    2
    31    42    41    2
    32   103   104    1
    33    98    94   am
    34    98   104    1
    35    41    50   am
    36    27    26    1
    37    94    93    1
    38    32    30   am
    39    26    23    1
    40   113   114    1
    41    50    51    1
    42   119   118    1
    43    30    31    2
    44    30    29    1
    45    93    96    1
    46    93    92    1
    47    96    97    1
    48    23    22    1
    49    23    24    1
    50   114   117    1
    51   114   115    1
    52   117   118    1
    53    22    20   am
    54    52    51    1
    55    52    53    2
    56    51    54    1
    57    28    24   am
    58    28    29    1
    59   152   151    2
    60   118   120    1
    61    24    25    2
    62   151   150    1
    63   115   116    2
    64   150   149    1
    65    20    19    1
    66    20    21    2
    67    19    18    1
    68    54    55    1
    69   148   146   ar
    70    91    89   ar
    71    57    55    1
    72    55    56    1
    73   146   145    1
    74   146   147   ar
    75    18    16   am
    76    66    65    1
    77   145   142    1
    78    86    87    2
    79    86    85    1
    80    89    88    1
    81    89    90   ar
    82   127   126    1
    83    88    85    1
    84   140   138   ar
    85    65    64    1
    86   144   143    2
    87    16    17    2
    88    16    15    1
    89    85    84    1
    90     7     6    1
    91    64    63    1
    92   143   142    1
    93   142   141    1
    94   128   126    1
    95   126   125    1
    96   138   139   ar
    97   138   137    1
    98    15    14    1
    99    63    62    1
   100    62    59    1
   101     8     6    1
   102     6     5    1
   103   125   122    1
   104    14    11   am
   105     5     2    1
   106   137   134    1
   107    75    73   am
   108    58    59    1
   109    59    60    1
   110    82    80    1
   111   122   121    1
   112   122   123    1
   113   136   135    2
   114    74    73    2
   115     4     3    2
   116    11    12    2
   117    11    10    1
   118    73    72    1
   119     2     3    1
   120     2     1    1
   121     3     9   am
   122   134   135    1
   123   134   133    1
   124    83    81    1
   125   133   131   am
   126     9    10    1
   127   123   129   am
   128   123   124    2
   129   129   130    1
   130    80    81    1
   131    80    77    1
   132    60    67   am
   133    60    61    2
   134    10    13    1
   135    79    78    2
   136    78    77    1
   137    67    68    1
   138    72    71    1
   139   131   130    1
   140   131   132    2
   141    77    76    1
   142    68    71    1
   143    68    69    1
   144    69    70    2
