@<TRIPOS>MOLECULE
tmp/3pkyA00.pdb
 154 149 0 0 0
SMALL
GASTEIGER

@<TRIPOS>ATOM
      1  N         34.0830   52.0700    3.1560 N.3    59  PHE59      -0.1241
      2  CA        35.4690   51.6650    2.9540 C.3    59  PHE59       0.1605
      3  C         35.5010   50.2810    2.3210 C.2    59  PHE59       0.2264
      4  O         34.6720   49.4280    2.6340 O.2    59  PHE59      -0.2867
      5  CB        36.2440   51.6510    4.2690 C.3    59  PHE59       0.0534
      6  CG        36.7860   52.9940    4.6720 C.ar   59  PHE59      -0.0203
      7  CD1       38.0180   53.4290    4.2080 C.ar   59  PHE59      -0.0042
      8  CD2       36.0680   53.8260    5.5240 C.ar   59  PHE59      -0.0042
      9  CE1       38.5240   54.6670    4.5820 C.ar   59  PHE59      -0.0003
     10  CE2       36.5740   55.0630    5.9050 C.ar   59  PHE59      -0.0003
     11  CZ        37.8070   55.4770    5.4300 C.ar   59  PHE59      -0.0000
     12  N         43.3040   55.5440   -0.0480 N.3   106  HIS106     -0.1241
     13  CA        44.0780   55.5830    1.1890 C.3   106  HIS106      0.1621
     14  C         45.1750   54.5450    1.1310 C.2   106  HIS106      0.2264
     15  O         44.9330   53.4160    0.7110 O.2   106  HIS106     -0.2867
     16  CB        43.1830   55.2910    2.3840 C.3   106  HIS106      0.0745
     17  CG        42.0750   56.2730    2.5550 C.ar  106  HIS106      0.0817
     18  ND1       42.0820   57.2340    3.5390 N.ar  106  HIS106     -0.2268
     19  CD2       40.9240   56.4510    1.8640 C.ar  106  HIS106      0.1154
     20  CE1       40.9800   57.9580    3.4520 C.ar  106  HIS106      0.1986
     21  NE2       40.2590   57.5030    2.4430 N.ar  106  HIS106     -0.2212
     22  N         50.4090   63.6980   10.7890 N.3   132  ASP132     -0.1225
     23  CA        49.0420   64.0430   10.4620 C.3   132  ASP132      0.1805
     24  C         48.6090   65.1100   11.4440 C.2   132  ASP132      0.2598
     25  O         48.3120   64.8240   12.5950 O.2   132  ASP132     -0.2718
     26  CB        48.1910   62.7680   10.5320 C.3   132  ASP132      0.1424
     27  CG        46.6970   63.0230   10.7630 C.2   132  ASP132      0.3668
     28  OD1       46.1720   64.0900   10.3670 O.co2 132  ASP132     -0.2456
     29  OD2       46.0400   62.1170   11.3400 O.co2 132  ASP132     -0.2456
     30  N         48.6010   66.3540   10.9880 N.am  133  LEU133     -0.1966
     31  CA        48.3060   67.4850   11.8610 C.3   133  LEU133      0.1728
     32  C         46.8120   67.8340   11.8720 C.2   133  LEU133      0.2616
     33  O         46.2270   68.2290   10.8600 O.2   133  LEU133     -0.2715
     34  CB        49.1860   68.6890   11.5000 C.3   133  LEU133      0.0311
     35  CG        50.6000   68.7780   12.0990 C.3   133  LEU133      0.0022
     36  CD1       51.4160   67.5080   11.9430 C.3   133  LEU133      0.0001
     37  CD2       51.3560   69.9400   11.4980 C.3   133  LEU133      0.0001
     38  N         46.2130   67.6590   13.0450 N.am  134  ASP134     -0.1958
     39  CA        44.7800   67.8050   13.2470 C.3   134  ASP134      0.1825
     40  C         44.5220   68.9940   14.1640 C.2   134  ASP134      0.2464
     41  O         44.8190   68.9420   15.3630 O.2   134  ASP134     -0.2730
     42  CB        44.2030   66.5190   13.8560 C.3   134  ASP134      0.1450
     43  CG        44.4040   65.3020   12.9610 C.2   134  ASP134      0.3671
     44  OD1       44.2400   65.4580   11.7310 O.co2 134  ASP134     -0.2456
     45  OD2       44.7110   64.2000   13.4830 O.co2 134  ASP134     -0.2456
     46  N         43.9700   70.0790   13.6060 N.am  135  PRO135     -0.2727
     47  CA        43.8000   71.3050   14.3730 C.3   135  PRO135      0.1402
     48  C         42.5520   71.2520   15.2400 C.2   135  PRO135      0.2269
     49  O         41.5620   70.6250   14.8610 O.2   135  PRO135     -0.2865
     50  CB        43.6530   72.3640   13.2880 C.3   135  PRO135      0.0296
     51  CG        43.0320   71.6290   12.1350 C.3   135  PRO135      0.0237
     52  CD        43.3420   70.1680   12.2780 C.3   135  PRO135      0.0939
     53  N         45.4530   68.2580    3.5020 N.3   167  SER167     -0.1217
     54  CA        44.6820   67.0170    3.4100 C.3   167  SER167      0.1889
     55  C         43.5050   67.0890    2.4250 C.2   167  SER167      0.2288
     56  O         43.0490   66.0660    1.9090 O.2   167  SER167     -0.2866
     57  CB        44.1750   66.6210    4.7880 C.3   167  SER167      0.2089
     58  OG        43.2150   67.5530    5.2510 O.3   167  SER167     -0.2183
     59  N         40.8750   68.5930    3.4990 N.3   169  SER169     -0.1202
     60  CA        39.8320   68.4360    4.4890 C.3   169  SER169      0.2020
     61  C         39.9180   69.5820    5.4960 C.2   169  SER169      0.2619
     62  O         39.5320   70.7020    5.1760 O.2   169  SER169     -0.2717
     63  CB        39.9420   67.0560    5.1510 C.3   169  SER169      0.2103
     64  OG        38.9180   66.8650    6.1020 O.3   169  SER169     -0.2182
     65  N         40.4460   69.3170    6.6850 N.am  170  LYS170     -0.1965
     66  CA        40.5240   70.3410    7.7120 C.3   170  LYS170      0.1728
     67  C         41.9430   70.7300    8.0950 C.2   170  LYS170      0.2617
     68  O         42.1890   71.8740    8.4780 O.2   170  LYS170     -0.2715
     69  CB        39.7660   69.8960    8.9610 C.3   170  LYS170      0.0311
     70  CG        38.3670   70.5080    9.1240 C.3   170  LYS170      0.0038
     71  CD        37.6780   69.9790   10.3960 C.3   170  LYS170      0.0206
     72  CE        38.4790   70.3280   11.6760 C.3   170  LYS170      0.1093
     73  NZ        38.1640   69.4130   12.8220 N.3   170  LYS170     -0.1314
     74  N         42.8700   69.7820    8.0030 N.am  171  GLY171     -0.1940
     75  CA        44.2250   69.9910    8.4990 C.3   171  GLY171      0.2014
     76  C         45.3270   69.7590    7.4950 C.2   171  GLY171      0.2639
     77  O         45.1640   69.9760    6.2960 O.2   171  GLY171     -0.2714
     78  N         46.4580   69.2820    7.9840 N.am  172  LEU172     -0.1963
     79  CA        47.6780   69.3060    7.2000 C.3   172  LEU172      0.1728
     80  C         48.5110   68.0390    7.3890 C.2   172  LEU172      0.2616
     81  O         48.5730   67.4850    8.4810 O.2   172  LEU172     -0.2715
     82  CB        48.4520   70.5490    7.6150 C.3   172  LEU172      0.0311
     83  CG        49.8300   70.8520    7.0790 C.3   172  LEU172      0.0022
     84  CD1       49.8190   70.8270    5.5690 C.3   172  LEU172      0.0001
     85  CD2       50.2170   72.2110    7.6220 C.3   172  LEU172      0.0001
     86  N         49.1360   67.5760    6.3170 N.am  173  HIS173     -0.1973
     87  CA        49.9670   66.3750    6.3760 C.3   173  HIS173      0.1656
     88  C         51.4060   66.6920    6.0330 C.2   173  HIS173      0.2291
     89  O         51.6750   67.5160    5.1680 O.2   173  HIS173     -0.2864
     90  CB        49.4370   65.2810    5.4470 C.3   173  HIS173      0.0771
     91  CG        48.1560   64.6580    5.9150 C.ar  173  HIS173      0.0820
     92  ND1       47.3750   63.8600    5.1050 N.ar  173  HIS173     -0.2267
     93  CD2       47.5160   64.7240    7.1090 C.ar  173  HIS173      0.1154
     94  CE1       46.3100   63.4630    5.7800 C.ar  173  HIS173      0.1986
     95  NE2       46.3710   63.9710    6.9990 N.ar  173  HIS173     -0.2212
     96  N         49.1990   63.7620   15.3820 N.3   222  ASP222     -0.1239
     97  CA        48.9000   62.3440   15.2630 C.3   222  ASP222      0.1674
     98  C         50.1100   61.4950   14.8010 C.2   222  ASP222      0.2266
     99  O         50.3620   61.3090   13.5810 O.2   222  ASP222     -0.2867
    100  CB        47.7250   62.1560   14.3100 C.3   222  ASP222      0.1410
    101  CG        46.8450   60.9930   14.6900 C.2   222  ASP222      0.3668
    102  OD1       47.3400   60.0100   15.3020 O.co2 222  ASP222     -0.2456
    103  OD2       45.6410   61.0780   14.3720 O.co2 222  ASP222     -0.2456
    104  N         49.6110   57.4460   13.2300 N.3   225  GLN225     -0.1245
    105  CA        49.3300   57.1820   11.8040 C.3   225  GLN225      0.1566
    106  C         50.4760   56.4260   11.1450 C.2   225  GLN225      0.2260
    107  O         50.3660   55.9360   10.0240 O.2   225  GLN225     -0.2867
    108  CB        49.1270   58.4770   11.0330 C.3   225  GLN225      0.0367
    109  CG        47.8920   59.2500   11.4130 C.3   225  GLN225      0.0905
    110  CD        46.5970   58.6090   10.9500 C.2   225  GLN225      0.2608
    111  OE1       45.5840   58.6960   11.6500 O.2   225  GLN225     -0.2717
    112  NE2       46.6090   57.9840    9.7720 N.am  225  GLN225     -0.0878
    113  N         47.4290   51.2840    9.7500 N.3   230  LYS230     -0.1231
    114  CA        46.6630   52.4990    9.4760 C.3   230  LYS230      0.1693
    115  C         46.9630   53.0610    8.0860 C.2   230  LYS230      0.2593
    116  O         48.0370   52.8100    7.5380 O.2   230  LYS230     -0.2718
    117  CB        46.9750   53.5510   10.5370 C.3   230  LYS230      0.0285
    118  CG        46.7110   53.1020   11.9590 C.3   230  LYS230      0.0035
    119  CD        46.4150   54.2880   12.8470 C.3   230  LYS230      0.0206
    120  CE        45.7480   53.8640   14.1380 C.3   230  LYS230      0.1093
    121  NZ        45.5680   55.0260   15.0420 N.3   230  LYS230     -0.1314
    122  N         46.0250   53.8150    7.5120 N.am  231  THR231     -0.1939
    123  CA        46.2710   54.4660    6.2180 C.3   231  THR231      0.2028
    124  C         46.0370   55.9690    6.2860 C.2   231  THR231      0.2643
    125  O         45.2510   56.4440    7.1070 O.2   231  THR231     -0.2714
    126  CB        45.3570   53.9240    5.1120 C.3   231  THR231      0.1808
    127  OG1       43.9990   54.2000    5.4560 O.3   231  THR231     -0.2208
    128  CG2       45.5330   52.4210    4.9170 C.3   231  THR231      0.0379
    129  N         46.7020   56.7150    5.4120 N.am  232  THR232     -0.1936
    130  CA        46.5020   58.1570    5.3050 C.3   232  THR232      0.2028
    131  C         46.0340   58.4400    3.8980 C.2   232  THR232      0.2642
    132  O         46.4710   57.7620    2.9640 O.2   232  THR232     -0.2714
    133  CB        47.8100   58.9300    5.5760 C.3   232  THR232      0.1808
    134  OG1       48.1960   58.7270    6.9300 O.3   232  THR232     -0.2208
    135  CG2       47.6340   60.4250    5.3680 C.3   232  THR232      0.0379
    136  N         45.1510   59.4300    3.7400 N.am  233  ILE233     -0.1977
    137  CA        44.6850   59.8080    2.4170 C.3   233  ILE233      0.1596
    138  C         45.8870   60.0510    1.5320 C.2   233  ILE233      0.2287
    139  O         46.8320   60.7360    1.9330 O.2   233  ILE233     -0.2864
    140  CB        43.7690   61.0360    2.4350 C.3   233  ILE233      0.0276
    141  CG1       43.2220   61.2980    1.0340 C.3   233  ILE233      0.0022
    142  CG2       44.4780   62.2600    2.9580 C.3   233  ILE233      0.0022
    143  CD1       42.1210   60.3250    0.6360 C.3   233  ILE233      0.0001
    144  N         38.8150   64.2330   -2.1490 N.3   239  ARG239     -0.1245
    145  CA        38.0820   63.9360   -0.9240 C.3   239  ARG239      0.1563
    146  C         36.5940   63.8480   -1.2290 C.2   239  ARG239      0.2260
    147  O         36.1020   64.4540   -2.1820 O.2   239  ARG239     -0.2867
    148  CB        38.3200   64.9850    0.1640 C.3   239  ARG239      0.0307
    149  CG        39.7670   65.2170    0.6040 C.3   239  ARG239      0.0489
    150  CD        40.6320   63.9520    0.7330 C.3   239  ARG239      0.2205
    151  NE        40.2800   63.0290    1.8220 N.pl3 239  ARG239     -0.0865
    152  CZ        40.4770   63.2460    3.1230 C.cat 239  ARG239      0.5346
    153  NH1       40.9800   64.3900    3.5660 N.pl3 239  ARG239      0.1354
    154  NH2       40.1400   62.3110    3.9930 N.pl3 239  ARG239      0.1354
@<TRIPOS>BOND
     1   147   146    2
     2   144   145    1
     3   146   145    1
     4   145   148    1
     5    12    13    1
     6   148   149    1
     7   149   150    1
     8   143   141    1
     9    15    14    2
    10   150   151    1
    11   141   140    1
    12    14    13    1
    13    13    16    1
    14   138   139    2
    15   138   137    1
    16   151   152    2
    17    19    21   ar
    18    19    17   ar
    19    56    55    2
    20     3     4    2
    21     3     2    1
    22    16    17    1
    23   137   140    1
    24   137   136    1
    25    55    54    1
    26   140   142    1
    27    21    20   ar
    28    17    18   ar
    29     2     1    1
    30     2     5    1
    31   132   131    2
    32   152   153    1
    33   152   154    1
    34    54    53    1
    35    54    57    1
    36    20    18   ar
    37    59    60    1
    38   136   131   am
    39   131   130    1
    40     7     9   ar
    41     7     6   ar
    42     5     6    1
    43    60    63    1
    44    60    61    1
    45     9    11   ar
    46     6     8   ar
    47    57    58    1
    48   128   126    1
    49    92    94   ar
    50    92    91   ar
    51   126   127    1
    52   126   123    1
    53    63    64    1
    54    89    88    2
    55    62    61    2
    56   130   129    1
    57   130   133    1
    58   135   133    1
    59   129   124   am
    60    11    10   ar
    61    90    91    1
    62    90    87    1
    63    61    65   am
    64     8    10   ar
    65    84    83    1
    66   133   134    1
    67    94    95   ar
    68    91    93   ar
    69    88    87    1
    70   123   124    1
    71   123   122    1
    72   124   125    2
    73    77    76    2
    74    86    87    1
    75    86    80   am
    76    65    66    1
    77    95    93   ar
    78    83    82    1
    79    83    85    1
    80    79    80    1
    81    79    82    1
    82    79    78    1
    83    80    81    2
    84    76    78   am
    85    76    75    1
    86   122   115   am
    87   116   115    2
    88    66    67    1
    89    66    69    1
    90    74    67   am
    91    74    75    1
    92   115   114    1
    93    67    68    2
    94    69    70    1
    95    70    71    1
    96   114   113    1
    97   114   117    1
    98   112   110   am
    99   107   106    2
   100    28    27   ar
   101    71    72    1
   102    23    26    1
   103    23    22    1
   104    23    24    1
   105    26    27    1
   106   117   118    1
   107    27    29   ar
   108    33    32    2
   109   110   109    1
   110   110   111    2
   111    30    24   am
   112    30    31    1
   113   108   109    1
   114   108   105    1
   115   106   105    1
   116    24    25    2
   117    37    35    1
   118    34    31    1
   119    34    35    1
   120    72    73    1
   121    44    43   ar
   122   105   104    1
   123    31    32    1
   124    32    38   am
   125    36    35    1
   126   118   119    1
   127    51    52    1
   128    51    50    1
   129    52    46    1
   130   119   120    1
   131    43    45   ar
   132    43    42    1
   133    38    39    1
   134    39    42    1
   135    39    40    1
   136    50    47    1
   137    99    98    2
   138    46    40   am
   139    46    47    1
   140   120   121    1
   141    40    41    2
   142   100   101    1
   143   100    97    1
   144   103   101   ar
   145    47    48    1
   146   101   102   ar
   147    98    97    1
   148    49    48    2
   149    97    96    1
