@<TRIPOS>MOLECULE
tmp/3pl2B00.pdb
 133 123 0 0 0
SMALL
GASTEIGER

@<TRIPOS>ATOM
      1  N         30.1400   65.3630   73.4520 N.3    10  ARG10      -0.1245
      2  CA        29.8800   64.7460   72.1500 C.3    10  ARG10       0.1563
      3  C         29.1940   63.3810   72.1550 C.2    10  ARG10       0.2260
      4  O         29.3820   62.5750   73.0650 O.2    10  ARG10      -0.2867
      5  CB        31.0780   64.7490   71.2490 C.3    10  ARG10       0.0307
      6  CG        32.1850   63.9540   71.6230 C.3    10  ARG10       0.0489
      7  CD        33.2600   64.1220   70.6000 C.3    10  ARG10       0.2205
      8  NE        34.4870   63.4890   71.0270 N.pl3  10  ARG10      -0.0865
      9  CZ        35.3350   63.9610   71.9440 C.cat  10  ARG10       0.5346
     10  NH1       35.0830   65.1000   72.6180 N.pl3  10  ARG10       0.1354
     11  NH2       36.4450   63.2590   72.2060 N.pl3  10  ARG10       0.1354
     12  N         29.2190   55.7400   65.7850 N.3    14  ASP14      -0.1239
     13  CA        30.4670   55.1050   65.4040 C.3    14  ASP14       0.1674
     14  C         30.2180   54.1100   64.2830 C.2    14  ASP14       0.2266
     15  O         29.4730   53.1500   64.4550 O.2    14  ASP14      -0.2867
     16  CB        31.1770   54.4120   66.5790 C.3    14  ASP14       0.1410
     17  CG        31.7700   55.3920   67.5910 C.2    14  ASP14       0.3668
     18  OD1       31.9040   56.6310   67.3170 O.co2  14  ASP14      -0.2456
     19  OD2       32.1230   54.9150   68.6840 O.co2  14  ASP14      -0.2456
     20  N         32.4200   51.7580   62.7640 N.3    16  TYR16      -0.1241
     21  CA        33.7490   51.1540   62.9470 C.3    16  TYR16       0.1605
     22  C         33.8840   49.8180   62.2210 C.2    16  TYR16       0.2264
     23  O         32.8980   49.0650   62.1480 O.2    16  TYR16      -0.2867
     24  CB        34.0350   50.9440   64.4500 C.3    16  TYR16       0.0534
     25  CG        34.3790   52.1710   65.2620 C.ar   16  TYR16      -0.0201
     26  CD1       34.3530   53.4900   64.7220 C.ar   16  TYR16      -0.0009
     27  CD2       34.6870   52.0280   66.6310 C.ar   16  TYR16      -0.0009
     28  CE1       34.6650   54.5870   65.4940 C.ar   16  TYR16       0.0417
     29  CE2       35.0110   53.1270   67.4020 C.ar   16  TYR16       0.0417
     30  CZ        35.0000   54.3930   66.8440 C.ar   16  TYR16       0.1957
     31  OH        35.3040   55.4850   67.6090 O.3    16  TYR16      -0.2866
     32  N         31.0260   58.7310   70.8290 N.3    36  GLY36      -0.1210
     33  CA        31.2950   60.0950   71.3230 C.3    36  GLY36       0.1956
     34  C         31.6790   59.9930   72.7950 C.2    36  GLY36       0.2612
     35  O         31.0450   59.2480   73.5410 O.2    36  GLY36      -0.2717
     36  N         32.7450   60.6920   73.1780 N.am   37  SER37      -0.1952
     37  CA        33.3900   60.5330   74.4660 C.3    37  SER37       0.1924
     38  C         32.4890   60.7680   75.6510 C.2    37  SER37       0.2314
     39  O         32.4380   59.9110   76.5040 O.2    37  SER37      -0.2863
     40  CB        34.6290   61.4170   74.6000 C.3    37  SER37       0.2116
     41  OG        35.2780   61.1880   75.8220 O.3    37  SER37      -0.2180
     42  N         29.8990   58.0470   75.7910 N.3    40  ASN40      -0.1240
     43  CA        30.5020   56.8160   76.3200 C.3    40  ASN40       0.1653
     44  C         30.6570   56.8180   77.8650 C.2    40  ASN40       0.2266
     45  O         30.3740   55.8060   78.5010 O.2    40  ASN40      -0.2867
     46  CB        31.8570   56.5250   75.6650 C.3    40  ASN40       0.1155
     47  CG        31.7330   56.0880   74.1970 C.2    40  ASN40       0.2627
     48  OD1       30.6560   55.6680   73.7500 O.2    40  ASN40      -0.2716
     49  ND2       32.7940   56.2870   73.4290 N.am   40  ASN40      -0.0877
     50  N         31.5470   58.8240   62.8640 N.3    92  THR92      -0.1218
     51  CA        32.9760   58.6580   62.9820 C.3    92  THR92       0.1862
     52  C         33.4220   57.2960   62.5140 C.2    92  THR92       0.2287
     53  O         32.8860   56.3230   62.9410 O.2    92  THR92      -0.2866
     54  CB        33.3800   58.8220   64.4380 C.3    92  THR92       0.1770
     55  OG1       32.8670   60.0620   64.9220 O.3    92  THR92      -0.2211
     56  CG2       34.8970   58.8270   64.5660 C.3    92  THR92       0.0375
     57  N         41.2610   58.0590   63.8310 N.3   104  LEU104     -0.1245
     58  CA        39.8550   58.4550   63.8610 C.3   104  LEU104      0.1561
     59  C         39.5860   59.3430   62.6570 C.2   104  LEU104      0.2260
     60  O         40.4660   60.1430   62.3140 O.2   104  LEU104     -0.2867
     61  CB        39.6170   59.2460   65.1540 C.3   104  LEU104      0.0270
     62  CG        39.5490   58.3610   66.3850 C.3   104  LEU104      0.0019
     63  CD1       39.8270   59.1410   67.6910 C.3   104  LEU104      0.0001
     64  CD2       38.1830   57.6990   66.4280 C.3   104  LEU104      0.0001
     65  N         36.5100   61.7530   61.6900 N.3   106  PHE106     -0.1241
     66  CA        35.2970   62.4020   62.1820 C.3   106  PHE106      0.1605
     67  C         34.6280   63.1220   61.0390 C.2   106  PHE106      0.2264
     68  O         35.3110   63.8010   60.2730 O.2   106  PHE106     -0.2867
     69  CB        35.6240   63.4800   63.2160 C.3   106  PHE106      0.0534
     70  CG        36.0440   62.9530   64.5380 C.ar  106  PHE106     -0.0203
     71  CD1       35.1050   62.5160   65.4420 C.ar  106  PHE106     -0.0042
     72  CD2       37.3980   62.9240   64.8960 C.ar  106  PHE106     -0.0042
     73  CE1       35.5000   62.0630   66.7050 C.ar  106  PHE106     -0.0003
     74  CE2       37.7980   62.4450   66.1690 C.ar  106  PHE106     -0.0003
     75  CZ        36.8480   61.9910   67.0400 C.ar  106  PHE106     -0.0000
     76  N         40.5890   66.1070   77.2130 N.3   167  ASP167     -0.1239
     77  CA        40.1110   65.8280   75.8610 C.3   167  ASP167      0.1674
     78  C         40.5800   66.8150   74.7860 C.2   167  ASP167      0.2266
     79  O         39.9240   67.8250   74.5160 O.2   167  ASP167     -0.2867
     80  CB        38.5850   65.7410   75.9390 C.3   167  ASP167      0.1410
     81  CG        37.9460   65.4920   74.6210 C.2   167  ASP167      0.3668
     82  OD1       38.2430   64.4670   73.9690 O.co2 167  ASP167     -0.2456
     83  OD2       37.1090   66.3170   74.2480 O.co2 167  ASP167     -0.2456
     84  N         41.7410   67.2620   70.9490 N.3   169  ARG169     -0.1245
     85  CA        41.7460   66.8330   69.5540 C.3   169  ARG169      0.1563
     86  C         42.1750   68.0520   68.7430 C.2   169  ARG169      0.2260
     87  O         41.3780   68.9760   68.6190 O.2   169  ARG169     -0.2867
     88  CB        40.3250   66.4300   69.1740 C.3   169  ARG169      0.0307
     89  CG        39.8810   65.1330   69.8040 C.3   169  ARG169      0.0489
     90  CD        40.5920   64.0120   69.1160 C.3   169  ARG169      0.2205
     91  NE        40.7150   62.8310   69.9500 N.pl3 169  ARG169     -0.0865
     92  CZ        41.6130   61.8760   69.7290 C.cat 169  ARG169      0.5346
     93  NH1       42.4540   61.9680   68.7080 N.pl3 169  ARG169      0.1354
     94  NH2       41.6710   60.8330   70.5330 N.pl3 169  ARG169      0.1354
     95  N         41.7020   50.0060   71.0910 N.3   251  GLY251     -0.1210
     96  CA        41.9270   50.8810   72.2620 C.3   251  GLY251      0.1956
     97  C         40.9610   52.0670   72.3860 C.2   251  GLY251      0.2612
     98  O         40.8860   52.7030   73.4470 O.2   251  GLY251     -0.2717
     99  N         40.2220   52.3780   71.3180 N.am  252  LEU252     -0.1965
    100  CA        39.2580   53.4880   71.3370 C.3   252  LEU252      0.1728
    101  C         38.1910   53.2940   72.4000 C.2   252  LEU252      0.2617
    102  O         37.7100   52.1770   72.6100 O.2   252  LEU252     -0.2715
    103  CB        38.5970   53.7420   69.9630 C.3   252  LEU252      0.0311
    104  CG        39.5650   54.2220   68.8720 C.3   252  LEU252      0.0022
    105  CD1       38.9490   54.1300   67.4410 C.3   252  LEU252      0.0001
    106  CD2       40.0810   55.6410   69.1640 C.3   252  LEU252      0.0001
    107  N         37.8570   54.3980   73.0580 N.am  253  GLY253     -0.1940
    108  CA        36.9340   54.4160   74.1850 C.3   253  GLY253      0.2014
    109  C         37.4870   53.9150   75.4970 C.2   253  GLY253      0.2639
    110  O         36.7360   53.8920   76.4670 O.2   253  GLY253     -0.2714
    111  N         38.7730   53.5310   75.5680 N.am  254  ALA254     -0.1963
    112  CA        39.3310   52.9850   76.8130 C.3   254  ALA254      0.1728
    113  C         39.3340   54.0840   77.8790 C.2   254  ALA254      0.2617
    114  O         38.9980   53.8100   79.0440 O.2   254  ALA254     -0.2715
    115  CB        40.7600   52.3860   76.6260 C.3   254  ALA254      0.0334
    116  N         39.6920   55.3150   77.4700 N.am  255  GLY255     -0.1940
    117  CA        39.6100   56.4740   78.3230 C.3   255  GLY255      0.2014
    118  C         38.2260   56.7340   78.8950 C.2   255  GLY255      0.2638
    119  O         38.0860   57.1910   80.0360 O.2   255  GLY255     -0.2714
    120  N         37.1990   56.4240   78.1030 N.am  256  ASP256     -0.1971
    121  CA        35.8190   56.6500   78.5140 C.3   256  ASP256      0.1709
    122  C         35.3730   55.6420   79.5660 C.2   256  ASP256      0.2293
    123  O         34.6500   56.0170   80.5260 O.2   256  ASP256     -0.2864
    124  CB        34.8820   56.5810   77.3150 C.3   256  ASP256      0.1436
    125  CG        35.1880   57.6350   76.2590 C.2   256  ASP256      0.3671
    126  OD1       35.6640   58.7250   76.6120 O.co2 256  ASP256     -0.2456
    127  OD2       34.8920   57.3930   75.0730 O.co2 256  ASP256     -0.2456
    128  N         33.1910   49.4500   71.5030 N.3   292  CYS292     -0.1235
    129  CA        33.4520   50.5950   72.3660 C.3   292  CYS292      0.1677
    130  C         32.2740   50.7430   73.3640 C.2   292  CYS292      0.2270
    131  O         32.3600   50.1380   74.4420 O.2   292  CYS292     -0.2867
    132  CB        33.7320   51.7980   71.4560 C.3   292  CYS292      0.0956
    133  SG        34.1210   53.3900   72.1740 S.3   292  CYS292     -0.0801
@<TRIPOS>BOND
     1    68    67    2
     2    67    66    1
     3    65    66    1
     4    23    22    2
     5    66    69    1
     6    22    21    1
     7    60    59    2
     8    52    53    2
     9    52    51    1
    10    59    58    1
    11    20    21    1
    12    50    51    1
    13    21    24    1
    14    51    54    1
    15    69    70    1
    16    57    58    1
    17    58    61    1
    18    14    15    2
    19    14    13    1
    20    54    56    1
    21    54    55    1
    22    24    25    1
    23    70    72   ar
    24    70    71   ar
    25    26    25   ar
    26    26    28   ar
    27    72    74   ar
    28    61    62    1
    29    25    27   ar
    30    13    12    1
    31    13    16    1
    32    71    73   ar
    33    28    30   ar
    34    74    75   ar
    35    62    64    1
    36    62    63    1
    37    16    17    1
    38    27    29   ar
    39    73    75   ar
    40    30    29   ar
    41    30    31    1
    42    18    17   ar
    43   105   104    1
    44    17    19   ar
    45    87    86    2
    46    93    92    1
    47    86    85    1
    48   104   106    1
    49   104   103    1
    50    90    89    1
    51    90    91    1
    52    88    85    1
    53    88    89    1
    54    85    84    1
    55    92    91    2
    56    92    94    1
    57   103   100    1
    58     7     8    1
    59     7     6    1
    60    32    33    1
    61     8     9    2
    62    95    96    1
    63     5     6    1
    64     5     2    1
    65    99   100    1
    66    99    97   am
    67    33    34    1
    68   100   101    1
    69   132   133    1
    70   132   129    1
    71   128   129    1
    72     9    11    1
    73     9    10    1
    74     2     3    1
    75     2     1    1
    76     3     4    2
    77    96    97    1
    78   129   130    1
    79    97    98    2
    80   101   102    2
    81   101   107   am
    82    34    36   am
    83    34    35    2
    84   107   108    1
    85    36    37    1
    86   130   131    2
    87    49    47   am
    88    48    47    2
    89    82    81   ar
    90   108   109    1
    91    47    46    1
    92    83    81   ar
    93    37    40    1
    94    37    38    1
    95    79    78    2
    96    40    41    1
    97    81    80    1
    98    78    77    1
    99   127   125   ar
   100   109   111   am
   101   109   110    2
   102   111   112    1
   103    38    39    2
   104    46    43    1
   105    42    43    1
   106    77    80    1
   107    77    76    1
   108   125   126   ar
   109   125   124    1
   110    43    44    1
   111   115   112    1
   112   112   113    1
   113   124   121    1
   114   116   113   am
   115   116   117    1
   116    44    45    2
   117   113   114    2
   118   120   121    1
   119   120   118   am
   120   117   118    1
   121   121   122    1
   122   118   119    2
   123   122   123    2
