@<TRIPOS>MOLECULE
tmp/3pl3A03.pdb
 241 233 0 0 0
SMALL
GASTEIGER

@<TRIPOS>ATOM
      1  N        -27.5550   31.2250   -6.3840 N.3   169  ASP169     -0.1239
      2  CA       -26.7170   30.2910   -5.6400 C.3   169  ASP169      0.1674
      3  C        -25.8890   31.0650   -4.6280 C.2   169  ASP169      0.2266
      4  O        -26.0770   32.2710   -4.4530 O.2   169  ASP169     -0.2867
      5  CB       -25.9240   29.3380   -6.5610 C.3   169  ASP169      0.1410
      6  CG       -24.7570   29.9760   -7.2940 C.2   169  ASP169      0.3668
      7  OD1      -24.2040   30.9760   -6.8180 O.co2 169  ASP169     -0.2456
      8  OD2      -24.3500   29.4260   -8.3520 O.co2 169  ASP169     -0.2456
      9  N        -22.8980   32.0050   -4.5100 N.3   171  GLN171     -0.1245
     10  CA       -21.9820   33.0080   -5.0370 C.3   171  GLN171      0.1566
     11  C        -22.6720   34.3320   -5.3210 C.2   171  GLN171      0.2260
     12  O        -22.0120   35.2860   -5.7210 O.2   171  GLN171     -0.2867
     13  CB       -21.3040   32.5090   -6.3230 C.3   171  GLN171      0.0367
     14  CG       -20.5230   31.2030   -6.1510 C.3   171  GLN171      0.0905
     15  CD       -19.4500   31.2300   -5.0700 C.2   171  GLN171      0.2608
     16  OE1      -18.7610   32.2270   -4.8970 O.2   171  GLN171     -0.2717
     17  NE2      -19.2870   30.1140   -4.3660 N.am  171  GLN171     -0.0878
     18  N        -27.2270   26.9670   -1.0000 N.3   208  GLU208     -0.1245
     19  CA       -26.8780   25.9840   -1.9870 C.3   208  GLU208      0.1567
     20  C        -26.3380   24.7490   -1.2800 C.2   208  GLU208      0.2260
     21  O        -25.4360   24.8610   -0.4520 O.2   208  GLU208     -0.2867
     22  CB       -25.8050   26.6090   -2.8920 C.3   208  GLU208      0.0388
     23  CG       -25.1950   25.7370   -3.9150 C.3   208  GLU208      0.1160
     24  CD       -24.2110   26.4620   -4.7910 C.2   208  GLU208      0.3649
     25  OE1      -23.8850   27.6860   -4.5840 O.co2 208  GLU208     -0.2457
     26  OE2      -23.7810   25.7910   -5.7280 O.co2 208  GLU208     -0.2457
     27  N        -24.3270   21.7240   -2.3600 N.3   210  ASP210     -0.1239
     28  CA       -23.5760   21.1100   -3.4390 C.3   210  ASP210      0.1674
     29  C        -23.3470   19.6420   -3.1380 C.2   210  ASP210      0.2266
     30  O        -22.3300   19.2540   -2.5740 O.2   210  ASP210     -0.2867
     31  CB       -22.2660   21.8330   -3.7170 C.3   210  ASP210      0.1410
     32  CG       -22.4990   23.2200   -4.2430 C.2   210  ASP210      0.3668
     33  OD1      -23.3420   23.3370   -5.1850 O.co2 210  ASP210     -0.2456
     34  OD2      -21.8830   24.1920   -3.7710 O.co2 210  ASP210     -0.2456
     35  N        -19.8670   17.9000   -6.8510 N.3   213  GLU213     -0.1245
     36  CA       -19.0510   18.6530   -7.8020 C.3   213  GLU213      0.1567
     37  C        -17.8600   17.7650   -8.0730 C.2   213  GLU213      0.2260
     38  O        -17.1620   17.3890   -7.1330 O.2   213  GLU213     -0.2867
     39  CB       -18.6140   19.9870   -7.2060 C.3   213  GLU213      0.0388
     40  CG       -19.7860   20.9400   -7.0190 C.3   213  GLU213      0.1160
     41  CD       -19.3350   22.2840   -6.5710 C.2   213  GLU213      0.3649
     42  OE1      -19.2060   22.5130   -5.3480 O.co2 213  GLU213     -0.2457
     43  OE2      -19.0370   23.1160   -7.4570 O.co2 213  GLU213     -0.2457
     44  N        -20.4860   19.9170   -0.4760 N.3   222  THR222     -0.1218
     45  CA       -20.3090   21.2030    0.1830 C.3   222  THR222      0.1862
     46  C        -21.6450   21.9420    0.3910 C.2   222  THR222      0.2287
     47  O        -22.1890   22.5050   -0.5580 O.2   222  THR222     -0.2866
     48  CB       -19.4210   22.1370   -0.6730 C.3   222  THR222      0.1770
     49  OG1      -18.2750   21.4200   -1.1260 O.3   222  THR222     -0.2211
     50  CG2      -18.9620   23.3080    0.1410 C.3   222  THR222      0.0375
     51  N        -23.4840   25.3810    1.5010 N.3   224  HIS224     -0.1241
     52  CA       -23.1850   26.8180    1.5690 C.3   224  HIS224      0.1621
     53  C        -24.4440   27.5480    2.0700 C.2   224  HIS224      0.2264
     54  O        -25.4030   27.7140    1.3340 O.2   224  HIS224     -0.2867
     55  CB       -22.9020   27.4160    0.2050 C.3   224  HIS224      0.0745
     56  CG       -21.7040   26.9070   -0.5230 C.ar  224  HIS224      0.0817
     57  ND1      -20.6170   27.7090   -0.7640 N.ar  224  HIS224     -0.2268
     58  CD2      -21.4750   25.7570   -1.2030 C.ar  224  HIS224      0.1154
     59  CE1      -19.7550   27.0660   -1.5270 C.ar  224  HIS224      0.1986
     60  NE2      -20.2500   25.8720   -1.8040 N.ar  224  HIS224     -0.2212
     61  N        -17.6690   34.9710   -5.9010 N.3   242  THR242     -0.1203
     62  CA       -16.4640   34.8250   -6.7030 C.3   242  THR242      0.1994
     63  C        -16.1110   36.0410   -7.5760 C.2   242  THR242      0.2617
     64  O        -14.9320   36.3130   -7.7960 O.2   242  THR242     -0.2717
     65  CB       -16.5610   33.5590   -7.5810 C.3   242  THR242      0.1784
     66  OG1      -16.5570   32.3950   -6.7420 O.3   242  THR242     -0.2211
     67  CG2      -15.3980   33.4870   -8.5400 C.3   242  THR242      0.0376
     68  N        -17.1110   36.7820   -8.0520 N.am  243  TYR243     -0.1975
     69  CA       -16.8660   37.8620   -9.0190 C.3   243  TYR243      0.1639
     70  C        -17.0760   39.2780   -8.4970 C.2   243  TYR243      0.2290
     71  O        -17.1370   40.2310   -9.2750 O.2   243  TYR243     -0.2864
     72  CB       -17.7150   37.6640  -10.2700 C.3   243  TYR243      0.0560
     73  CG       -17.1760   36.5800  -11.1600 C.ar  243  TYR243     -0.0198
     74  CD1      -16.1600   36.8470  -12.0680 C.ar  243  TYR243     -0.0009
     75  CD2      -17.6600   35.2850  -11.0770 C.ar  243  TYR243     -0.0009
     76  CE1      -15.6520   35.8540  -12.8780 C.ar  243  TYR243      0.0417
     77  CE2      -17.1620   34.2870  -11.8800 C.ar  243  TYR243      0.0417
     78  CZ       -16.1570   34.5750  -12.7800 C.ar  243  TYR243      0.1957
     79  OH       -15.6590   33.5810  -13.5850 O.3   243  TYR243     -0.2866
     80  N        -14.8700   38.3210   -2.0480 N.3   247  ARG247     -0.1231
     81  CA       -15.8140   37.2120   -2.0430 C.3   247  ARG247      0.1694
     82  C        -16.5550   37.1310   -0.7040 C.2   247  ARG247      0.2592
     83  O        -17.6000   36.5090   -0.6540 O.2   247  ARG247     -0.2718
     84  CB       -15.1190   35.8690   -2.3670 C.3   247  ARG247      0.0321
     85  CG       -14.2340   35.3840   -1.2670 C.3   247  ARG247      0.0489
     86  CD       -13.2840   34.2720   -1.6900 C.3   247  ARG247      0.2205
     87  NE       -13.9100   32.9620   -1.8220 N.pl3 247  ARG247     -0.0865
     88  CZ       -14.2950   32.4180   -2.9660 C.cat 247  ARG247      0.5346
     89  NH1      -14.1330   33.0740   -4.1090 N.pl3 247  ARG247      0.1354
     90  NH2      -14.8410   31.2220   -2.9560 N.pl3 247  ARG247      0.1354
     91  N        -16.0030   37.7380    0.3600 N.am  248  TYR248     -0.1976
     92  CA       -16.6180   37.6560    1.7070 C.3   248  TYR248      0.1639
     93  C        -17.4490   38.8750    2.0860 C.2   248  TYR248      0.2290
     94  O        -17.8650   38.9850    3.2300 O.2   248  TYR248     -0.2864
     95  CB       -15.5620   37.4160    2.8050 C.3   248  TYR248      0.0560
     96  CG       -14.7470   36.1790    2.5260 C.ar  248  TYR248     -0.0198
     97  CD1      -15.3240   34.9040    2.5720 C.ar  248  TYR248     -0.0009
     98  CD2      -13.4110   36.2750    2.1780 C.ar  248  TYR248     -0.0009
     99  CE1      -14.5830   33.7830    2.2810 C.ar  248  TYR248      0.0417
    100  CE2      -12.6680   35.1610    1.9020 C.ar  248  TYR248      0.0417
    101  CZ       -13.2580   33.9210    1.9500 C.ar  248  TYR248      0.1957
    102  OH       -12.5010   32.8260    1.6230 O.3   248  TYR248     -0.2866
    103  N        -19.2830   31.8110    0.3370 N.3   254  PRO254     -0.2102
    104  CA       -18.8450   31.3710   -0.9900 C.3   254  PRO254      0.1504
    105  C        -17.9540   30.1350   -0.9600 C.2   254  PRO254      0.2575
    106  O        -17.6950   29.5340   -1.9900 O.2   254  PRO254     -0.2718
    107  CB       -18.0510   32.5820   -1.4770 C.3   254  PRO254      0.0282
    108  CG       -17.3920   33.1100   -0.2320 C.3   254  PRO254      0.0208
    109  CD       -18.4510   32.9200    0.8580 C.3   254  PRO254      0.0893
    110  N        -17.4510   29.7580    0.2070 N.am  255  ASP255     -0.1974
    111  CA       -16.4910   28.6550    0.3130 C.3   255  ASP255      0.1708
    112  C        -17.1690   27.3500    0.7130 C.2   255  ASP255      0.2293
    113  O        -16.8560   26.2820    0.1530 O.2   255  ASP255     -0.2864
    114  CB       -15.4010   28.9750    1.3290 C.3   255  ASP255      0.1436
    115  CG       -14.5260   30.1530    0.9430 C.2   255  ASP255      0.3671
    116  OD1      -14.6050   30.6590   -0.1950 O.co2 255  ASP255     -0.2456
    117  OD2      -13.7300   30.5500    1.8120 O.co2 255  ASP255     -0.2456
    118  N        -16.6710   21.9200    3.0350 N.3   258  ASP258     -0.1239
    119  CA       -16.4740   20.9060    2.0190 C.3   258  ASP258      0.1674
    120  C        -15.8540   19.6300    2.5560 C.2   258  ASP258      0.2266
    121  O        -14.9850   19.6610    3.4310 O.2   258  ASP258     -0.2867
    122  CB       -15.5870   21.4520    0.8950 C.3   258  ASP258      0.1410
    123  CG       -14.1970   21.8480    1.3740 C.2   258  ASP258      0.3668
    124  OD1      -14.1200   22.7400    2.2590 O.co2 258  ASP258     -0.2456
    125  OD2      -13.1870   21.3040    0.8350 O.co2 258  ASP258     -0.2456
    126  N         -8.5800   15.9770   -0.5250 N.3   263  ARG263     -0.1245
    127  CA        -8.2280   17.1100    0.3280 C.3   263  ARG263      0.1563
    128  C         -8.2200   16.7260    1.8020 C.2   263  ARG263      0.2260
    129  O         -7.4570   17.2660    2.6040 O.2   263  ARG263     -0.2867
    130  CB        -9.1830   18.2750    0.0800 C.3   263  ARG263      0.0307
    131  CG        -8.7080   19.5730    0.6600 C.3   263  ARG263      0.0489
    132  CD        -9.7210   20.7150    0.5000 C.3   263  ARG263      0.2205
    133  NE        -9.1090   21.9520    0.9500 N.pl3 263  ARG263     -0.0865
    134  CZ        -9.7020   22.9110    1.6410 C.cat 263  ARG263      0.5346
    135  NH1      -11.0020   22.8720    1.8950 N.pl3 263  ARG263      0.1354
    136  NH2       -8.9900   23.9360    2.0590 N.pl3 263  ARG263      0.1354
    137  N        -11.8860   24.0070    9.1610 N.3   337  LYS337     -0.1245
    138  CA       -11.4860   25.3630    8.8660 C.3   337  LYS337      0.1561
    139  C        -10.2550   25.7150    9.7020 C.2   337  LYS337      0.2260
    140  O         -9.3130   26.3360    9.2160 O.2   337  LYS337     -0.2867
    141  CB       -12.6360   26.3470    9.1400 C.3   337  LYS337      0.0271
    142  CG       -13.8180   26.1800    8.1800 C.3   337  LYS337      0.0035
    143  CD       -13.4780   26.5110    6.7300 C.3   337  LYS337      0.0206
    144  CE       -14.6450   26.2840    5.8060 C.3   337  LYS337      0.1093
    145  NZ       -14.2810   26.4950    4.3660 N.3   337  LYS337     -0.1314
    146  N         -8.4430   28.2070    6.9970 N.3   342  ASP342     -0.1239
    147  CA        -9.4030   28.8750    6.1320 C.3   342  ASP342      0.1674
    148  C        -10.4390   29.6170    6.9810 C.2   342  ASP342      0.2266
    149  O        -10.8420   29.1510    8.0510 O.2   342  ASP342     -0.2867
    150  CB       -10.1540   27.8520    5.2680 C.3   342  ASP342      0.1410
    151  CG        -9.2860   27.1500    4.2440 C.2   342  ASP342      0.3668
    152  OD1       -8.0940   27.4980    4.0630 O.co2 342  ASP342     -0.2456
    153  OD2       -9.8390   26.2290    3.5990 O.co2 342  ASP342     -0.2456
    154  N        -19.4880   22.4620  -16.4200 N.3   370  TRP370     -0.1241
    155  CA       -18.8480   23.7560  -16.6220 C.3   370  TRP370      0.1605
    156  C        -17.3310   23.6690  -16.4930 C.2   370  TRP370      0.2264
    157  O        -16.7880   22.7430  -15.8870 O.2   370  TRP370     -0.2867
    158  CB       -19.4190   24.8180  -15.6700 C.3   370  TRP370      0.0550
    159  CG       -19.3420   24.5440  -14.1820 C.ar  370  TRP370      0.0003
    160  CD1      -20.0800   23.6450  -13.4650 C.ar  370  TRP370      0.0946
    161  CD2      -18.5390   25.2450  -13.2260 C.ar  370  TRP370      0.0152
    162  NE1      -19.7660   23.7340  -12.1340 N.ar  370  TRP370     -0.2442
    163  CE2      -18.8370   24.7150  -11.9590 C.ar  370  TRP370      0.0810
    164  CE3      -17.6270   26.2970  -13.3160 C.ar  370  TRP370      0.0012
    165  CZ2      -18.2460   25.1930  -10.7960 C.ar  370  TRP370      0.0191
    166  CZ3      -17.0440   26.7600  -12.1710 C.ar  370  TRP370      0.0001
    167  CH2      -17.3480   26.2000  -10.9300 C.ar  370  TRP370      0.0015
    168  N        -14.0580   26.7640  -15.7180 N.3   372  ASP372     -0.1225
    169  CA       -13.9610   27.7390  -14.6530 C.3   372  ASP372      0.1805
    170  C        -12.9950   28.8170  -15.1260 C.2   372  ASP372      0.2598
    171  O        -11.7570   28.6640  -15.1090 O.2   372  ASP372     -0.2718
    172  CB       -13.4770   27.0500  -13.3660 C.3   372  ASP372      0.1424
    173  CG       -13.3140   27.9770  -12.1800 C.2   372  ASP372      0.3668
    174  OD1      -12.9070   27.4780  -11.1000 O.co2 372  ASP372     -0.2456
    175  OD2      -13.5630   29.1950  -12.3100 O.co2 372  ASP372     -0.2456
    176  N        -13.5680   29.9470  -15.5120 N.am  373  TYR373     -0.1962
    177  CA       -12.7480   31.0490  -15.9500 C.3   373  TYR373      0.1771
    178  C        -12.0250   31.7440  -14.7910 C.2   373  TYR373      0.2619
    179  O        -11.0140   32.3700  -14.9840 O.2   373  TYR373     -0.2715
    180  CB       -13.6020   32.0720  -16.6880 C.3   373  TYR373      0.0574
    181  CG       -13.6640   31.8120  -18.1580 C.ar  373  TYR373     -0.0198
    182  CD1      -14.6140   30.9740  -18.6890 C.ar  373  TYR373     -0.0009
    183  CD2      -12.7340   32.3840  -19.0110 C.ar  373  TYR373     -0.0009
    184  CE1      -14.6550   30.7290  -20.0630 C.ar  373  TYR373      0.0417
    185  CE2      -12.7690   32.1510  -20.3600 C.ar  373  TYR373      0.0417
    186  CZ       -13.7300   31.3320  -20.8820 C.ar  373  TYR373      0.1957
    187  OH       -13.7370   31.1280  -22.2420 O.3   373  TYR373     -0.2866
    188  N        -12.5370   31.6280  -13.5860 N.am  374  ALA374     -0.1963
    189  CA       -11.9470   32.3390  -12.4610 C.3   374  ALA374      0.1728
    190  C        -10.7410   31.6060  -11.8770 C.2   374  ALA374      0.2616
    191  O         -9.7270   32.2060  -11.5530 O.2   374  ALA374     -0.2715
    192  CB       -13.0000   32.5550  -11.3760 C.3   374  ALA374      0.0334
    193  N        -10.8590   30.2940  -11.7360 N.am  375  ALA375     -0.1977
    194  CA        -9.8890   29.5460  -10.9630 C.3   375  ALA375      0.1597
    195  C         -9.5670   28.1810  -11.5480 C.2   375  ALA375      0.2287
    196  O         -8.8970   27.4030  -10.8860 O.2   375  ALA375     -0.2864
    197  CB       -10.3560   29.3990   -9.5000 C.3   375  ALA375      0.0319
    198  N         -9.2910   24.5290   -7.3330 N.3   379  TRP379     -0.1241
    199  CA        -9.8080   24.3120   -6.0040 C.3   379  TRP379      0.1605
    200  C        -10.4050   22.9230   -5.8180 C.2   379  TRP379      0.2264
    201  O        -10.4950   22.4360   -4.6930 O.2   379  TRP379     -0.2867
    202  CB       -10.8610   25.3770   -5.6940 C.3   379  TRP379      0.0550
    203  CG       -11.9940   25.3570   -6.6600 C.ar  379  TRP379      0.0003
    204  CD1      -12.0960   26.0560   -7.8410 C.ar  379  TRP379      0.0946
    205  CD2      -13.1840   24.5770   -6.5550 C.ar  379  TRP379      0.0152
    206  NE1      -13.2650   25.7440   -8.4740 N.ar  379  TRP379     -0.2442
    207  CE2      -13.9600   24.8430   -7.7020 C.ar  379  TRP379      0.0810
    208  CE3      -13.6770   23.7050   -5.5800 C.ar  379  TRP379      0.0012
    209  CZ2      -15.2000   24.2590   -7.9120 C.ar  379  TRP379      0.0191
    210  CZ3      -14.9040   23.1180   -5.7950 C.ar  379  TRP379      0.0001
    211  CH2      -15.6550   23.4080   -6.9520 C.ar  379  TRP379      0.0015
    212  N         -4.1330   24.3950   -4.4190 N.3   384  TYR384     -0.1228
    213  CA        -4.7630   25.6980   -4.3790 C.3   384  TYR384      0.1721
    214  C         -4.7290   26.2710   -2.9720 C.2   384  TYR384      0.2437
    215  O         -5.0610   25.5780   -2.0300 O.2   384  TYR384     -0.2733
    216  CB        -6.2100   25.5650   -4.8410 C.3   384  TYR384      0.0547
    217  CG        -6.9100   26.8520   -5.1010 C.ar  384  TYR384     -0.0200
    218  CD1       -6.6550   27.5790   -6.2670 C.ar  384  TYR384     -0.0009
    219  CD2       -7.8780   27.3270   -4.2330 C.ar  384  TYR384     -0.0009
    220  CE1       -7.3360   28.7550   -6.5410 C.ar  384  TYR384      0.0417
    221  CE2       -8.5530   28.4990   -4.4970 C.ar  384  TYR384      0.0417
    222  CZ        -8.2780   29.2030   -5.6480 C.ar  384  TYR384      0.1957
    223  OH        -8.9570   30.3710   -5.9050 O.3   384  TYR384     -0.2866
    224  N         -4.3370   27.5400   -2.8330 N.am  385  PRO385     -0.2729
    225  CA        -3.7880   28.4290   -3.8470 C.3   385  PRO385      0.1401
    226  C         -2.4580   27.9270   -4.3920 C.2   385  PRO385      0.2269
    227  O         -1.7670   27.1150   -3.7800 O.2   385  PRO385     -0.2865
    228  CB        -3.5560   29.7340   -3.0670 C.3   385  PRO385      0.0296
    229  CG        -4.3630   29.6010   -1.8350 C.3   385  PRO385      0.0237
    230  CD        -4.3210   28.1790   -1.5070 C.3   385  PRO385      0.0939
    231  N         -5.8760   19.0920   -3.5490 N.3   397  ARG397     -0.1245
    232  CA        -7.2550   18.6370   -3.7200 C.3   397  ARG397      0.1563
    233  C         -7.4110   17.5930   -4.8120 C.2   397  ARG397      0.2260
    234  O         -8.4410   16.9220   -4.8550 O.2   397  ARG397     -0.2867
    235  CB        -8.1670   19.8280   -4.0210 C.3   397  ARG397      0.0307
    236  CG        -8.1420   20.8900   -2.9300 C.3   397  ARG397      0.0489
    237  CD        -7.5220   22.1840   -3.4250 C.3   397  ARG397      0.2205
    238  NE        -7.3330   23.1730   -2.3710 N.pl3 397  ARG397     -0.0865
    239  CZ        -8.2850   23.9620   -1.8910 C.cat 397  ARG397      0.5346
    240  NH1       -9.5220   23.9110   -2.3630 N.pl3 397  ARG397      0.1354
    241  NH2       -7.9900   24.8160   -0.9250 N.pl3 397  ARG397      0.1354
@<TRIPOS>BOND
     1   187   186    1
     2   186   185   ar
     3   186   184   ar
     4   185   183   ar
     5   184   182   ar
     6   183   181   ar
     7   182   181   ar
     8   181   180    1
     9   180   177    1
    10   155   156    1
    11   155   154    1
    12   155   158    1
    13   156   157    2
    14   177   176    1
    15   177   178    1
    16   168   169    1
    17   158   159    1
    18   176   170   am
    19   170   171    2
    20   170   169    1
    21   179   178    2
    22   178   188   am
    23   169   172    1
    24   159   160   ar
    25   159   161   ar
    26   188   189    1
    27    79    78    1
    28   160   162   ar
    29   172   173    1
    30   164   161   ar
    31   164   166   ar
    32   161   163   ar
    33    76    78   ar
    34    76    74   ar
    35    78    77   ar
    36   189   190    1
    37   189   192    1
    38   175   173   ar
    39   173   174   ar
    40   166   167   ar
    41   162   163   ar
    42    74    73   ar
    43   163   165   ar
    44    77    75   ar
    45   190   193   am
    46   190   191    2
    47   193   194    1
    48   195   194    1
    49   195   196    2
    50    73    75   ar
    51    73    72    1
    52   194   197    1
    53   167   165   ar
    54    72    69    1
    55    71    70    2
    56    69    70    1
    57    69    68    1
    58    67    65    1
    59   206   204   ar
    60   206   207   ar
    61     8     6   ar
    62    37    36    1
    63    37    38    2
    64    68    63   am
    65   209   207   ar
    66   209   211   ar
    67   204   203   ar
    68    36    39    1
    69    36    35    1
    70    64    63    2
    71   207   205   ar
    72    65    66    1
    73    65    62    1
    74    63    62    1
    75    43    41   ar
    76   198   199    1
    77     6     7   ar
    78     6     5    1
    79    39    40    1
    80    40    41    1
    81   211   210   ar
    82    62    61    1
    83   203   205   ar
    84   203   202    1
    85    41    42   ar
    86     5     2    1
    87   205   208   ar
    88   220   218   ar
    89   220   222   ar
    90     1     2    1
    91    13    14    1
    92    13    10    1
    93   218   217   ar
    94    14    15    1
    95   199   200    1
    96   199   202    1
    97   223   222    1
    98   200   201    2
    99   210   208   ar
   100    26    24   ar
   101    12    11    2
   102   222   221   ar
   103     2     3    1
   104    11    10    1
   105    33    32   ar
   106   217   216    1
   107   217   219   ar
   108    15    16    2
   109    15    17   am
   110    10     9    1
   111   234   233    2
   112   216   213    1
   113   233   232    1
   114    24    25   ar
   115    24    23    1
   116     3     4    2
   117   221   219   ar
   118   212   213    1
   119   226   225    1
   120   226   227    2
   121   213   214    1
   122    32    34   ar
   123    32    31    1
   124    89    88    1
   125   235   232    1
   126   235   236    1
   127    23    22    1
   128   225   228    1
   129   225   224    1
   130   232   231    1
   131    31    28    1
   132    28    29    1
   133    28    27    1
   134   237   236    1
   135   237   238    1
   136    29    30    2
   137   228   229    1
   138   214   224   am
   139   214   215    2
   140    88    90    1
   141    88    87    2
   142    22    19    1
   143   224   230    1
   144   238   239    2
   145    84    81    1
   146    84    85    1
   147   240   239    1
   148    80    81    1
   149    81    82    1
   150   106   105    2
   151    19    20    1
   152    19    18    1
   153   239   241    1
   154   229   230    1
   155    87    86    1
   156    60    59   ar
   157    60    58   ar
   158    86    85    1
   159    59    57   ar
   160   107   104    1
   161   107   108    1
   162    20    21    2
   163    58    56   ar
   164    49    48    1
   165   104   105    1
   166   104   103    1
   167   105   110   am
   168    57    56   ar
   169    82    83    2
   170    82    91   am
   171    48    50    1
   172    48    45    1
   173    47    46    2
   174   126   127    1
   175    56    55    1
   176    44    45    1
   177   108   109    1
   178   116   115   ar
   179   130   127    1
   180   130   131    1
   181   113   112    2
   182    45    46    1
   183    55    52    1
   184   110   111    1
   185   111   112    1
   186   111   114    1
   187   127   128    1
   188   103   109    1
   189    91    92    1
   190   132   131    1
   191   132   133    1
   192   125   123   ar
   193   122   123    1
   194   122   119    1
   195   115   114    1
   196   115   117   ar
   197   133   134    2
   198    54    53    2
   199   123   124   ar
   200    51    52    1
   201    52    53    1
   202   102   101    1
   203   134   135    1
   204   134   136    1
   205    92    93    1
   206    92    95    1
   207   128   129    2
   208   100   101   ar
   209   100    98   ar
   210   101    99   ar
   211   119   120    1
   212   119   118    1
   213    93    94    2
   214    98    96   ar
   215    99    97   ar
   216    96    97   ar
   217    96    95    1
   218   120   121    2
   219   153   151   ar
   220   152   151   ar
   221   151   150    1
   222   145   144    1
   223   150   147    1
   224   144   143    1
   225   147   148    1
   226   147   146    1
   227   143   142    1
   228   148   149    2
   229   142   141    1
   230   138   141    1
   231   138   137    1
   232   138   139    1
   233   140   139    2
