@<TRIPOS>MOLECULE
tmp/3pl3A00.pdb
 91 90 0 0 0
SMALL
GASTEIGER

@<TRIPOS>ATOM
      1  N         -7.1550   13.9600    2.9220 N.3   265  GLY265     -0.1210
      2  CA        -5.9730   13.1670    3.1930 C.3   265  GLY265      0.1956
      3  C         -6.0250   11.7150    2.7740 C.2   265  GLY265      0.2612
      4  O         -5.1960   10.9310    3.2150 O.2   265  GLY265     -0.2717
      5  N         -6.9770   11.3490    1.9220 N.am  266  ASN266     -0.1960
      6  CA        -7.0240   10.0030    1.3580 C.3   266  ASN266      0.1819
      7  C         -7.0290   10.0800   -0.1610 C.2   266  ASN266      0.2622
      8  O         -8.0580   10.2970   -0.7790 O.2   266  ASN266     -0.2715
      9  CB        -8.2310    9.2280    1.8750 C.3   266  ASN266      0.1195
     10  CG        -8.1530    7.7530    1.5590 C.2   266  ASN266      0.2630
     11  OD1       -7.7370    7.3570    0.4630 O.2   266  ASN266     -0.2716
     12  ND2       -8.5320    6.9240    2.5460 N.am  266  ASN266     -0.0877
     13  N         -5.8440    9.9460   -0.7460 N.am  267  THR267     -0.1937
     14  CA        -5.6980   10.0630   -2.1930 C.3   267  THR267      0.2028
     15  C         -5.9940    8.7500   -2.9120 C.2   267  THR267      0.2643
     16  O         -6.1020    8.7370   -4.1240 O.2   267  THR267     -0.2714
     17  CB        -4.2970   10.5370   -2.5900 C.3   267  THR267      0.1808
     18  OG1       -3.3490    9.5390   -2.2100 O.3   267  THR267     -0.2208
     19  CG2       -3.9280   11.8560   -1.9100 C.3   267  THR267      0.0379
     20  N         -6.1360    7.6630   -2.1620 N.am  268  SER268     -0.1935
     21  CA        -6.3740    6.3720   -2.7940 C.3   268  SER268      0.2055
     22  C         -7.8620    6.0640   -2.9570 C.2   268  SER268      0.2643
     23  O         -8.2060    5.0580   -3.5670 O.2   268  SER268     -0.2714
     24  CB        -5.6920    5.2500   -2.0050 C.3   268  SER268      0.2130
     25  OG        -6.3460    5.0200   -0.7740 O.3   268  SER268     -0.2179
     26  N         -8.7280    6.9210   -2.4190 N.am  269  PHE269     -0.1973
     27  CA       -10.1430    6.5860   -2.3850 C.3   269  PHE269      0.1639
     28  C        -10.8650    6.7650   -3.7190 C.2   269  PHE269      0.2290
     29  O        -11.5820    5.8700   -4.1580 O.2   269  PHE269     -0.2864
     30  CB       -10.8850    7.3810   -1.3200 C.3   269  PHE269      0.0560
     31  CG       -12.3180    7.0050   -1.2270 C.ar  269  PHE269     -0.0200
     32  CD1      -12.6670    5.7900   -0.6670 C.ar  269  PHE269     -0.0042
     33  CD2      -13.3150    7.8050   -1.7680 C.ar  269  PHE269     -0.0042
     34  CE1      -13.9880    5.3970   -0.5940 C.ar  269  PHE269     -0.0003
     35  CE2      -14.6350    7.4120   -1.7050 C.ar  269  PHE269     -0.0003
     36  CZ       -14.9670    6.1960   -1.1320 C.ar  269  PHE269     -0.0000
     37  N        -10.4920    3.1920   -5.2030 N.3   275  ILE275     -0.1245
     38  CA       -11.5040    2.4000   -4.5080 C.3   275  ILE275      0.1561
     39  C        -12.8840    2.6310   -5.1170 C.2   275  ILE275      0.2260
     40  O        -13.6260    1.6730   -5.3340 O.2   275  ILE275     -0.2867
     41  CB       -11.4720    2.6820   -2.9930 C.3   275  ILE275      0.0252
     42  CG1      -10.1880    2.1080   -2.4080 C.3   275  ILE275      0.0019
     43  CG2      -12.6970    2.1210   -2.2990 C.3   275  ILE275      0.0019
     44  CD1       -9.9370    2.4880   -0.9660 C.3   275  ILE275      0.0001
     45  N        -19.9080    1.4400   -0.1350 N.3   313  ILE313     -0.1231
     46  CA       -18.6380    1.9230    0.3680 C.3   313  ILE313      0.1678
     47  C        -18.8490    3.2860    1.0050 C.2   313  ILE313      0.2434
     48  O        -19.1470    4.2520    0.3180 O.2   313  ILE313     -0.2733
     49  CB       -17.5950    2.0140   -0.7630 C.3   313  ILE313      0.0265
     50  CG1      -17.3910    0.6280   -1.3850 C.3   313  ILE313      0.0019
     51  CG2      -16.2840    2.5610   -0.2330 C.3   313  ILE313      0.0020
     52  CD1      -16.5560    0.6250   -2.6440 C.3   313  ILE313      0.0001
     53  N        -18.6790    3.3960    2.3240 N.am  314  PRO314     -0.2718
     54  CA       -18.8330    4.7170    2.9420 C.3   314  PRO314      0.1535
     55  C        -17.7440    5.6720    2.5040 C.2   314  PRO314      0.2598
     56  O        -16.6390    5.2690    2.1650 O.2   314  PRO314     -0.2715
     57  CB       -18.7110    4.4310    4.4450 C.3   314  PRO314      0.0310
     58  CG       -18.9520    2.9590    4.5950 C.3   314  PRO314      0.0237
     59  CD       -18.4580    2.3300    3.3200 C.3   314  PRO314      0.0939
     60  N        -18.0360    6.9610    2.5870 N.am  315  GLN315     -0.1964
     61  CA       -17.0160    7.9890    2.4860 C.3   315  GLN315      0.1718
     62  C        -15.8520    7.6190    3.4120 C.2   315  GLN315      0.2458
     63  O        -16.0730    7.1830    4.5340 O.2   315  GLN315     -0.2730
     64  CB       -17.6200    9.3210    2.9530 C.3   315  GLN315      0.0407
     65  CG       -16.7390   10.5670    2.8110 C.3   315  GLN315      0.0908
     66  CD       -16.7870   11.1450    1.4320 C.2   315  GLN315      0.2608
     67  OE1      -16.2700   10.5610    0.4890 O.2   315  GLN315     -0.2717
     68  NE2      -17.4440   12.2850    1.3070 N.am  315  GLN315     -0.0878
     69  N        -14.6030    7.8040    2.9740 N.am  316  PRO316     -0.2716
     70  CA       -13.4850    7.5380    3.8850 C.3   316  PRO316      0.1536
     71  C        -13.4430    8.5640    5.0090 C.2   316  PRO316      0.2598
     72  O        -13.9000    9.6960    4.8940 O.2   316  PRO316     -0.2715
     73  CB       -12.2590    7.6880    2.9840 C.3   316  PRO316      0.0310
     74  CG       -12.6960    8.6910    1.9530 C.3   316  PRO316      0.0237
     75  CD       -14.1330    8.3070    1.6660 C.3   316  PRO316      0.0939
     76  N        -12.8580    8.1510    6.1190 N.am  317  ASN317     -0.1973
     77  CA       -12.5970    9.0860    7.1850 C.3   317  ASN317      0.1688
     78  C        -11.5330   10.1220    6.7890 C.2   317  ASN317      0.2292
     79  O        -10.6100    9.8350    6.0380 O.2   317  ASN317     -0.2864
     80  CB       -12.1410    8.3400    8.4290 C.3   317  ASN317      0.1181
     81  CG       -13.2690    7.5610    9.1000 C.2   317  ASN317      0.2629
     82  OD1      -14.4480    7.7160    8.7990 O.2   317  ASN317     -0.2716
     83  ND2      -12.8990    6.7080   10.0100 N.am  317  ASN317     -0.0877
     84  N         -8.1910   12.0570    7.2760 N.3   319  ASP319     -0.1239
     85  CA        -6.8830   11.8020    7.8460 C.3   319  ASP319      0.1674
     86  C         -6.1500   13.1150    8.0680 C.2   319  ASP319      0.2266
     87  O         -4.9360   13.1470    8.0850 O.2   319  ASP319     -0.2867
     88  CB        -6.0560   10.8860    6.9430 C.3   319  ASP319      0.1410
     89  CG        -4.8750   10.2690    7.6660 C.2   319  ASP319      0.3668
     90  OD1       -4.9600   10.0530    8.8970 O.co2 319  ASP319     -0.2456
     91  OD2       -3.8600    9.9970    7.0040 O.co2 319  ASP319     -0.2456
@<TRIPOS>BOND
     1    40    39    2
     2    37    38    1
     3    39    38    1
     4    38    41    1
     5    29    28    2
     6    16    15    2
     7    28    27    1
     8    23    22    2
     9    41    42    1
    10    41    43    1
    11    22    21    1
    12    22    26   am
    13    15    14    1
    14    15    20   am
    15    21    20    1
    16    21    24    1
    17    52    50    1
    18    17    18    1
    19    17    14    1
    20    17    19    1
    21    26    27    1
    22    42    44    1
    23    27    30    1
    24    14    13    1
    25    24    25    1
    26    33    35   ar
    27    33    31   ar
    28    35    36   ar
    29    50    49    1
    30    30    31    1
    31    31    32   ar
    32    36    34   ar
    33     8     7    2
    34    49    51    1
    35    49    46    1
    36    13     7   am
    37    32    34   ar
    38     7     6    1
    39    45    46    1
    40    48    47    2
    41    46    47    1
    42    11    10    2
    43    67    66    2
    44    47    53   am
    45    68    66   am
    46     6     9    1
    47     6     5    1
    48    66    65    1
    49    10     9    1
    50    10    12   am
    51    75    74    1
    52    75    69    1
    53     5     3   am
    54    74    73    1
    55    56    55    2
    56    53    54    1
    57    53    59    1
    58    61    60    1
    59    61    64    1
    60    61    62    1
    61    55    60   am
    62    55    54    1
    63     3     2    1
    64     3     4    2
    65    65    64    1
    66     1     2    1
    67    54    57    1
    68    69    62   am
    69    69    70    1
    70    73    70    1
    71    59    58    1
    72    62    63    2
    73    70    71    1
    74    57    58    1
    75    72    71    2
    76    71    76   am
    77    79    78    2
    78    76    77    1
    79    78    77    1
    80    88    89    1
    81    88    85    1
    82    91    89   ar
    83    77    80    1
    84    84    85    1
    85    89    90   ar
    86    85    86    1
    87    86    87    2
    88    80    81    1
    89    82    81    2
    90    81    83   am
