@<TRIPOS>MOLECULE
tmp/3pl5A00.pdb
 187 174 0 0 0
SMALL
GASTEIGER

@<TRIPOS>ATOM
      1  N         -4.1440   21.3710   -7.9890 N.3    27  LEU27      -0.1245
      2  CA        -4.0660   20.6370   -9.2310 C.3    27  LEU27       0.1561
      3  C         -5.0300   21.2330  -10.2890 C.2    27  LEU27       0.2260
      4  O         -5.8170   22.1090   -9.9940 O.2    27  LEU27      -0.2867
      5  CB        -4.3200   19.1300   -8.9640 C.3    27  LEU27       0.0270
      6  CG        -3.2270   18.3070   -8.3050 C.3    27  LEU27       0.0019
      7  CD1       -3.1850   18.4490   -6.7600 C.3    27  LEU27       0.0001
      8  CD2       -3.4390   16.8010   -8.6690 C.3    27  LEU27       0.0001
      9  N         -6.8800   15.0900  -15.5540 N.3    61  THR61      -0.1203
     10  CA        -6.2990   15.9130  -14.4980 C.3    61  THR61       0.1994
     11  C         -4.8140   16.1440  -14.7380 C.2    61  THR61       0.2619
     12  O         -4.1640   15.3690  -15.4680 O.2    61  THR61      -0.2717
     13  CB        -6.4750   15.2690  -13.0910 C.3    61  THR61       0.1784
     14  OG1       -5.7590   14.0550  -13.0300 O.3    61  THR61      -0.2211
     15  CG2       -7.8770   14.9290  -12.8320 C.3    61  THR61       0.0376
     16  N         -4.2780   17.1970  -14.1040 N.am   62  SER62      -0.1937
     17  CA        -2.8510   17.5200  -14.1330 C.3    62  SER62       0.2055
     18  C         -2.2890   17.7680  -12.7280 C.2    62  SER62       0.2642
     19  O         -2.9430   18.3220  -11.8880 O.2    62  SER62      -0.2714
     20  CB        -2.6130   18.7570  -15.0100 C.3    62  SER62       0.2130
     21  OG        -3.0150   18.4530  -16.3600 O.3    62  SER62      -0.2179
     22  N         -1.0520   17.3350  -12.4970 N.am   63  GLN63      -0.1976
     23  CA        -0.3720   17.5690  -11.2310 C.3    63  GLN63       0.1601
     24  C         -0.1550   19.0760  -10.9460 C.2    63  GLN63       0.2287
     25  O         -0.2850   19.9270  -11.8290 O.2    63  GLN63      -0.2864
     26  CB         0.9680   16.8620  -11.2420 C.3    63  GLN63       0.0394
     27  CG         1.8130   17.3430  -12.3300 C.3    63  GLN63       0.0908
     28  CD         3.1970   16.9510  -12.1850 C.2    63  GLN63       0.2608
     29  OE1        3.6360   15.9670  -12.7760 O.2    63  GLN63      -0.2717
     30  NE2        3.9350   17.6960  -11.3850 N.am   63  GLN63      -0.0878
     31  N         -0.1410   14.5850   -1.5730 N.3    88  PHE88      -0.1241
     32  CA        -0.9560   13.5500   -2.2630 C.3    88  PHE88       0.1605
     33  C          0.0190   12.4140   -2.6500 C.2    88  PHE88       0.2264
     34  O          1.1600   12.6850   -3.0870 O.2    88  PHE88      -0.2867
     35  CB        -1.5470   14.1770   -3.5250 C.3    88  PHE88       0.0534
     36  CG        -2.5090   13.2960   -4.2610 C.ar   88  PHE88      -0.0203
     37  CD1       -3.6580   12.8230   -3.6410 C.ar   88  PHE88      -0.0042
     38  CD2       -2.2620   12.9350   -5.5860 C.ar   88  PHE88      -0.0042
     39  CE1       -4.5670   12.0160   -4.3250 C.ar   88  PHE88      -0.0003
     40  CE2       -3.1550   12.0980   -6.2690 C.ar   88  PHE88      -0.0003
     41  CZ        -4.2980   11.6460   -5.6360 C.ar   88  PHE88      -0.0000
     42  N          0.1240    8.1980   -7.1660 N.3    92  LEU92      -0.1231
     43  CA        -1.0460    8.5810   -7.9520 C.3    92  LEU92       0.1693
     44  C         -0.7760    9.8250   -8.7460 C.2    92  LEU92       0.2593
     45  O         -1.5280   10.1310   -9.6390 O.2    92  LEU92      -0.2718
     46  CB        -2.2250    8.7730   -7.0570 C.3    92  LEU92       0.0284
     47  CG        -2.5620    7.6130   -6.1380 C.3    92  LEU92       0.0019
     48  CD1       -3.6910    8.0270   -5.1750 C.3    92  LEU92       0.0001
     49  CD2       -2.9590    6.3130   -6.9290 C.3    92  LEU92       0.0001
     50  N          0.3100   10.5420   -8.4480 N.am   93  SER93      -0.1938
     51  CA         0.5300   11.8430   -9.0990 C.3    93  SER93       0.2055
     52  C          1.9910   12.2080   -9.0040 C.2    93  SER93       0.2643
     53  O          2.6220   11.8310   -8.0510 O.2    93  SER93      -0.2714
     54  CB        -0.3210   12.9580   -8.4380 C.3    93  SER93       0.2130
     55  OG        -0.2360   14.1700   -9.1990 O.3    93  SER93      -0.2179
     56  N          2.5100   12.9610   -9.9700 N.am   94  GLY94      -0.1954
     57  CA         3.8780   13.4670   -9.9090 C.3    94  GLY94       0.1869
     58  C          3.9920   14.7370   -9.0980 C.2    94  GLY94       0.2309
     59  O          5.0860   15.3350   -8.9810 O.2    94  GLY94      -0.2863
     60  N         -5.1110    9.9450   -0.2480 N.3   123  ALA123     -0.1231
     61  CA        -5.9700   10.6170   -1.1140 C.3   123  ALA123      0.1694
     62  C         -7.2370   11.1380   -0.4260 C.2   123  ALA123      0.2592
     63  O         -7.7740   10.5330    0.4510 O.2   123  ALA123     -0.2718
     64  CB        -6.3880    9.6460   -2.2230 C.3   123  ALA123      0.0304
     65  N         -7.6890   12.2400   -0.9180 N.am  124  THR124     -0.1953
     66  CA        -8.9450   12.8590   -0.5620 C.3   124  THR124      0.1897
     67  C         -9.0360   12.9280    0.9880 C.2   124  THR124      0.2313
     68  O         -8.1270   13.2870    1.6100 O.2   124  THR124     -0.2863
     69  CB       -10.2040   12.2470   -1.2790 C.3   124  THR124      0.1794
     70  OG1      -11.3860   12.8610   -0.8510 O.3   124  THR124     -0.2208
     71  CG2      -10.2880   10.6770   -1.0170 C.3   124  THR124      0.0378
     72  N         -8.4000    3.0650    3.7140 N.3   160  THR160     -0.1218
     73  CA        -9.1980    3.7510    2.7220 C.3   160  THR160      0.1862
     74  C         -9.9740    2.6630    1.9810 C.2   160  THR160      0.2287
     75  O         -9.3630    1.8800    1.2070 O.2   160  THR160     -0.2866
     76  CB        -8.2950    4.4370    1.6420 C.3   160  THR160      0.1770
     77  OG1       -7.3590    5.3180    2.2570 O.3   160  THR160     -0.2211
     78  CG2       -9.0970    5.2230    0.5590 C.3   160  THR160      0.0375
     79  N        -13.3380    2.2680   -0.5320 N.3   162  PHE162     -0.1241
     80  CA       -14.1300    3.1240   -1.3540 C.3   162  PHE162      0.1605
     81  C        -14.9430    2.3180   -2.3490 C.2   162  PHE162      0.2264
     82  O        -14.4670    1.3370   -2.8980 O.2   162  PHE162     -0.2867
     83  CB       -13.3170    4.2710   -1.9640 C.3   162  PHE162      0.0534
     84  CG       -12.2550    3.8820   -2.9810 C.ar  162  PHE162     -0.0203
     85  CD1      -10.9900    3.4600   -2.5690 C.ar  162  PHE162     -0.0042
     86  CD2      -12.4750    4.0770   -4.3290 C.ar  162  PHE162     -0.0042
     87  CE1       -9.9830    3.1920   -3.4830 C.ar  162  PHE162     -0.0003
     88  CE2      -11.4560    3.7830   -5.2800 C.ar  162  PHE162     -0.0003
     89  CZ       -10.2200    3.3460   -4.8350 C.ar  162  PHE162     -0.0000
     90  N        -11.7690    4.9830  -13.3090 N.3   170  LEU170     -0.1245
     91  CA       -10.5360    4.5840  -12.6400 C.3   170  LEU170      0.1561
     92  C         -9.5180    4.0640  -13.6690 C.2   170  LEU170      0.2260
     93  O         -8.3660    4.4700  -13.7040 O.2   170  LEU170     -0.2867
     94  CB       -10.8070    3.5630  -11.5080 C.3   170  LEU170      0.0270
     95  CG       -11.4360    3.9570  -10.1930 C.3   170  LEU170      0.0019
     96  CD1      -11.7860    2.7040   -9.4540 C.3   170  LEU170      0.0001
     97  CD2      -10.4750    4.8040   -9.3750 C.3   170  LEU170      0.0001
     98  N         -4.8150    5.2150  -13.0560 N.3   175  ARG175     -0.1245
     99  CA        -4.3420    4.7930  -11.7310 C.3   175  ARG175      0.1563
    100  C         -4.7630    3.3770  -11.3160 C.2   175  ARG175      0.2260
    101  O         -4.5330    2.9870  -10.1760 O.2   175  ARG175     -0.2867
    102  CB        -4.7190    5.8320  -10.6420 C.3   175  ARG175      0.0307
    103  CG        -3.8530    7.1220  -10.6780 C.3   175  ARG175      0.0489
    104  CD        -4.0880    8.0360  -11.8630 C.3   175  ARG175      0.2205
    105  NE        -3.0870    9.1250  -11.7960 N.pl3 175  ARG175     -0.0865
    106  CZ        -2.6890    9.9140  -12.7850 C.cat 175  ARG175      0.5346
    107  NH1       -3.1880    9.8070  -14.0200 N.pl3 175  ARG175      0.1354
    108  NH2       -1.7550   10.8110  -12.5390 N.pl3 175  ARG175      0.1354
    109  N         -6.5780    1.0330   -0.7030 N.3   187  LEU187     -0.1245
    110  CA        -5.1740    1.3280   -0.9780 C.3   187  LEU187      0.1561
    111  C         -4.2680    0.3690   -0.1540 C.2   187  LEU187      0.2260
    112  O         -4.3330    0.3580    1.0650 O.2   187  LEU187     -0.2867
    113  CB        -4.8710    2.7940   -0.6940 C.3   187  LEU187      0.0270
    114  CG        -5.7800    3.8410   -1.3590 C.3   187  LEU187      0.0019
    115  CD1       -5.5210    5.2640   -0.8710 C.3   187  LEU187      0.0001
    116  CD2       -5.8090    3.7720   -2.7900 C.3   187  LEU187      0.0001
    117  N         -3.9850    1.0360   -5.8080 N.3   193  LEU193     -0.1245
    118  CA        -5.4440    0.7490   -5.8250 C.3   193  LEU193      0.1561
    119  C         -5.7640   -0.7240   -6.1090 C.2   193  LEU193      0.2260
    120  O         -5.3050   -1.2880   -7.0900 O.2   193  LEU193     -0.2867
    121  CB        -6.1120    1.5670   -6.9150 C.3   193  LEU193      0.0270
    122  CG        -6.5530    2.9660   -6.5750 C.3   193  LEU193      0.0019
    123  CD1       -5.3730    3.8360   -6.5230 C.3   193  LEU193      0.0001
    124  CD2       -7.4200    3.4560   -7.7120 C.3   193  LEU193      0.0001
    125  N        -16.1570   14.6560   -2.1220 N.3   254  LEU254     -0.1245
    126  CA       -15.0150   14.5050   -3.0340 C.3   254  LEU254      0.1561
    127  C        -14.7980   15.7760   -3.8870 C.2   254  LEU254      0.2260
    128  O        -15.7730   16.3800   -4.3730 O.2   254  LEU254     -0.2867
    129  CB       -15.2380   13.3030   -3.9590 C.3   254  LEU254      0.0270
    130  CG       -15.2630   11.9000   -3.3280 C.3   254  LEU254      0.0019
    131  CD1      -15.5220   10.8040   -4.4190 C.3   254  LEU254      0.0001
    132  CD2      -13.9820   11.6200   -2.6090 C.3   254  LEU254      0.0001
    133  N        -10.8130   16.7400   -8.8330 N.3   257  VAL257     -0.1231
    134  CA        -9.6840   15.9390   -9.3210 C.3   257  VAL257      0.1692
    135  C         -9.9360   14.4530   -9.0170 C.2   257  VAL257      0.2591
    136  O         -9.9050   13.6260   -9.9200 O.2   257  VAL257     -0.2718
    137  CB        -8.3110   16.4620   -8.8190 C.3   257  VAL257      0.0266
    138  CG1       -7.1870   15.4920   -9.1720 C.3   257  VAL257      0.0020
    139  CG2       -8.0110   17.8070   -9.4390 C.3   257  VAL257      0.0020
    140  N        -10.2420   14.1210   -7.7670 N.am  258  ILE258     -0.1980
    141  CA       -10.5740   12.7580   -7.3880 C.3   258  ILE258      0.1595
    142  C        -11.8290   12.2260   -8.1330 C.2   258  ILE258      0.2287
    143  O        -11.8310   11.0920   -8.6540 O.2   258  ILE258     -0.2864
    144  CB       -10.7500   12.6450   -5.8160 C.3   258  ILE258      0.0276
    145  CG1       -9.4980   13.1550   -5.0760 C.3   258  ILE258      0.0022
    146  CG2      -11.2190   11.2940   -5.4120 C.3   258  ILE258      0.0022
    147  CD1       -8.2620   12.2980   -5.0950 C.3   258  ILE258      0.0001
    148  N        -11.5820   10.7580  -11.4790 N.3   261  HIS261     -0.1226
    149  CA       -10.9440    9.4260  -11.5580 C.3   261  HIS261      0.1752
    150  C        -11.8400    8.3050  -11.0750 C.2   261  HIS261      0.2595
    151  O        -11.8080    7.2030  -11.6580 O.2   261  HIS261     -0.2718
    152  CB        -9.5620    9.3990  -10.8620 C.3   261  HIS261      0.0759
    153  CG        -8.4590    9.9970  -11.6980 C.ar  261  HIS261      0.0818
    154  ND1       -8.1790   11.3550  -11.7250 N.ar  261  HIS261     -0.2268
    155  CD2       -7.6120    9.4310  -12.5810 C.ar  261  HIS261      0.1154
    156  CE1       -7.2040   11.5900  -12.5820 C.ar  261  HIS261      0.1986
    157  NE2       -6.8390   10.4390  -13.1150 N.ar  261  HIS261     -0.2212
    158  N        -12.6330    8.5650  -10.0330 N.am  262  VAL262     -0.1980
    159  CA       -13.4320    7.5110   -9.3990 C.3   262  VAL262      0.1595
    160  C        -14.8490    7.3900  -10.0060 C.2   262  VAL262      0.2287
    161  O        -15.4750    6.3050   -9.9670 O.2   262  VAL262     -0.2864
    162  CB       -13.6080    7.6920   -7.8730 C.3   262  VAL262      0.0276
    163  CG1      -12.2920    7.5180   -7.1190 C.3   262  VAL262      0.0022
    164  CG2      -14.3130    8.9740   -7.4980 C.3   262  VAL262      0.0022
    165  N        -19.6280    7.5120   -5.9490 N.3   266  THR266     -0.1218
    166  CA       -18.5700    7.0410   -5.0990 C.3   266  THR266      0.1862
    167  C        -18.7860    7.3730   -3.6220 C.2   266  THR266      0.2287
    168  O        -19.1420    8.5010   -3.2280 O.2   266  THR266     -0.2866
    169  CB       -17.1770    7.5480   -5.6040 C.3   266  THR266      0.1770
    170  OG1      -17.0800    7.2550   -6.9890 O.3   266  THR266     -0.2211
    171  CG2      -16.0070    6.8470   -4.8550 C.3   266  THR266      0.0375
    172  N        -16.7220    6.6320    0.2200 N.3   268  ALA268     -0.1245
    173  CA       -15.4740    6.2030    0.8520 C.3   268  ALA268      0.1562
    174  C        -15.5380    6.3590    2.3660 C.2   268  ALA268      0.2260
    175  O        -16.2840    7.2080    2.8940 O.2   268  ALA268     -0.2867
    176  CB       -14.2740    6.9500    0.2960 C.3   268  ALA268      0.0290
    177  N        -12.6680    6.1860    5.7220 N.3   270  PHE270     -0.1241
    178  CA       -11.2650    6.2530    6.1670 C.3   270  PHE270      0.1605
    179  C        -11.2180    6.0460    7.6500 C.2   270  PHE270      0.2264
    180  O        -11.8690    6.7460    8.3950 O.2   270  PHE270     -0.2867
    181  CB       -10.6660    7.6320    5.7970 C.3   270  PHE270      0.0534
    182  CG       -10.8510    7.9730    4.3430 C.ar  270  PHE270     -0.0203
    183  CD1       -9.8800    7.6330    3.4060 C.ar  270  PHE270     -0.0042
    184  CD2      -12.0720    8.5420    3.8980 C.ar  270  PHE270     -0.0042
    185  CE1      -10.0510    7.9470    2.0660 C.ar  270  PHE270     -0.0003
    186  CE2      -12.2580    8.8400    2.5330 C.ar  270  PHE270     -0.0003
    187  CZ       -11.2700    8.5220    1.6310 C.ar  270  PHE270     -0.0000
@<TRIPOS>BOND
     1    21    20    1
     2     9    10    1
     3    12    11    2
     4    20    17    1
     5    11    10    1
     6    11    16   am
     7    10    13    1
     8    17    16    1
     9    17    18    1
    10   107   106    1
    11    93    92    2
    12    92    91    1
    13    90    91    1
    14   157   156   ar
    15   157   155   ar
    16    13    14    1
    17    13    15    1
    18    98    99    1
    19   106   108    1
    20   106   105    2
    21    29    28    2
    22    18    22   am
    23    18    19    2
    24    91    94    1
    25   156   154   ar
    26   155   153   ar
    27    22    23    1
    28    27    28    1
    29    27    26    1
    30    28    30   am
    31   104   105    1
    32   104   103    1
    33    25    24    2
    34    99   100    1
    35    99   102    1
    36   154   153   ar
    37   153   152    1
    38   151   150    2
    39   149   148    1
    40   149   150    1
    41   149   152    1
    42    94    95    1
    43   100   101    2
    44    26    23    1
    45    23    24    1
    46   150   158   am
    47   103   102    1
    48     3     4    2
    49     3     2    1
    50    95    96    1
    51    95    97    1
    52   158   159    1
    53   160   161    2
    54   160   159    1
    55    56    57    1
    56    56    52   am
    57   136   135    2
    58    57    58    1
    59    45    44    2
    60   139   137    1
    61   159   162    1
    62   134   135    1
    63   134   133    1
    64   134   137    1
    65     2     5    1
    66     2     1    1
    67    55    54    1
    68   138   137    1
    69    51    52    1
    70    51    50    1
    71    51    54    1
    72    58    59    2
    73   135   140   am
    74    52    53    2
    75     5     6    1
    76    44    50   am
    77    44    43    1
    78     8     6    1
    79   143   142    2
    80     6     7    1
    81   142   141    1
    82    43    42    1
    83    43    46    1
    84   162   164    1
    85   162   163    1
    86   140   141    1
    87   124   122    1
    88   141   144    1
    89   120   119    2
    90    46    47    1
    91   170   169    1
    92    49    47    1
    93   121   122    1
    94   121   118    1
    95   122   123    1
    96    40    41   ar
    97    40    38   ar
    98    47    48    1
    99   119   118    1
   100   165   166    1
   101   118   117    1
   102   144   146    1
   103   144   145    1
   104    41    39   ar
   105   169   166    1
   106   169   171    1
   107    38    36   ar
   108    88    89   ar
   109    88    86   ar
   110   166   167    1
   111   147   145    1
   112    89    87   ar
   113   131   130    1
   114   128   127    2
   115    86    84   ar
   116    39    37   ar
   117    36    37   ar
   118    36    35    1
   119   129   130    1
   120   129   126    1
   121   127   126    1
   122   167   168    2
   123    35    32    1
   124    87    85   ar
   125   130   132    1
   126    34    33    2
   127   126   125    1
   128    84    85   ar
   129    84    83    1
   130    82    81    2
   131   116   114    1
   132    33    32    1
   133    81    80    1
   134    32    31    1
   135    64    61    1
   136    83    80    1
   137   114   115    1
   138   114   113    1
   139    80    79    1
   140    69    71    1
   141    69    70    1
   142    69    66    1
   143    61    62    1
   144    61    60    1
   145   110   109    1
   146   110   113    1
   147   110   111    1
   148    65    66    1
   149    65    62   am
   150    66    67    1
   151    62    63    2
   152   111   112    2
   153   172   173    1
   154   176   173    1
   155    78    76    1
   156   173   174    1
   157    67    68    2
   158    75    74    2
   159   187   185   ar
   160   187   186   ar
   161    76    77    1
   162    76    73    1
   163    74    73    1
   164   185   183   ar
   165   174   175    2
   166   186   184   ar
   167    73    72    1
   168   183   182   ar
   169   184   182   ar
   170   182   181    1
   171   177   178    1
   172   181   178    1
   173   178   179    1
   174   179   180    2
