@<TRIPOS>MOLECULE
tmp/3pl9A01.pdb
 84 85 0 0 0
SMALL
GASTEIGER

@<TRIPOS>ATOM
      1  N         45.0410   10.8510    6.9440 N.3   139  TRP139     -0.1241
      2  CA        44.3100   10.5950    5.7190 C.3   139  TRP139      0.1605
      3  C         44.3800   11.7920    4.7760 C.2   139  TRP139      0.2264
      4  O         44.7930   11.6540    3.6190 O.2   139  TRP139     -0.2867
      5  CB        42.8570   10.2470    6.0670 C.3   139  TRP139      0.0550
      6  CG        42.0500    9.6190    4.9600 C.ar  139  TRP139      0.0003
      7  CD1       42.4980    9.2010    3.7360 C.ar  139  TRP139      0.0946
      8  CD2       40.6460    9.3350    4.9900 C.ar  139  TRP139      0.0152
      9  NE1       41.4590    8.6780    3.0030 N.ar  139  TRP139     -0.2442
     10  CE2       40.3100    8.7470    3.7490 C.ar  139  TRP139      0.0810
     11  CE3       39.6370    9.5180    5.9480 C.ar  139  TRP139      0.0012
     12  CZ2       39.0060    8.3430    3.4390 C.ar  139  TRP139      0.0191
     13  CZ3       38.3390    9.1160    5.6400 C.ar  139  TRP139      0.0001
     14  CH2       38.0380    8.5350    4.3950 C.ar  139  TRP139      0.0015
     15  N         47.9930   12.0830    3.4980 N.3   142  HIS142     -0.1226
     16  CA        48.3960   11.1460    2.4530 C.3   142  HIS142      0.1752
     17  C         47.7220   11.5190    1.1540 C.2   142  HIS142      0.2596
     18  O         48.2540   11.2560    0.0900 O.2   142  HIS142     -0.2718
     19  CB        47.9980    9.7130    2.8320 C.3   142  HIS142      0.0759
     20  CG        48.2790    8.6800    1.7700 C.ar  142  HIS142      0.0818
     21  ND1       49.5450    8.1880    1.5270 N.ar  142  HIS142     -0.2268
     22  CD2       47.4460    7.9880    0.9600 C.ar  142  HIS142      0.1154
     23  CE1       49.4720    7.2310    0.6190 C.ar  142  HIS142      0.1986
     24  NE2       48.2130    7.0830    0.2570 N.ar  142  HIS142     -0.2212
     25  N         46.5470   12.1280    1.2330 N.am  143  LEU143     -0.1966
     26  CA        45.8490   12.5060    0.0170 C.3   143  LEU143      0.1728
     27  C         46.4590   13.7460   -0.6200 C.2   143  LEU143      0.2617
     28  O         46.6040   13.8170   -1.8400 O.2   143  LEU143     -0.2715
     29  CB        44.3600   12.7310    0.2920 C.3   143  LEU143      0.0311
     30  CG        43.5530   11.4650    0.6020 C.3   143  LEU143      0.0022
     31  CD1       42.0820   11.8050    0.7290 C.3   143  LEU143      0.0001
     32  CD2       43.7560   10.4500   -0.4970 C.3   143  LEU143      0.0001
     33  N         46.8250   14.7200    0.2040 N.am  144  SER144     -0.1936
     34  CA        47.4200   15.9470   -0.3080 C.3   144  SER144      0.2055
     35  C         48.7010   15.6480   -1.0690 C.2   144  SER144      0.2643
     36  O         49.0210   16.3210   -2.0460 O.2   144  SER144     -0.2714
     37  CB        47.7130   16.9230    0.8370 C.3   144  SER144      0.2130
     38  OG        46.5240   17.5480    1.2950 O.3   144  SER144     -0.2179
     39  N         49.4320   14.6380   -0.6190 N.am  145  ASP145     -0.1957
     40  CA        50.6780   14.2730   -1.2690 C.3   145  ASP145      0.1825
     41  C         50.9520   12.7770   -1.0850 C.2   145  ASP145      0.2464
     42  O         51.7490   12.3790   -0.2350 O.2   145  ASP145     -0.2730
     43  CB        51.8160   15.1140   -0.6870 C.3   145  ASP145      0.1450
     44  CG        53.0800   15.0530   -1.5270 C.2   145  ASP145      0.3671
     45  OD1       53.0080   15.3280   -2.7480 O.co2 145  ASP145     -0.2456
     46  OD2       54.1500   14.7390   -0.9650 O.co2 145  ASP145     -0.2456
     47  N         50.2880   11.9310   -1.8950 N.am  146  PRO146     -0.2715
     48  CA        50.3910   10.4680   -1.8920 C.3   146  PRO146      0.1536
     49  C         51.7890    9.8740   -1.8610 C.2   146  PRO146      0.2598
     50  O         52.0490    8.9310   -1.1200 O.2   146  PRO146     -0.2715
     51  CB        49.6420   10.0730   -3.1570 C.3   146  PRO146      0.0310
     52  CG        48.5640   11.0890   -3.2150 C.3   146  PRO146      0.0237
     53  CD        49.3080   12.3680   -2.9080 C.3   146  PRO146      0.0939
     54  N         52.6890   10.4240   -2.6620 N.am  147  LEU147     -0.1978
     55  CA        54.0440    9.8980   -2.7430 C.3   147  LEU147      0.1596
     56  C         54.9630   10.1770   -1.5610 C.2   147  LEU147      0.2287
     57  O         55.7290    9.3030   -1.1470 O.2   147  LEU147     -0.2864
     58  CB        54.7070   10.3980   -4.0270 C.3   147  LEU147      0.0297
     59  CG        54.0800    9.8780   -5.3220 C.3   147  LEU147      0.0022
     60  CD1       54.6060   10.6670   -6.5110 C.3   147  LEU147      0.0001
     61  CD2       54.3840    8.3930   -5.4650 C.3   147  LEU147      0.0001
     62  N         54.0760    8.3110    2.6960 N.3   150  THR150     -0.1203
     63  CA        53.9660    6.8830    2.9660 C.3   150  THR150      0.1994
     64  C         54.6920    6.4990    4.2410 C.2   150  THR150      0.2618
     65  O         55.3340    7.3250    4.8780 O.2   150  THR150     -0.2717
     66  CB        54.5540    6.0470    1.8240 C.3   150  THR150      0.1784
     67  OG1       55.9180    6.4340    1.6040 O.3   150  THR150     -0.2211
     68  CG2       53.7470    6.2470    0.5510 C.3   150  THR150      0.0376
     69  N         54.5910    5.2290    4.6060 N.am  151  ILE151     -0.1965
     70  CA        55.2360    4.7330    5.8110 C.3   151  ILE151      0.1727
     71  C         56.6850    4.3440    5.5030 C.2   151  ILE151      0.2616
     72  O         57.3910    3.8140    6.3570 O.2   151  ILE151     -0.2715
     73  CB        54.4660    3.5100    6.3750 C.3   151  ILE151      0.0290
     74  CG1       55.0130    3.1000    7.7480 C.3   151  ILE151      0.0022
     75  CG2       54.6110    2.3310    5.4200 C.3   151  ILE151      0.0023
     76  CD1       54.9360    4.1270    8.8640 C.3   151  ILE151      0.0001
     77  N         57.1250    4.6110    4.2750 N.am  152  LEU152     -0.1977
     78  CA        58.4940    4.2980    3.8810 C.3   152  LEU152      0.1596
     79  C         59.4070    5.4680    4.2050 C.2   152  LEU152      0.2287
     80  O         60.6200    5.3060    4.3100 O.2   152  LEU152     -0.2864
     81  CB        58.5780    3.9750    2.3840 C.3   152  LEU152      0.0297
     82  CG        58.0150    2.6250    1.9220 C.3   152  LEU152      0.0022
     83  CD1       58.2960    2.4530    0.4380 C.3   152  LEU152      0.0001
     84  CD2       58.6480    1.4830    2.7130 C.3   152  LEU152      0.0001
@<TRIPOS>BOND
     1    60    59    1
     2    61    59    1
     3    59    58    1
     4    58    55    1
     5    52    51    1
     6    52    53    1
     7    51    48    1
     8    53    47    1
     9    45    44   ar
    10    55    54    1
    11    55    56    1
    12    54    49   am
    13    36    35    2
    14    47    48    1
    15    47    41   am
    16    48    49    1
    17    49    50    2
    18    28    27    2
    19    56    57    2
    20    44    46   ar
    21    44    43    1
    22    40    41    1
    23    40    43    1
    24    40    39    1
    25    41    42    2
    26    35    39   am
    27    35    34    1
    28    27    26    1
    29    27    33   am
    30    32    30    1
    31    34    33    1
    32    34    37    1
    33    26    29    1
    34    26    25    1
    35    18    17    2
    36    24    23   ar
    37    24    22   ar
    38    29    30    1
    39    83    82    1
    40    68    66    1
    41    30    31    1
    42    23    21   ar
    43    37    38    1
    44    22    20   ar
    45    17    25   am
    46    17    16    1
    47    21    20   ar
    48    67    66    1
    49    20    19    1
    50    66    63    1
    51    82    81    1
    52    82    84    1
    53    81    78    1
    54    16    19    1
    55    16    15    1
    56    62    63    1
    57    63    64    1
    58     9     7   ar
    59     9    10   ar
    60    12    10   ar
    61    12    14   ar
    62     4     3    2
    63     7     6   ar
    64    10     8   ar
    65    78    79    1
    66    78    77    1
    67    79    80    2
    68    64    69   am
    69    64    65    2
    70    77    71   am
    71    14    13   ar
    72    69    70    1
    73     3     2    1
    74     6     8   ar
    75     6     5    1
    76     8    11   ar
    77    75    73    1
    78    71    70    1
    79    71    72    2
    80    13    11   ar
    81     2     5    1
    82     2     1    1
    83    70    73    1
    84    73    74    1
    85    74    76    1
