@<TRIPOS>MOLECULE
tmp/3pl9A12.pdb
 111 106 0 0 0
SMALL
GASTEIGER

@<TRIPOS>ATOM
      1  N         40.8360   11.5280   18.6220 N.3    34  TRP34      -0.1227
      2  CA        40.2400   10.5270   19.5020 C.3    34  TRP34       0.1737
      3  C         41.1080   10.1670   20.6950 C.2    34  TRP34       0.2595
      4  O         40.5700    9.8380   21.7530 O.2    34  TRP34      -0.2718
      5  CB        39.8700    9.2380   18.7380 C.3    34  TRP34       0.0564
      6  CG        41.0340    8.4390   18.2490 C.ar   34  TRP34       0.0003
      7  CD1       41.7140    8.6200   17.0820 C.ar   34  TRP34       0.0946
      8  CD2       41.6620    7.3330   18.9120 C.ar   34  TRP34       0.0152
      9  NE1       42.7270    7.6950   16.9700 N.ar   34  TRP34      -0.2442
     10  CE2       42.7190    6.8930   18.0780 C.ar   34  TRP34       0.0810
     11  CE3       41.4380    6.6740   20.1250 C.ar   34  TRP34       0.0012
     12  CZ2       43.5540    5.8140   18.4210 C.ar   34  TRP34       0.0191
     13  CZ3       42.2740    5.5950   20.4690 C.ar   34  TRP34       0.0001
     14  CH2       43.3170    5.1820   19.6140 C.ar   34  TRP34       0.0015
     15  N         42.4310   10.2150   20.5310 N.am   35  GLN35      -0.1965
     16  CA        43.3470    9.8860   21.6250 C.3    35  GLN35       0.1733
     17  C         43.3560   10.9650   22.7140 C.2    35  GLN35       0.2616
     18  O         43.4700   10.6570   23.9030 O.2    35  GLN35      -0.2715
     19  CB        44.7820    9.7260   21.1250 C.3    35  GLN35       0.0408
     20  CG        44.9390    9.0020   19.8170 C.3    35  GLN35       0.0908
     21  CD        44.9100    9.9440   18.6330 C.2    35  GLN35       0.2608
     22  OE1       43.9170   10.6370   18.3950 O.2    35  GLN35      -0.2717
     23  NE2       46.0070    9.9770   17.8810 N.am   35  GLN35      -0.0878
     24  N         43.2390   12.2290   22.3100 N.am   36  ASP36      -0.1971
     25  CA        43.2630   13.3270   23.2660 C.3    36  ASP36       0.1709
     26  C         41.9190   13.5830   23.9210 C.2    36  ASP36       0.2293
     27  O         41.8590   14.0620   25.0540 O.2    36  ASP36      -0.2864
     28  CB        43.7540   14.5980   22.5820 C.3    36  ASP36       0.1436
     29  CG        45.0200   14.3730   21.7830 C.2    36  ASP36       0.3671
     30  OD1       45.9020   13.6210   22.2520 O.co2  36  ASP36      -0.2456
     31  OD2       45.1380   14.9560   20.6860 O.co2  36  ASP36      -0.2456
     32  N         39.9400   12.1990   25.7450 N.3    38  GLY38      -0.1210
     33  CA        39.8230   11.9360   27.1640 C.3    38  GLY38       0.1956
     34  C         40.3930   13.0730   27.9880 C.2    38  GLY38       0.2611
     35  O         39.6900   13.6880   28.8140 O.2    38  GLY38      -0.2717
     36  N         41.6720   13.3650   27.7500 N.am   39  LYS39      -0.1979
     37  CA        42.3640   14.4190   28.4720 C.3    39  LYS39       0.1596
     38  C         41.6890   15.7780   28.3490 C.2    39  LYS39       0.2287
     39  O         41.4530   16.4380   29.3560 O.2    39  LYS39      -0.2864
     40  CB        43.8050   14.5200   27.9900 C.3    39  LYS39       0.0298
     41  CG        44.6910   15.3720   28.8860 C.3    39  LYS39       0.0038
     42  CD        46.1630   15.2420   28.5030 C.3    39  LYS39       0.0206
     43  CE        47.0290   16.0560   29.4410 C.3    39  LYS39       0.1093
     44  NZ        46.5350   17.4630   29.5050 N.3    39  LYS39      -0.1314
     45  N         38.5500   15.9780   30.3410 N.3    42  LEU42      -0.1245
     46  CA        38.8440   15.9970   31.7670 C.3    42  LEU42       0.1561
     47  C         39.3540   17.3670   32.2240 C.2    42  LEU42       0.2260
     48  O         38.9090   17.8900   33.2490 O.2    42  LEU42      -0.2867
     49  CB        39.8780   14.9050   32.0520 C.3    42  LEU42       0.0270
     50  CG        40.5270   14.6850   33.4160 C.3    42  LEU42       0.0019
     51  CD1       41.8100   15.4720   33.4600 C.3    42  LEU42       0.0001
     52  CD2       39.5750   15.0440   34.5510 C.3    42  LEU42       0.0001
     53  N         34.2440   14.2440   35.9440 N.3    57  MET57      -0.1245
     54  CA        34.8490   12.9860   35.5200 C.3    57  MET57       0.1570
     55  C         34.3210   11.8590   36.3910 C.2    57  MET57       0.2261
     56  O         34.1340   10.7350   35.9340 O.2    57  MET57      -0.2867
     57  CB        36.3680   13.0410   35.6680 C.3    57  MET57       0.0387
     58  CG        37.0770   11.7630   35.2520 C.3    57  MET57       0.0595
     59  SD        36.7390   11.3290   33.4930 S.3    57  MET57      -0.1393
     60  CE        37.4020   12.7890   32.5570 C.3    57  MET57       0.0692
     61  N         30.6690   11.0340   36.0820 N.3    60  LEU60      -0.1231
     62  CA        30.6590   10.5730   34.7060 C.3    60  LEU60       0.1693
     63  C         30.9110    9.0750   34.6680 C.2    60  LEU60       0.2591
     64  O         30.1810    8.3420   34.0120 O.2    60  LEU60      -0.2718
     65  CB        31.7430   11.2910   33.9130 C.3    60  LEU60       0.0284
     66  CG        31.5010   11.5550   32.4340 C.3    60  LEU60       0.0019
     67  CD1       30.2830   12.4540   32.2480 C.3    60  LEU60       0.0001
     68  CD2       32.7410   12.2090   31.8530 C.3    60  LEU60       0.0001
     69  N         31.9320    8.6040   35.3780 N.am   61  ILE61      -0.1980
     70  CA        32.1970    7.1780   35.3310 C.3    61  ILE61       0.1595
     71  C         31.1840    6.4110   36.1680 C.2    61  ILE61       0.2287
     72  O         30.9070    5.2460   35.8930 O.2    61  ILE61      -0.2864
     73  CB        33.6390    6.7980   35.7910 C.3    61  ILE61       0.0276
     74  CG1       33.5760    6.0910   37.1420 C.3    61  ILE61       0.0022
     75  CG2       34.5350    8.0220   35.8440 C.3    61  ILE61       0.0022
     76  CD1       34.8500    5.3490   37.5420 C.3    61  ILE61       0.0001
     77  N         28.5360    5.6190   33.9150 N.3    64  GLU64      -0.1231
     78  CA        28.9370    4.6350   32.9340 C.3    64  GLU64       0.1699
     79  C         28.9410    3.2510   33.5900 C.2    64  GLU64       0.2592
     80  O         28.2490    2.3430   33.1460 O.2    64  GLU64      -0.2718
     81  CB        30.3140    4.9840   32.3690 C.3    64  GLU64       0.0402
     82  CG        30.8150    4.0130   31.3300 C.3    64  GLU64       0.1161
     83  CD        32.0050    4.5360   30.5580 C.2    64  GLU64       0.3649
     84  OE1       32.7250    3.7130   29.9680 O.co2  64  GLU64      -0.2457
     85  OE2       32.2240    5.7640   30.5200 O.co2  64  GLU64      -0.2457
     86  N         29.7030    3.0890   34.6580 N.am   65  VAL65      -0.1980
     87  CA        29.7490    1.7970   35.3290 C.3    65  VAL65       0.1595
     88  C         28.3470    1.2540   35.6340 C.2    65  VAL65       0.2287
     89  O         28.0720    0.0680   35.4250 O.2    65  VAL65      -0.2864
     90  CB        30.5450    1.8770   36.6560 C.3    65  VAL65       0.0276
     91  CG1       30.2110    0.6870   37.5350 C.3    65  VAL65       0.0022
     92  CG2       32.0380    1.9060   36.3640 C.3    65  VAL65       0.0022
     93  N         26.2920    0.9550   31.8030 N.3    68  ILE68      -0.1245
     94  CA        26.7480   -0.0440   30.8470 C.3    68  ILE68       0.1561
     95  C         26.7290   -1.3750   31.5850 C.2    68  ILE68       0.2260
     96  O         26.5630   -2.4300   30.9730 O.2    68  ILE68      -0.2867
     97  CB        28.1810    0.2340   30.3130 C.3    68  ILE68       0.0252
     98  CG1       28.1920    1.5220   29.4830 C.3    68  ILE68       0.0019
     99  CG2       28.6350   -0.9030   29.4180 C.3    68  ILE68       0.0019
    100  CD1       28.0610    2.7750   30.2870 C.3    68  ILE68       0.0001
    101  N         40.1950    0.0750   13.0580 N.3   121  PHE121     -0.1241
    102  CA        40.4810    0.7000   14.3460 C.3   121  PHE121      0.1605
    103  C         41.8830    0.3280   14.8230 C.2   121  PHE121      0.2264
    104  O         42.5900    1.1420   15.4320 O.2   121  PHE121     -0.2867
    105  CB        39.4430    0.3350   15.4070 C.3   121  PHE121      0.0534
    106  CG        39.3920    1.3300   16.5210 C.ar  121  PHE121     -0.0203
    107  CD1       40.2830    1.2490   17.5910 C.ar  121  PHE121     -0.0042
    108  CD2       38.5340    2.4300   16.4400 C.ar  121  PHE121     -0.0042
    109  CE1       40.3310    2.2550   18.5600 C.ar  121  PHE121     -0.0003
    110  CE2       38.5710    3.4430   17.4000 C.ar  121  PHE121     -0.0003
    111  CZ        39.4740    3.3540   18.4630 C.ar  121  PHE121     -0.0000
@<TRIPOS>BOND
     1   101   102    1
     2   102   103    1
     3   102   105    1
     4   103   104    2
     5   105   106    1
     6   108   106   ar
     7   108   110   ar
     8   106   107   ar
     9     9     7   ar
    10     9    10   ar
    11     7     6   ar
    12   110   111   ar
    13   107   109   ar
    14    23    21   am
    15    10    12   ar
    16    10     8   ar
    17     6     5    1
    18     6     8   ar
    19    22    21    2
    20    12    14   ar
    21   111   109   ar
    22     1     2    1
    23    21    20    1
    24     5     2    1
    25     8    11   ar
    26     2     3    1
    27    14    13   ar
    28    20    19    1
    29    11    13   ar
    30    15     3   am
    31    15    16    1
    32    31    29   ar
    33     3     4    2
    34    19    16    1
    35    16    17    1
    36    29    30   ar
    37    29    28    1
    38    24    17   am
    39    24    25    1
    40    28    25    1
    41    17    18    2
    42    25    26    1
    43    26    27    2
    44    32    33    1
    45    33    34    1
    46    36    34   am
    47    36    37    1
    48    34    35    2
    49    40    37    1
    50    40    41    1
    51    38    37    1
    52    38    39    2
    53    42    41    1
    54    42    43    1
    55    99    97    1
    56    43    44    1
    57    98   100    1
    58    98    97    1
    59    84    83   ar
    60    97    94    1
    61    45    46    1
    62    85    83   ar
    63    83    82    1
    64    94    95    1
    65    94    93    1
    66    96    95    2
    67    82    81    1
    68    46    49    1
    69    46    47    1
    70    68    66    1
    71    49    50    1
    72    47    48    2
    73    67    66    1
    74    81    78    1
    75    66    65    1
    76    60    59    1
    77    78    79    1
    78    78    77    1
    79    80    79    2
    80    50    51    1
    81    50    52    1
    82    59    58    1
    83    79    86   am
    84    65    62    1
    85    64    63    2
    86    86    87    1
    87    63    62    1
    88    63    69   am
    89    62    61    1
    90    58    57    1
    91    87    88    1
    92    87    90    1
    93    70    69    1
    94    70    73    1
    95    70    71    1
    96    89    88    2
    97    54    57    1
    98    54    53    1
    99    54    55    1
   100    73    75    1
   101    73    74    1
   102    72    71    2
   103    56    55    2
   104    92    90    1
   105    90    91    1
   106    74    76    1
