@<TRIPOS>MOLECULE
tmp/3pl9A10.pdb
 139 132 0 0 0
SMALL
GASTEIGER

@<TRIPOS>ATOM
      1  N         31.3140   -2.5350   18.2070 N.3    15  TRP15      -0.1241
      2  CA        31.9480   -1.4280   18.9060 C.3    15  TRP15       0.1605
      3  C         32.8700   -0.7450   17.9050 C.2    15  TRP15       0.2264
      4  O         32.7790    0.4640   17.6810 O.2    15  TRP15      -0.2867
      5  CB        32.7690   -1.9190   20.1080 C.3    15  TRP15       0.0550
      6  CG        31.9370   -2.1780   21.3230 C.ar   15  TRP15       0.0003
      7  CD1       31.6640   -3.3840   21.8860 C.ar   15  TRP15       0.0946
      8  CD2       31.1900   -1.2090   22.0660 C.ar   15  TRP15       0.0152
      9  NE1       30.7840   -3.2350   22.9320 N.ar   15  TRP15      -0.2442
     10  CE2       30.4770   -1.9110   23.0620 C.ar   15  TRP15       0.0810
     11  CE3       31.0530    0.1840   21.9840 C.ar   15  TRP15       0.0012
     12  CZ2       29.6320   -1.2620   23.9730 C.ar   15  TRP15       0.0191
     13  CZ3       30.2120    0.8280   22.8940 C.ar   15  TRP15       0.0001
     14  CH2       29.5130    0.1010   23.8730 C.ar   15  TRP15       0.0015
     15  N         31.2250    1.7010   15.5670 N.3    18  LEU18      -0.1231
     16  CA        30.8540    2.9890   16.1510 C.3    18  LEU18       0.1693
     17  C         32.0910    3.8220   16.4640 C.2    18  LEU18       0.2591
     18  O         32.1220    5.0300   16.2180 O.2    18  LEU18      -0.2718
     19  CB        30.0800    2.7780   17.4510 C.3    18  LEU18       0.0284
     20  CG        28.7370    2.0600   17.3740 C.3    18  LEU18       0.0019
     21  CD1       28.3390    1.6900   18.7930 C.3    18  LEU18       0.0001
     22  CD2       27.6670    2.9350   16.6970 C.3    18  LEU18       0.0001
     23  N         33.0960    3.1600   17.0310 N.am   19  ALA19      -0.1980
     24  CA        34.3480    3.8050   17.4010 C.3    19  ALA19       0.1597
     25  C         34.9900    4.5290   16.2260 C.2    19  ALA19       0.2287
     26  O         35.1380    5.7590   16.2330 O.2    19  ALA19      -0.2864
     27  CB        35.3090    2.7770   17.9460 C.3    19  ALA19       0.0319
     28  N         33.9310    5.3100   13.3220 N.3    21  LEU21      -0.1231
     29  CA        33.1170    6.3990   12.8260 C.3    21  LEU21       0.1693
     30  C         33.2410    7.5470   13.8240 C.2    21  LEU21       0.2592
     31  O         33.3820    8.7120   13.4370 O.2    21  LEU21      -0.2718
     32  CB        31.6690    5.9210   12.6940 C.3    21  LEU21       0.0284
     33  CG        30.7010    6.6720   11.7810 C.3    21  LEU21       0.0019
     34  CD1       29.7380    5.6740   11.1980 C.3    21  LEU21       0.0001
     35  CD2       29.9490    7.7530   12.5530 C.3    21  LEU21       0.0001
     36  N         33.2220    7.1910   15.1140 N.am   22  GLY22      -0.1957
     37  CA        33.3220    8.1660   16.1910 C.3    22  GLY22       0.1869
     38  C         34.6150    8.9530   16.2060 C.2    22  GLY22       0.2309
     39  O         34.5900   10.1810   16.3510 O.2    22  GLY22      -0.2863
     40  N         34.5320   11.4580   13.1910 N.3    25  THR25      -0.1203
     41  CA        33.5910   12.5630   13.3460 C.3    25  THR25       0.1994
     42  C         34.0610   13.6390   14.3300 C.2    25  THR25       0.2617
     43  O         33.9430   14.8390   14.0480 O.2    25  THR25      -0.2717
     44  CB        32.2110   12.0680   13.8100 C.3    25  THR25       0.1784
     45  OG1       31.7220   11.0880   12.8960 O.3    25  THR25      -0.2211
     46  CG2       31.2250   13.2200   13.8520 C.3    25  THR25       0.0376
     47  N         34.5890   13.2210   15.4780 N.am   26  VAL26      -0.1979
     48  CA        35.0350   14.1910   16.4680 C.3    26  VAL26       0.1595
     49  C         36.2000   15.0440   15.9710 C.2    26  VAL26       0.2287
     50  O         36.2800   16.2410   16.2690 O.2    26  VAL26      -0.2864
     51  CB        35.4490   13.5140   17.7900 C.3    26  VAL26       0.0276
     52  CG1       36.7220   12.6970   17.5940 C.3    26  VAL26       0.0022
     53  CG2       35.6580   14.5730   18.8580 C.3    26  VAL26       0.0022
     54  N         34.8820   17.5000   13.3140 N.3    29  LEU29      -0.1231
     55  CA        34.0280   18.5790   13.7850 C.3    29  LEU29       0.1693
     56  C         34.5940   19.4690   14.9040 C.2    29  LEU29       0.2592
     57  O         34.3660   20.6850   14.9120 O.2    29  LEU29      -0.2718
     58  CB        32.6760   18.0000   14.2210 C.3    29  LEU29       0.0284
     59  CG        31.6000   17.7620   13.1500 C.3    29  LEU29       0.0019
     60  CD1       32.2190   17.3880   11.8260 C.3    29  LEU29       0.0001
     61  CD2       30.6410   16.6800   13.6470 C.3    29  LEU29       0.0001
     62  N         35.3220   18.8820   15.8480 N.am   30  THR30      -0.1953
     63  CA        35.8600   19.6710   16.9470 C.3    30  THR30       0.1897
     64  C         37.3600   19.8640   16.8480 C.2    30  THR30       0.2313
     65  O         37.9590   20.5850   17.6500 O.2    30  THR30      -0.2863
     66  CB        35.5890   19.0040   18.2930 C.3    30  THR30       0.1794
     67  OG1       36.4130   17.8260   18.4210 O.3    30  THR30      -0.2208
     68  CG2       34.1150   18.6450   18.4050 C.3    30  THR30       0.0378
     69  N         39.4760   17.9730   17.7720 N.3    32  ILE32      -0.1245
     70  CA        40.1650   17.2100   18.8020 C.3    32  ILE32       0.1561
     71  C         40.3220   15.7640   18.3220 C.2    32  ILE32       0.2260
     72  O         39.3850   15.2030   17.7590 O.2    32  ILE32      -0.2867
     73  CB        39.3690   17.2430   20.1040 C.3    32  ILE32       0.0252
     74  CG1       39.0660   18.7030   20.4730 C.3    32  ILE32       0.0019
     75  CG2       40.1640   16.5670   21.2080 C.3    32  ILE32       0.0019
     76  CD1       38.0010   18.8860   21.5520 C.3    32  ILE32       0.0001
     77  N         40.8470   13.2560   23.2060 N.3    37  ALA37      -0.1231
     78  CA        39.4790   13.4440   23.6920 C.3    37  ALA37       0.1694
     79  C         39.3140   13.2470   25.2030 C.2    37  ALA37       0.2592
     80  O         38.6200   14.0310   25.8620 O.2    37  ALA37      -0.2718
     81  CB        38.5420   12.5010   22.9500 C.3    37  ALA37       0.0304
     82  N         39.9400   12.1990   25.7450 N.am   38  GLY38      -0.1957
     83  CA        39.8230   11.9360   27.1640 C.3    38  GLY38       0.1869
     84  C         40.3930   13.0730   27.9880 C.2    38  GLY38       0.2309
     85  O         39.6900   13.6880   28.8140 O.2    38  GLY38      -0.2863
     86  N         41.3550   16.2080   27.1370 N.3    40  VAL40      -0.1231
     87  CA        40.7290   17.5210   27.0220 C.3    40  VAL40       0.1692
     88  C         39.3240   17.5580   27.5990 C.2    40  VAL40       0.2591
     89  O         38.8150   18.6340   27.9190 O.2    40  VAL40      -0.2718
     90  CB        40.7070   18.0670   25.5480 C.3    40  VAL40       0.0266
     91  CG1       41.3900   17.0860   24.6090 C.3    40  VAL40       0.0020
     92  CG2       39.2830   18.4110   25.1200 C.3    40  VAL40       0.0020
     93  N         38.6960   16.3940   27.7410 N.am   41  GLU41      -0.1979
     94  CA        37.3450   16.3480   28.2960 C.3    41  GLU41       0.1602
     95  C         37.4430   16.4860   29.8130 C.2    41  GLU41       0.2287
     96  O         36.5520   17.0490   30.4720 O.2    41  GLU41      -0.2864
     97  CB        36.6550   15.0290   27.9190 C.3    41  GLU41       0.0415
     98  CG        36.0610   15.0050   26.5200 C.3    41  GLU41       0.1163
     99  CD        34.6380   15.5500   26.4510 C.2    41  GLU41       0.3649
    100  OE1       34.1710   15.8450   25.3380 O.co2  41  GLU41      -0.2457
    101  OE2       33.9650   15.6710   27.4920 O.co2  41  GLU41      -0.2457
    102  N         31.9970   18.0160   27.2730 N.3    47  SER47      -0.1202
    103  CA        31.3690   18.6900   26.1490 C.3    47  SER47       0.2020
    104  C         31.1420   17.7670   24.9780 C.2    47  SER47       0.2619
    105  O         31.7160   16.6810   24.9040 O.2    47  SER47      -0.2717
    106  CB        32.2380   19.8640   25.6940 C.3    47  SER47       0.2103
    107  OG        33.5390   19.4190   25.3550 O.3    47  SER47      -0.2182
    108  N         30.2860   18.2140   24.0730 N.am   48  TYR48      -0.1961
    109  CA        29.9820   17.4730   22.8710 C.3    48  TYR48       0.1771
    110  C         29.7180   18.5540   21.8500 C.2    48  TYR48       0.2619
    111  O         28.8810   19.4270   22.0760 O.2    48  TYR48      -0.2715
    112  CB        28.7420   16.5890   23.0630 C.3    48  TYR48       0.0574
    113  CG        28.4740   15.6610   21.8920 C.ar   48  TYR48      -0.0198
    114  CD1       27.7780   16.1040   20.7660 C.ar   48  TYR48      -0.0009
    115  CD2       28.9490   14.3570   21.8940 C.ar   48  TYR48      -0.0009
    116  CE1       27.5690   15.2660   19.6710 C.ar   48  TYR48       0.0417
    117  CE2       28.7450   13.5150   20.8120 C.ar   48  TYR48       0.0417
    118  CZ        28.0580   13.9710   19.7010 C.ar   48  TYR48       0.1957
    119  OH        27.8710   13.1340   18.6240 O.3    48  TYR48      -0.2866
    120  N         30.4430   18.5080   20.7390 N.am   49  LEU49      -0.1963
    121  CA        30.2800   19.5130   19.7010 C.3    49  LEU49       0.1728
    122  C         30.4390   20.9090   20.3060 C.2    49  LEU49       0.2616
    123  O         29.6380   21.8120   20.0510 O.2    49  LEU49      -0.2715
    124  CB        28.9000   19.3880   19.0480 C.3    49  LEU49       0.0311
    125  CG        28.7480   18.2650   18.0320 C.3    49  LEU49       0.0022
    126  CD1       27.3630   18.3320   17.4030 C.3    49  LEU49       0.0001
    127  CD2       29.8180   18.4140   16.9680 C.3    49  LEU49       0.0001
    128  N         31.4670   21.0740   21.1280 N.am   50  GLY50      -0.1955
    129  CA        31.6960   22.3680   21.7360 C.3    50  GLY50       0.1869
    130  C         30.8620   22.6910   22.9610 C.2    50  GLY50       0.2309
    131  O         31.4280   23.0580   23.9930 O.2    50  GLY50      -0.2863
    132  N         28.8170   20.3640   29.1430 N.3    53  LEU53      -0.1245
    133  CA        27.9800   19.4050   29.8460 C.3    53  LEU53       0.1561
    134  C         28.4080   19.3500   31.3180 C.2    53  LEU53       0.2260
    135  O         29.5820   19.1670   31.6400 O.2    53  LEU53      -0.2867
    136  CB        28.1020   18.0290   29.1770 C.3    53  LEU53       0.0270
    137  CG        27.4390   17.9880   27.7960 C.3    53  LEU53       0.0019
    138  CD1       27.8730   16.7770   26.9990 C.3    53  LEU53       0.0001
    139  CD2       25.9410   17.9880   28.0050 C.3    53  LEU53       0.0001
@<TRIPOS>BOND
     1    34    33    1
     2    33    35    1
     3    33    32    1
     4    60    59    1
     5    32    29    1
     6    29    28    1
     7    29    30    1
     8    45    44    1
     9    59    61    1
    10    59    58    1
    11    40    41    1
    12    54    55    1
    13    41    44    1
    14    41    42    1
    15    31    30    2
    16    55    58    1
    17    55    56    1
    18    44    46    1
    19    30    36   am
    20    43    42    2
    21    42    47   am
    22    56    57    2
    23    56    62   am
    24    36    37    1
    25    47    48    1
    26    15    16    1
    27    62    63    1
    28    49    50    2
    29    49    48    1
    30    16    17    1
    31    16    19    1
    32    37    38    1
    33    38    39    2
    34    18    17    2
    35    25    26    2
    36    25    24    1
    37    17    23   am
    38    48    51    1
    39    22    20    1
    40    64    63    1
    41    64    65    2
    42    63    66    1
    43   127   125    1
    44    23    24    1
    45    20    19    1
    46    20    21    1
    47    24    27    1
    48   126   125    1
    49    52    51    1
    50     4     3    2
    51    72    71    2
    52    69    70    1
    53    51    53    1
    54     3     2    1
    55   125   124    1
    56     1     2    1
    57    66    68    1
    58    66    67    1
    59    71    70    1
    60   119   118    1
    61    70    73    1
    62     2     5    1
    63   124   121    1
    64   116   118   ar
    65   116   114   ar
    66   121   122    1
    67   121   120    1
    68   118   117   ar
    69   123   122    2
    70    73    74    1
    71    73    75    1
    72     5     6    1
    73   122   128   am
    74    74    76    1
    75   120   110   am
    76   114   113   ar
    77   117   115   ar
    78   128   129    1
    79     6     7   ar
    80     6     8   ar
    81   129   130    1
    82   110   111    2
    83   110   109    1
    84     7     9   ar
    85   113   115   ar
    86   113   112    1
    87    11     8   ar
    88    11    13   ar
    89     8    10   ar
    90   109   112    1
    91   109   108    1
    92    13    14   ar
    93     9    10   ar
    94    81    78    1
    95   130   131    2
    96    10    12   ar
    97    77    78    1
    98    78    79    1
    99    14    12   ar
   100   108   104   am
   101    91    90    1
   102   105   104    2
   103   104   103    1
   104    92    90    1
   105    79    82   am
   106    79    80    2
   107   100    99   ar
   108   107   106    1
   109    90    87    1
   110   106   103    1
   111    82    83    1
   112   103   102    1
   113    99    98    1
   114    99   101   ar
   115    98    97    1
   116   138   137    1
   117    87    86    1
   118    87    88    1
   119    83    84    1
   120    88    93   am
   121    88    89    2
   122    93    94    1
   123   137   139    1
   124   137   136    1
   125    97    94    1
   126    84    85    2
   127    94    95    1
   128   132   133    1
   129   136   133    1
   130    95    96    2
   131   133   134    1
   132   134   135    2
