@<TRIPOS>MOLECULE
tmp/3pl9A14.pdb
 136 131 0 0 0
SMALL
GASTEIGER

@<TRIPOS>ATOM
      1  N         30.9060  -18.7350   21.6260 N.3     4  ARG4       -0.1245
      2  CA        31.2950  -17.5530   22.3820 C.3     4  ARG4        0.1563
      3  C         32.1130  -16.6430   21.4800 C.2     4  ARG4        0.2260
      4  O         31.9510  -15.4280   21.4970 O.2     4  ARG4       -0.2867
      5  CB        32.1210  -17.9360   23.6160 C.3     4  ARG4        0.0307
      6  CG        32.5140  -16.7280   24.4700 C.3     4  ARG4        0.0489
      7  CD        33.0620  -17.0970   25.8410 C.3     4  ARG4        0.2205
      8  NE        33.2240  -15.9100   26.6810 N.pl3   4  ARG4       -0.0865
      9  CZ        34.2660  -15.0860   26.6290 C.cat   4  ARG4        0.5346
     10  NH1       35.2530  -15.3160   25.7770 N.pl3   4  ARG4        0.1354
     11  NH2       34.3120  -14.0230   27.4190 N.pl3   4  ARG4        0.1354
     12  N         30.2450  -14.4880   19.3580 N.3     7  GLU7       -0.1231
     13  CA        29.7450  -13.3310   20.0980 C.3     7  GLU7        0.1699
     14  C         30.8680  -12.3120   20.2150 C.2     7  GLU7        0.2592
     15  O         30.6960  -11.1390   19.8970 O.2     7  GLU7       -0.2718
     16  CB        29.3030  -13.7250   21.5080 C.3     7  GLU7        0.0402
     17  CG        27.9120  -14.3320   21.6280 C.3     7  GLU7        0.1161
     18  CD        27.4210  -14.3890   23.0780 C.2     7  GLU7        0.3649
     19  OE1       27.2220  -13.3100   23.6900 O.co2   7  GLU7       -0.2457
     20  OE2       27.2360  -15.5110   23.6030 O.co2   7  GLU7       -0.2457
     21  N         32.0200  -12.7690   20.6900 N.am    8  CYS8       -0.1970
     22  CA        33.1720  -11.8990   20.8300 C.3     8  CYS8        0.1712
     23  C         33.3720  -11.1300   19.5380 C.2     8  CYS8        0.2296
     24  O         33.4550   -9.9020   19.5390 O.2     8  CYS8       -0.2864
     25  CB        34.4300  -12.7160   21.1070 C.3     8  CYS8        0.0983
     26  SG        35.0100  -12.7080   22.8120 S.3     8  CYS8       -0.0798
     27  N         30.3950   -8.6840   18.6170 N.3    11  ILE11      -0.1231
     28  CA        30.4010   -7.6190   19.6210 C.3    11  ILE11       0.1692
     29  C         31.5530   -6.6340   19.3940 C.2    11  ILE11       0.2592
     30  O         31.3110   -5.4400   19.2180 O.2    11  ILE11      -0.2718
     31  CB        30.4810   -8.2020   21.0500 C.3    11  ILE11       0.0266
     32  CG1       29.1370   -8.8490   21.4240 C.3    11  ILE11       0.0019
     33  CG2       30.9150   -7.1240   22.0280 C.3    11  ILE11       0.0020
     34  CD1       27.9030   -7.9160   21.5000 C.3    11  ILE11       0.0001
     35  N         32.7990   -7.1560   19.3470 N.am   12  HIS12      -0.1976
     36  CA        33.9070   -6.2450   19.1430 C.3    12  HIS12       0.1656
     37  C         33.6390   -5.4970   17.8640 C.2    12  HIS12       0.2291
     38  O         33.8650   -4.2880   17.7550 O.2    12  HIS12      -0.2864
     39  CB        35.2810   -6.9620   19.0160 C.3    12  HIS12       0.0771
     40  CG        35.9260   -7.3940   20.3080 C.ar   12  HIS12       0.0820
     41  ND1       35.3320   -8.1900   21.2690 N.ar   12  HIS12      -0.2267
     42  CD2       37.1740   -7.1300   20.7670 C.ar   12  HIS12       0.1154
     43  CE1       36.1830   -8.3850   22.2650 C.ar   12  HIS12       0.1986
     44  NE2       37.3060   -7.7530   21.9830 N.ar   12  HIS12      -0.2212
     45  N         31.3140   -2.5350   18.2070 N.3    15  TRP15      -0.1241
     46  CA        31.9480   -1.4280   18.9060 C.3    15  TRP15       0.1605
     47  C         32.8700   -0.7450   17.9050 C.2    15  TRP15       0.2264
     48  O         32.7790    0.4640   17.6810 O.2    15  TRP15      -0.2867
     49  CB        32.7690   -1.9190   20.1080 C.3    15  TRP15       0.0550
     50  CG        31.9370   -2.1780   21.3230 C.ar   15  TRP15       0.0003
     51  CD1       31.6640   -3.3840   21.8860 C.ar   15  TRP15       0.0946
     52  CD2       31.1900   -1.2090   22.0660 C.ar   15  TRP15       0.0152
     53  NE1       30.7840   -3.2350   22.9320 N.ar   15  TRP15      -0.2442
     54  CE2       30.4770   -1.9110   23.0620 C.ar   15  TRP15       0.0810
     55  CE3       31.0530    0.1840   21.9840 C.ar   15  TRP15       0.0012
     56  CZ2       29.6320   -1.2620   23.9730 C.ar   15  TRP15       0.0191
     57  CZ3       30.2120    0.8280   22.8940 C.ar   15  TRP15       0.0001
     58  CH2       29.5130    0.1010   23.8730 C.ar   15  TRP15       0.0015
     59  N         28.5360    5.6190   33.9150 N.3    64  GLU64      -0.1231
     60  CA        28.9370    4.6350   32.9340 C.3    64  GLU64       0.1699
     61  C         28.9410    3.2510   33.5900 C.2    64  GLU64       0.2592
     62  O         28.2490    2.3430   33.1460 O.2    64  GLU64      -0.2718
     63  CB        30.3140    4.9840   32.3690 C.3    64  GLU64       0.0402
     64  CG        30.8150    4.0130   31.3300 C.3    64  GLU64       0.1161
     65  CD        32.0050    4.5360   30.5580 C.2    64  GLU64       0.3649
     66  OE1       32.7250    3.7130   29.9680 O.co2  64  GLU64      -0.2457
     67  OE2       32.2240    5.7640   30.5200 O.co2  64  GLU64      -0.2457
     68  N         29.7030    3.0890   34.6580 N.am   65  VAL65      -0.1980
     69  CA        29.7490    1.7970   35.3290 C.3    65  VAL65       0.1595
     70  C         28.3470    1.2540   35.6340 C.2    65  VAL65       0.2287
     71  O         28.0720    0.0680   35.4250 O.2    65  VAL65      -0.2864
     72  CB        30.5450    1.8770   36.6560 C.3    65  VAL65       0.0276
     73  CG1       30.2110    0.6870   37.5350 C.3    65  VAL65       0.0022
     74  CG2       32.0380    1.9060   36.3640 C.3    65  VAL65       0.0022
     75  N         26.2920    0.9550   31.8030 N.3    68  ILE68      -0.1231
     76  CA        26.7480   -0.0440   30.8470 C.3    68  ILE68       0.1692
     77  C         26.7290   -1.3750   31.5850 C.2    68  ILE68       0.2592
     78  O         26.5630   -2.4300   30.9730 O.2    68  ILE68      -0.2718
     79  CB        28.1810    0.2340   30.3130 C.3    68  ILE68       0.0266
     80  CG1       28.1920    1.5220   29.4830 C.3    68  ILE68       0.0019
     81  CG2       28.6350   -0.9030   29.4180 C.3    68  ILE68       0.0020
     82  CD1       28.0610    2.7750   30.2870 C.3    68  ILE68       0.0001
     83  N         26.8900   -1.3250   32.9030 N.am   69  GLY69      -0.1957
     84  CA        26.8760   -2.5590   33.6730 C.3    69  GLY69       0.1869
     85  C         25.5150   -3.2200   33.5680 C.2    69  GLY69       0.2309
     86  O         25.3840   -4.3770   33.1810 O.2    69  GLY69      -0.2863
     87  N         24.9760   -4.4860   30.0490 N.3    72  GLU72      -0.1231
     88  CA        25.8210   -5.6190   29.7220 C.3    72  GLU72       0.1699
     89  C         25.2400   -6.8570   30.4060 C.2    72  GLU72       0.2592
     90  O         25.3230   -7.9620   29.8680 O.2    72  GLU72      -0.2718
     91  CB        27.2520   -5.3780   30.1900 C.3    72  GLU72       0.0402
     92  CG        28.0500   -4.4470   29.3000 C.3    72  GLU72       0.1161
     93  CD        28.3710   -5.0510   27.9370 C.2    72  GLU72       0.3649
     94  OE1       29.5510   -5.3620   27.6360 O.co2  72  GLU72      -0.2457
     95  OE2       27.4250   -5.2190   27.1400 O.co2  72  GLU72      -0.2457
     96  N         24.6410   -6.6710   31.5840 N.am   73  PHE73      -0.1976
     97  CA        24.0430   -7.7900   32.3110 C.3    73  PHE73       0.1639
     98  C         22.7810   -8.2720   31.6110 C.2    73  PHE73       0.2290
     99  O         22.6980   -9.4330   31.2230 O.2    73  PHE73      -0.2864
    100  CB        23.7250   -7.4130   33.7680 C.3    73  PHE73       0.0560
    101  CG        24.9340   -7.4400   34.6940 C.ar   73  PHE73      -0.0200
    102  CD1       25.9740   -8.3470   34.4930 C.ar   73  PHE73      -0.0042
    103  CD2       25.0160   -6.5690   35.7830 C.ar   73  PHE73      -0.0042
    104  CE1       27.0800   -8.3840   35.3580 C.ar   73  PHE73      -0.0003
    105  CE2       26.1170   -6.5970   36.6550 C.ar   73  PHE73      -0.0003
    106  CZ        27.1490   -7.5090   36.4390 C.ar   73  PHE73      -0.0000
    107  N         21.8930   -8.1100   28.7680 N.3    75  ARG75      -0.1231
    108  CA        22.2910   -8.7790   27.5380 C.3    75  ARG75       0.1694
    109  C         22.7600  -10.1860   27.8540 C.2    75  ARG75       0.2592
    110  O         22.3820  -11.1460   27.1930 O.2    75  ARG75      -0.2718
    111  CB        23.4310   -8.0110   26.8480 C.3    75  ARG75       0.0321
    112  CG        24.0420   -8.7310   25.6430 C.3    75  ARG75       0.0489
    113  CD        25.0120   -7.8520   24.8760 C.3    75  ARG75       0.2205
    114  NE        26.2990   -7.7110   25.5410 N.pl3  75  ARG75      -0.0865
    115  CZ        27.2950   -8.5820   25.4300 C.cat  75  ARG75       0.5346
    116  NH1       27.1430   -9.6630   24.6780 N.pl3  75  ARG75       0.1354
    117  NH2       28.4500   -8.3680   26.0560 N.pl3  75  ARG75       0.1354
    118  N         23.5870  -10.3010   28.8800 N.am   76  ASN76      -0.1974
    119  CA        24.1220  -11.5900   29.2560 C.3    76  ASN76       0.1688
    120  C         23.0550  -12.4930   29.8510 C.2    76  ASN76       0.2292
    121  O         23.2290  -13.7080   29.9350 O.2    76  ASN76      -0.2864
    122  CB        25.2630  -11.4000   30.2440 C.3    76  ASN76       0.1181
    123  CG        26.1710  -12.5880   30.2920 C.2    76  ASN76       0.2629
    124  OD1       27.2200  -12.5600   30.9190 O.2    76  ASN76      -0.2716
    125  ND2       25.7710  -13.6520   29.6220 N.am   76  ASN76      -0.0877
    126  N         21.7620  -14.0450   21.2000 N.3    84  ARG84      -0.1245
    127  CA        22.9350  -13.4960   21.8440 C.3    84  ARG84       0.1563
    128  C         23.7560  -12.8620   20.7370 C.2    84  ARG84       0.2260
    129  O         24.7810  -12.2320   20.9820 O.2    84  ARG84      -0.2867
    130  CB        23.7560  -14.5990   22.5010 C.3    84  ARG84       0.0307
    131  CG        22.9780  -15.4890   23.4350 C.3    84  ARG84       0.0489
    132  CD        23.9090  -16.0520   24.4780 C.3    84  ARG84       0.2205
    133  NE        24.4010  -14.9780   25.3280 N.pl3  84  ARG84      -0.0865
    134  CZ        25.3100  -15.1280   26.2810 C.cat  84  ARG84       0.5346
    135  NH1       25.6820  -14.0800   26.9980 N.pl3  84  ARG84       0.1354
    136  NH2       25.8490  -16.3180   26.5110 N.pl3  84  ARG84       0.1354
@<TRIPOS>BOND
     1    48    47    2
     2    38    37    2
     3    37    36    1
     4    47    46    1
     5    45    46    1
     6    27    28    1
     7    46    49    1
     8    39    36    1
     9    39    40    1
    10    36    35    1
    11    30    29    2
    12    35    29   am
    13    12    13    1
    14    29    28    1
    15    23    24    2
    16    23    22    1
    17    28    31    1
    18    15    14    2
    19    13    14    1
    20    13    16    1
    21    49    50    1
    22    14    21   am
    23    40    42   ar
    24    40    41   ar
    25    21    22    1
    26   128   129    2
    27   128   127    1
    28    42    44   ar
    29    22    25    1
    30    31    32    1
    31    31    33    1
    32    25    26    1
    33   126   127    1
    34    41    43   ar
    35    50    51   ar
    36    50    52   ar
    37    32    34    1
    38     3     4    2
    39     3     2    1
    40    16    17    1
    41     1     2    1
    42    17    18    1
    43   127   130    1
    44    51    53   ar
    45    44    43   ar
    46    55    52   ar
    47    55    57   ar
    48    52    54   ar
    49     2     5    1
    50   130   131    1
    51    57    58   ar
    52    53    54   ar
    53    54    56   ar
    54    18    20   ar
    55    18    19   ar
    56   131   132    1
    57     5     6    1
    58    58    56   ar
    59     6     7    1
    60   132   133    1
    61   116   115    1
    62   113   114    1
    63   113   112    1
    64   133   134    2
    65   115   114    2
    66   115   117    1
    67   112   111    1
    68    10     9    1
    69     7     8    1
    70   134   136    1
    71   134   135    1
    72     9     8    2
    73     9    11    1
    74   111   108    1
    75    95    93   ar
    76   110   109    2
    77   108   109    1
    78   108   107    1
    79    94    93   ar
    80   109   118   am
    81    93    92    1
    82   118   119    1
    83   119   120    1
    84   119   122    1
    85    92    91    1
    86    81    79    1
    87    80    82    1
    88    80    79    1
    89   125   123   am
    90    88    87    1
    91    88    91    1
    92    88    89    1
    93   120   121    2
    94    90    89    2
    95    66    65   ar
    96   122   123    1
    97   123   124    2
    98    79    76    1
    99    89    96   am
   100    67    65   ar
   101    65    64    1
   102    76    77    1
   103    76    75    1
   104    78    77    2
   105    99    98    2
   106    64    63    1
   107    96    97    1
   108    77    83   am
   109    98    97    1
   110    97   100    1
   111    63    60    1
   112    83    84    1
   113    60    61    1
   114    60    59    1
   115    62    61    2
   116    86    85    2
   117    85    84    1
   118    61    68   am
   119   100   101    1
   120   102   101   ar
   121   102   104   ar
   122    68    69    1
   123   101   103   ar
   124    69    70    1
   125    69    72    1
   126   104   106   ar
   127    71    70    2
   128   103   105   ar
   129    74    72    1
   130   106   105   ar
   131    72    73    1
