@<TRIPOS>MOLECULE
tmp/3plfD00.pdb
 121 117 0 0 0
SMALL
GASTEIGER

@<TRIPOS>ATOM
      1  N         -1.8960    5.7700   37.1890 N.3    32  SER32      -0.1203
      2  CA        -1.6380    4.3530   37.1520 C.3    32  SER32       0.2005
      3  C         -0.2970    4.2360   36.4870 C.2    32  SER32       0.2460
      4  O         -0.0860    4.8380   35.4250 O.2    32  SER32      -0.2732
      5  CB        -2.6760    3.7100   36.2390 C.3    32  SER32       0.2103
      6  OG        -2.3560    2.3790   35.9750 O.3    32  SER32      -0.2182
      7  N          0.6570    3.5890   37.1230 N.am   33  PRO33      -0.2728
      8  CA         2.0070    3.5850   36.5220 C.3    33  PRO33       0.1401
      9  C          1.9810    2.9230   35.1530 C.2    33  PRO33       0.2269
     10  O          1.3000    1.9280   34.9810 O.2    33  PRO33      -0.2865
     11  CB         2.7830    2.7680   37.5180 C.3    33  PRO33       0.0296
     12  CG         2.1010    3.0320   38.7840 C.3    33  PRO33       0.0237
     13  CD         0.6710    2.9700   38.4620 C.3    33  PRO33       0.0939
     14  N          0.2710   -1.8640   32.3190 N.3   226  TYR226     -0.1227
     15  CA        -0.7960   -2.5340   33.0540 C.3   226  TYR226      0.1736
     16  C         -2.1450   -2.2440   32.4460 C.2   226  TYR226      0.2595
     17  O         -2.8810   -3.1680   32.1010 O.2   226  TYR226     -0.2718
     18  CB        -0.7720   -2.0550   34.5380 C.3   226  TYR226      0.0548
     19  CG        -1.7810   -2.8010   35.3990 C.ar  226  TYR226     -0.0200
     20  CD1       -1.4110   -3.9130   36.1040 C.ar  226  TYR226     -0.0009
     21  CD2       -3.1170   -2.4050   35.4330 C.ar  226  TYR226     -0.0009
     22  CE1       -2.3400   -4.5900   36.9480 C.ar  226  TYR226      0.0417
     23  CE2       -4.0330   -3.0740   36.2130 C.ar  226  TYR226      0.0417
     24  CZ        -3.6390   -4.1720   36.9550 C.ar  226  TYR226      0.1957
     25  OH        -4.5870   -4.8510   37.6970 O.3   226  TYR226     -0.2866
     26  N         -2.4960   -0.9740   32.2710 N.am  227  ASP227     -0.1974
     27  CA        -3.8000   -0.6450   31.6730 C.3   227  ASP227      0.1709
     28  C         -3.9700   -1.1300   30.2400 C.2   227  ASP227      0.2293
     29  O         -5.0540   -1.5890   29.8560 O.2   227  ASP227     -0.2864
     30  CB        -4.0660    0.8630   31.7310 C.3   227  ASP227      0.1436
     31  CG        -4.1810    1.3780   33.1710 C.2   227  ASP227      0.3671
     32  OD1       -4.5530    0.5920   34.0630 O.co2 227  ASP227     -0.2456
     33  OD2       -3.8480    2.5540   33.4280 O.co2 227  ASP227     -0.2456
     34  N          4.5390   -9.1800   29.9340 N.3   246  ARG246     -0.1245
     35  CA         5.2850   -7.9640   29.6090 C.3   246  ARG246      0.1563
     36  C          6.1830   -7.6420   30.7940 C.2   246  ARG246      0.2260
     37  O          6.0380   -8.2380   31.8550 O.2   246  ARG246     -0.2867
     38  CB         4.2980   -6.7890   29.4300 C.3   246  ARG246      0.0307
     39  CG         3.6360   -6.4230   30.8060 C.3   246  ARG246      0.0489
     40  CD         2.5990   -5.3060   30.7390 C.3   246  ARG246      0.2205
     41  NE         1.7860   -5.3520   31.9570 N.pl3 246  ARG246     -0.0865
     42  CZ         2.1100   -4.7800   33.1170 C.cat 246  ARG246      0.5346
     43  NH1        3.2540   -4.0530   33.2430 N.pl3 246  ARG246      0.1354
     44  NH2        1.3050   -4.8850   34.1820 N.pl3 246  ARG246      0.1354
     45  N          7.0090   -5.7750   34.0030 N.3   248  SER248     -0.1202
     46  CA         6.3980   -4.9440   35.0240 C.3   248  SER248      0.2020
     47  C          7.1490   -3.6320   35.0380 C.2   248  SER248      0.2619
     48  O          8.4090   -3.6480   34.8930 O.2   248  SER248     -0.2717
     49  CB         6.5400   -5.6100   36.3730 C.3   248  SER248      0.2103
     50  OG         6.6570   -4.6400   37.4350 O.3   248  SER248     -0.2182
     51  N          6.4660   -2.4830   35.1350 N.am  249  CYS249     -0.1955
     52  CA         7.2280   -1.2000   35.1550 C.3   249  CYS249      0.1843
     53  C          7.5460   -0.7680   36.5580 C.2   249  CYS249      0.2626
     54  O          8.4850   -0.0210   36.7510 O.2   249  CYS249     -0.2714
     55  CB         6.5520   -0.0710   34.3670 C.3   249  CYS249      0.0997
     56  SG         5.2130    0.7220   35.2040 S.3   249  CYS249     -0.0797
     57  N          6.8020   -1.2390   37.5500 N.am  250  THR250     -0.1936
     58  CA         7.1070   -0.8520   38.9420 C.3   250  THR250      0.2028
     59  C          8.1190   -1.7670   39.6000 C.2   250  THR250      0.2642
     60  O          8.7580   -1.3700   40.5890 O.2   250  THR250     -0.2714
     61  CB         5.8580   -0.7190   39.8280 C.3   250  THR250      0.1808
     62  OG1        5.2440   -2.0220   39.9540 O.3   250  THR250     -0.2208
     63  CG2        4.8980    0.2290   39.1870 C.3   250  THR250      0.0379
     64  N          8.2760   -2.9780   39.0750 N.am  251  ARG251     -0.1977
     65  CA         9.2520   -3.9600   39.5580 C.3   251  ARG251      0.1597
     66  C         10.0850   -4.3720   38.3750 C.2   251  ARG251      0.2287
     67  O         10.0040   -5.4830   37.8830 O.2   251  ARG251     -0.2864
     68  CB         8.5380   -5.1760   40.1660 C.3   251  ARG251      0.0334
     69  CG         7.5580   -4.7690   41.2520 C.3   251  ARG251      0.0492
     70  CD         6.8660   -6.0110   41.9750 C.3   251  ARG251      0.2205
     71  NE         5.5550   -5.6180   42.5050 N.pl3 251  ARG251     -0.0865
     72  CZ         4.6750   -6.4720   43.0440 C.cat 251  ARG251      0.5346
     73  NH1        4.9760   -7.7680   43.1470 N.pl3 251  ARG251      0.1354
     74  NH2        3.4900   -6.0310   43.4880 N.pl3 251  ARG251      0.1354
     75  N          5.1800   -9.3630   34.3680 N.3   256  ALA256     -0.1245
     76  CA         3.7660   -9.2990   34.7330 C.3   256  ALA256      0.1562
     77  C          2.9690  -10.0840   33.7390 C.2   256  ALA256      0.2260
     78  O          3.0300   -9.7880   32.5220 O.2   256  ALA256     -0.2867
     79  CB         3.3210   -7.8510   34.7200 C.3   256  ALA256      0.0290
     80  N         -6.7650  -10.8400   35.3950 N.3   267  LEU267     -0.1231
     81  CA        -5.8830  -10.6780   36.5430 C.3   267  LEU267      0.1693
     82  C         -4.4720  -10.5060   36.0250 C.2   267  LEU267      0.2592
     83  O         -4.1360  -11.0460   34.9620 O.2   267  LEU267     -0.2718
     84  CB        -5.9290  -11.9050   37.4470 C.3   267  LEU267      0.0284
     85  CG        -7.2990  -12.2180   38.0060 C.3   267  LEU267      0.0019
     86  CD1       -7.2640  -13.5200   38.9100 C.3   267  LEU267      0.0001
     87  CD2       -7.8220  -11.0630   38.7620 C.3   267  LEU267      0.0001
     88  N         -3.6350   -9.8200   36.7880 N.am  268  GLN268     -0.1966
     89  CA        -2.2120   -9.7300   36.4060 C.3   268  GLN268      0.1733
     90  C         -1.4060  -10.1520   37.6250 C.2   268  GLN268      0.2617
     91  O         -1.7230   -9.7350   38.7720 O.2   268  GLN268     -0.2715
     92  CB        -1.8520   -8.3520   35.9460 C.3   268  GLN268      0.0408
     93  CG        -2.7070   -7.9590   34.6590 C.3   268  GLN268      0.0908
     94  CD        -2.3010   -6.6420   34.0780 C.2   268  GLN268      0.2608
     95  OE1       -1.0970   -6.3840   33.8220 O.2   268  GLN268     -0.2717
     96  NE2       -3.2750   -5.7900   33.8350 N.am  268  GLN268     -0.0878
     97  N         -0.3920  -10.9530   37.4070 N.am  269  THR269     -0.1937
     98  CA         0.4260  -11.4730   38.5120 C.3   269  THR269      0.2028
     99  C          1.9170  -11.3630   38.1730 C.2   269  THR269      0.2642
    100  O          2.2820  -11.4190   36.9860 O.2   269  THR269     -0.2714
    101  CB         0.0220  -12.9350   38.7810 C.3   269  THR269      0.1808
    102  OG1        0.7800  -13.4430   39.8910 O.3   269  THR269     -0.2208
    103  CG2        0.3440  -13.7720   37.6890 C.3   269  THR269      0.0379
    104  N          2.7690  -11.1850   39.1920 N.am  270  ILE270     -0.1977
    105  CA         4.2030  -11.1940   39.0030 C.3   270  ILE270      0.1596
    106  C          4.7270  -12.4960   39.6630 C.2   270  ILE270      0.2287
    107  O          4.5390  -12.6880   40.8810 O.2   270  ILE270     -0.2864
    108  CB         4.7870   -9.9320   39.6790 C.3   270  ILE270      0.0276
    109  CG1        4.2590   -8.7010   38.8760 C.3   270  ILE270      0.0022
    110  CG2        6.3400  -10.0310   39.6920 C.3   270  ILE270      0.0022
    111  CD1        4.7810   -7.3370   39.2670 C.3   270  ILE270      0.0001
    112  N          6.4850  -15.2980   41.7550 N.3   272  HIS272     -0.1241
    113  CA         7.2850  -15.1470   42.9470 C.3   272  HIS272      0.1621
    114  C          8.4250  -16.1570   42.8450 C.2   272  HIS272      0.2264
    115  O          8.1640  -17.3440   42.8360 O.2   272  HIS272     -0.2867
    116  CB         6.4130  -15.3990   44.2090 C.3   272  HIS272      0.0745
    117  CG         7.1620  -15.2610   45.5110 C.ar  272  HIS272      0.0817
    118  ND1        7.8410  -14.1060   45.8690 N.ar  272  HIS272     -0.2268
    119  CD2        7.3780  -16.1520   46.5150 C.ar  272  HIS272      0.1154
    120  CE1        8.4450  -14.2970   47.0380 C.ar  272  HIS272      0.1986
    121  NE2        8.1740  -15.5260   47.4490 N.ar  272  HIS272     -0.2212
@<TRIPOS>BOND
     1    38    35    1
     2    38    39    1
     3    35    34    1
     4    35    36    1
     5    29    28    2
     6    28    27    1
     7    40    39    1
     8    40    41    1
     9    36    37    2
    10    27    30    1
    11    27    26    1
    12    30    31    1
    13    41    42    2
    14    17    16    2
    15    26    16   am
    16    14    15    1
    17    16    15    1
    18    78    77    2
    19    15    18    1
    20    42    43    1
    21    42    44    1
    22    31    33   ar
    23    31    32   ar
    24    77    76    1
    25    95    94    2
    26    96    94   am
    27    45    46    1
    28    94    93    1
    29    55    52    1
    30    55    56    1
    31    75    76    1
    32    18    19    1
    33    93    92    1
    34    79    76    1
    35    48    47    2
    36    83    82    2
    37    10     9    2
    38    46    47    1
    39    46    49    1
    40    47    51   am
    41    51    52    1
    42     9     8    1
    43    52    53    1
    44    80    81    1
    45    19    21   ar
    46    19    20   ar
    47     4     3    2
    48    21    23   ar
    49    92    89    1
    50     6     5    1
    51    82    81    1
    52    82    88   am
    53    20    22   ar
    54    23    24   ar
    55     5     2    1
    56    49    50    1
    57    89    88    1
    58    89    90    1
    59     3     7   am
    60     3     2    1
    61     8     7    1
    62     8    11    1
    63    81    84    1
    64    53    54    2
    65    53    57   am
    66    22    24   ar
    67    24    25    1
    68   100    99    2
    69     7    13    1
    70     2     1    1
    71    97    90   am
    72    97    98    1
    73    84    85    1
    74    11    12    1
    75    57    58    1
    76    90    91    2
    77   103   101    1
    78    67    66    2
    79    85    87    1
    80    85    86    1
    81    99    98    1
    82    99   104   am
    83    66    65    1
    84    13    12    1
    85    98   101    1
    86   101   102    1
    87   109   111    1
    88   109   108    1
    89    58    59    1
    90    58    61    1
    91   105   104    1
    92   105   106    1
    93   105   108    1
    94    64    65    1
    95    64    59   am
    96    63    61    1
    97    65    68    1
    98    59    60    2
    99   106   107    2
   100   108   110    1
   101    61    62    1
   102    68    69    1
   103    69    70    1
   104   112   113    1
   105    70    71    1
   106    71    72    2
   107   115   114    2
   108   114   113    1
   109   113   116    1
   110    72    73    1
   111    72    74    1
   112   116   117    1
   113   117   118   ar
   114   117   119   ar
   115   118   120   ar
   116   119   121   ar
   117   120   121   ar
