@<TRIPOS>MOLECULE
tmp/3plnA00.pdb
 117 110 0 0 0
SMALL
GASTEIGER

@<TRIPOS>ATOM
      1  N         33.5930   11.5490   55.5090 N.3   148  ARG148     -0.1245
      2  CA        32.2430   12.1620   55.4370 C.3   148  ARG148      0.1563
      3  C         31.5780   11.9840   56.7890 C.2   148  ARG148      0.2260
      4  O         31.5260   10.8410   57.2720 O.2   148  ARG148     -0.2867
      5  CB        31.4080   11.4070   54.4250 C.3   148  ARG148      0.0307
      6  CG        31.7590   11.6480   53.0090 C.3   148  ARG148      0.0489
      7  CD        31.0900   12.9150   52.5930 C.3   148  ARG148      0.2205
      8  NE        31.3730   13.2580   51.2090 N.pl3 148  ARG148     -0.0865
      9  CZ        30.8100   14.2910   50.5890 C.cat 148  ARG148      0.5346
     10  NH1       29.9360   15.0640   51.2500 N.pl3 148  ARG148      0.1354
     11  NH2       31.1270   14.5400   49.3240 N.pl3 148  ARG148      0.1354
     12  N         36.5050   20.2360   43.0010 N.3   208  LEU208     -0.1245
     13  CA        35.1200   19.7980   42.9880 C.3   208  LEU208      0.1561
     14  C         34.1730   20.9860   42.8350 C.2   208  LEU208      0.2260
     15  O         33.1350   20.9060   42.1150 O.2   208  LEU208     -0.2867
     16  CB        34.7940   19.0390   44.2740 C.3   208  LEU208      0.0270
     17  CG        35.6000   17.7460   44.3990 C.3   208  LEU208      0.0019
     18  CD1       35.3760   17.1650   45.7920 C.3   208  LEU208      0.0001
     19  CD2       35.2330   16.8010   43.2670 C.3   208  LEU208      0.0001
     20  N         31.4500   21.5940   39.7550 N.3   212  VAL212     -0.1245
     21  CA        30.0340   21.9360   39.9120 C.3   212  VAL212      0.1561
     22  C         29.7360   23.2930   39.2790 C.2   212  VAL212      0.2260
     23  O         28.6800   23.4600   38.5960 O.2   212  VAL212     -0.2867
     24  CB        29.6850   21.9910   41.4040 C.3   212  VAL212      0.0252
     25  CG1       28.2330   22.5520   41.6110 C.3   212  VAL212      0.0019
     26  CG2       29.7210   20.5730   41.9620 C.3   212  VAL212      0.0019
     27  N         29.5010   13.9030   39.5780 N.3   246  TYR246     -0.1227
     28  CA        29.6250   15.3240   39.9630 C.3   246  TYR246      0.1736
     29  C         29.3530   16.2770   38.8440 C.2   246  TYR246      0.2595
     30  O         30.1270   17.1980   38.5610 O.2   246  TYR246     -0.2718
     31  CB        31.0560   15.6830   40.5120 C.3   246  TYR246      0.0548
     32  CG        31.1480   15.6140   42.0020 C.ar  246  TYR246     -0.0200
     33  CD1       31.0780   14.3710   42.5620 C.ar  246  TYR246     -0.0009
     34  CD2       31.2190   16.7260   42.8220 C.ar  246  TYR246     -0.0009
     35  CE1       31.0750   14.1670   43.8540 C.ar  246  TYR246      0.0417
     36  CE2       31.1900   16.4930   44.2640 C.ar  246  TYR246      0.0417
     37  CZ        31.1340   15.2100   44.7210 C.ar  246  TYR246      0.1957
     38  OH        31.2140   14.7240   46.0540 O.3   246  TYR246     -0.2866
     39  N         28.1780   16.0890   38.2280 N.am  247  ASN247     -0.1960
     40  CA        27.8150   16.8370   37.0520 C.3   247  ASN247      0.1819
     41  C         26.3280   17.1660   37.0570 C.2   247  ASN247      0.2621
     42  O         25.7290   17.4160   35.9920 O.2   247  ASN247     -0.2715
     43  CB        28.1650   15.9720   35.8050 C.3   247  ASN247      0.1195
     44  CG        27.3630   14.6890   35.7200 C.2   247  ASN247      0.2630
     45  OD1       27.3390   14.0110   34.6230 O.2   247  ASN247     -0.2716
     46  ND2       26.7480   14.2880   36.7920 N.am  247  ASN247     -0.0877
     47  N         25.7290   17.1740   38.2630 N.am  248  ASN248     -0.1972
     48  CA        24.2810   17.4290   38.3880 C.3   248  ASN248      0.1688
     49  C         24.0300   18.9060   38.6930 C.2   248  ASN248      0.2292
     50  O         24.4130   19.3770   39.7660 O.2   248  ASN248     -0.2864
     51  CB        23.7040   16.5620   39.5070 C.3   248  ASN248      0.1181
     52  CG        22.1910   16.4800   39.4470 C.2   248  ASN248      0.2629
     53  OD1       21.5830   16.7030   38.4240 O.2   248  ASN248     -0.2716
     54  ND2       21.5860   16.0840   40.5800 N.am  248  ASN248     -0.0877
     55  N         22.7120   22.5200   39.8860 N.3   250  SER250     -0.1217
     56  CA        22.1250   22.8830   41.1630 C.3   250  SER250      0.1889
     57  C         22.0360   24.3700   41.2690 C.2   250  SER250      0.2288
     58  O         22.3430   25.1240   40.3380 O.2   250  SER250     -0.2866
     59  CB        22.9910   22.3320   42.2940 C.3   250  SER250      0.2089
     60  OG        24.2610   22.9970   42.2660 O.3   250  SER250     -0.2183
     61  N         23.8860   26.0520   43.1030 N.3   252  GLY252     -0.1210
     62  CA        25.2450   26.5120   43.4340 C.3   252  GLY252      0.1956
     63  C         25.8940   25.4730   44.3230 C.2   252  GLY252      0.2612
     64  O         25.2180   24.6530   44.9700 O.2   252  GLY252     -0.2717
     65  N         27.2300   25.4400   44.3460 N.am  253  TYR253     -0.1962
     66  CA        27.8300   24.4800   45.2690 C.3   253  TYR253      0.1771
     67  C         27.6370   24.9830   46.7000 C.2   253  TYR253      0.2620
     68  O         27.6520   26.2090   46.9770 O.2   253  TYR253     -0.2715
     69  CB        29.3610   24.2420   44.9410 C.3   253  TYR253      0.0574
     70  CG        30.2960   25.4510   44.9200 C.ar  253  TYR253     -0.0198
     71  CD1       30.8440   25.9980   46.1180 C.ar  253  TYR253     -0.0009
     72  CD2       30.6110   26.0940   43.7090 C.ar  253  TYR253     -0.0009
     73  CE1       31.6530   27.1180   46.0830 C.ar  253  TYR253      0.0417
     74  CE2       31.4230   27.2250   43.6700 C.ar  253  TYR253      0.0417
     75  CZ        31.9400   27.7490   44.8680 C.ar  253  TYR253      0.1957
     76  OH        32.6660   28.9210   44.8590 O.3   253  TYR253     -0.2866
     77  N         27.4090   24.0270   47.6140 N.am  254  GLY254     -0.1940
     78  CA        27.2310   24.4130   49.0120 C.3   254  GLY254      0.2014
     79  C         27.8330   23.3540   49.9100 C.2   254  GLY254      0.2639
     80  O         28.8820   22.8000   49.5750 O.2   254  GLY254     -0.2714
     81  N         27.1890   23.1120   51.0500 N.am  255  GLY255     -0.1954
     82  CA        27.7530   22.1350   51.9680 C.3   255  GLY255      0.1869
     83  C         28.6770   22.8470   52.9590 C.2   255  GLY255      0.2309
     84  O         28.8520   24.0820   52.9740 O.2   255  GLY255     -0.2863
     85  N         32.9740   23.1990   50.6900 N.3   258  LEU258     -0.1245
     86  CA        33.3290   23.8930   49.4600 C.3   258  LEU258      0.1561
     87  C         33.2750   25.4230   49.5080 C.2   258  LEU258      0.2260
     88  O         34.2120   26.0980   49.0510 O.2   258  LEU258     -0.2867
     89  CB        32.5030   23.2990   48.2960 C.3   258  LEU258      0.0270
     90  CG        33.1710   22.1110   47.5430 C.3   258  LEU258      0.0019
     91  CD1       33.6500   20.9820   48.4690 C.3   258  LEU258      0.0001
     92  CD2       32.1570   21.5880   46.4860 C.3   258  LEU258      0.0001
     93  N         23.0590   23.8780   50.7960 N.3   309  SER309     -0.1217
     94  CA        22.7330   25.1790   51.4610 C.3   309  SER309      0.1889
     95  C         22.7000   26.3160   50.4550 C.2   309  SER309      0.2288
     96  O         22.4940   27.4480   50.8300 O.2   309  SER309     -0.2866
     97  CB        23.7660   25.4770   52.5590 C.3   309  SER309      0.2089
     98  OG        25.0670   24.9620   52.1620 O.3   309  SER309     -0.2183
     99  N         16.4410   22.3050   45.4860 N.3   359  ASN359     -0.1225
    100  CA        17.6860   22.0320   44.8390 C.3   359  ASN359      0.1785
    101  C         17.6040   20.6850   44.1390 C.2   359  ASN359      0.2597
    102  O         18.1730   20.5230   43.0400 O.2   359  ASN359     -0.2718
    103  CB        18.8090   22.0540   45.8700 C.3   359  ASN359      0.1169
    104  CG        20.1240   22.2860   45.2570 C.2   359  ASN359      0.2627
    105  OD1       20.2830   23.1500   44.3680 O.2   359  ASN359     -0.2716
    106  ND2       21.1350   21.5490   45.7650 N.am  359  ASN359     -0.0877
    107  N         16.9420   19.7060   44.7270 N.am  360  ARG360     -0.1979
    108  CA        16.7920   18.4130   44.0820 C.3   360  ARG360      0.1597
    109  C         15.3110   18.0560   44.0920 C.2   360  ARG360      0.2287
    110  O         14.5650   18.4470   45.0270 O.2   360  ARG360     -0.2864
    111  CB        17.6010   17.3310   44.8240 C.3   360  ARG360      0.0334
    112  CG        19.0560   17.1300   44.2430 C.3   360  ARG360      0.0492
    113  CD        19.9770   18.2250   44.7090 C.3   360  ARG360      0.2205
    114  NE        21.2900   18.1330   44.0430 N.pl3 360  ARG360     -0.0865
    115  CZ        21.6130   18.6760   42.8670 C.cat 360  ARG360      0.5346
    116  NH1       20.7310   19.3840   42.1300 N.pl3 360  ARG360      0.1354
    117  NH2       22.8870   18.5420   42.4540 N.pl3 360  ARG360      0.1354
@<TRIPOS>BOND
     1    45    44    2
     2    44    43    1
     3    44    46   am
     4    43    40    1
     5    42    41    2
     6    40    41    1
     7    40    39    1
     8    41    47   am
     9    39    29   am
    10    47    48    1
    11    48    49    1
    12    48    51    1
    13    53    52    2
    14    30    29    2
    15    23    22    2
    16    49    50    2
    17    29    28    1
    18    22    21    1
    19    52    51    1
    20    52    54   am
    21    27    28    1
    22    20    21    1
    23    55    56    1
    24    21    24    1
    25    28    31    1
    26    58    57    2
    27    31    32    1
    28    56    57    1
    29    56    59    1
    30    24    25    1
    31    24    26    1
    32    32    33   ar
    33    32    34   ar
    34    15    14    2
    35   116   115    1
    36    60    59    1
    37   117   115    1
    38    33    35   ar
    39    34    36   ar
    40    14    13    1
    41   115   114    2
    42    13    12    1
    43    13    16    1
    44   102   101    2
    45    61    62    1
    46    19    17    1
    47    62    63    1
    48    74    72   ar
    49    74    75   ar
    50    72    70   ar
    51    35    37   ar
    52   114   113    1
    53   108   109    1
    54   108   107    1
    55   108   111    1
    56   109   110    2
    57   101   107   am
    58   101   100    1
    59   112   113    1
    60   112   111    1
    61    36    37   ar
    62    16    17    1
    63    63    65   am
    64    63    64    2
    65    65    66    1
    66   105   104    2
    67    17    18    1
    68    37    38    1
    69   100    99    1
    70   100   103    1
    71    76    75    1
    72    75    73   ar
    73    70    69    1
    74    70    71   ar
    75    69    66    1
    76   104   106   am
    77   104   103    1
    78    66    67    1
    79    73    71   ar
    80    92    90    1
    81    67    68    2
    82    67    77   am
    83    90    89    1
    84    90    91    1
    85    77    78    1
    86    89    86    1
    87    78    79    1
    88    88    87    2
    89    11     9    1
    90    86    87    1
    91    86    85    1
    92    80    79    2
    93    79    81   am
    94    95    96    2
    95    95    94    1
    96     9     8    2
    97     9    10    1
    98    93    94    1
    99    81    82    1
   100     8     7    1
   101    94    97    1
   102    82    83    1
   103    98    97    1
   104     7     6    1
   105    83    84    2
   106     6     5    1
   107     5     2    1
   108     2     1    1
   109     2     3    1
   110     3     4    2
