@<TRIPOS>MOLECULE
tmp/3plrA00.pdb
 215 204 0 0 0
SMALL
GASTEIGER

@<TRIPOS>ATOM
      1  N         44.1940   12.7880   70.0870 N.3     8  SER8       -0.1202
      2  CA        43.7660   13.9460   70.8340 C.3     8  SER8        0.2020
      3  C         42.5480   14.5200   70.1060 C.2     8  SER8        0.2619
      4  O         42.6970   15.0530   69.0170 O.2     8  SER8       -0.2717
      5  CB        44.8720   15.0130   70.8880 C.3     8  SER8        0.2103
      6  OG        45.9800   14.4970   71.5800 O.3     8  SER8       -0.2182
      7  N         41.3510   14.3680   70.7060 N.am    9  GLY9       -0.1942
      8  CA        40.1110   14.8630   70.1290 C.3     9  GLY9        0.2014
      9  C         39.3240   13.6570   69.6660 C.2     9  GLY9        0.2640
     10  O         39.7300   13.0170   68.6930 O.2     9  GLY9       -0.2714
     11  N         38.2260   13.3500   70.3370 N.am   10  THR10      -0.1936
     12  CA        37.4290   12.1980   69.9920 C.3    10  THR10       0.2028
     13  C         36.1650   12.5250   69.2230 C.2    10  THR10       0.2643
     14  O         35.0490   12.1720   69.6280 O.2    10  THR10      -0.2714
     15  CB        37.0810   11.3690   71.2410 C.3    10  THR10       0.1808
     16  OG1       36.2060   12.1290   72.0840 O.3    10  THR10      -0.2208
     17  CG2       38.3640   11.0020   72.0090 C.3    10  THR10       0.0379
     18  N         36.3490   13.1860   68.0910 N.am   11  GLY11      -0.1939
     19  CA        35.2440   13.5170   67.1890 C.3    11  GLY11       0.2014
     20  C         35.2850   12.5520   66.0050 C.2    11  GLY11       0.2639
     21  O         35.8730   11.4650   66.1180 O.2    11  GLY11      -0.2714
     22  N         34.7180   12.9160   64.8590 N.am   12  TYR12      -0.1959
     23  CA        34.7190   12.0270   63.6920 C.3    12  TYR12       0.1771
     24  C         36.1140   11.6160   63.2660 C.2    12  TYR12       0.2619
     25  O         36.3790   10.4380   62.9960 O.2    12  TYR12      -0.2715
     26  CB        34.0830   12.7070   62.4680 C.3    12  TYR12       0.0574
     27  CG        32.6330   12.9670   62.6670 C.ar   12  TYR12      -0.0198
     28  CD1       31.7080   11.9600   62.4480 C.ar   12  TYR12      -0.0009
     29  CD2       32.2010   14.1650   63.2190 C.ar   12  TYR12      -0.0009
     30  CE1       30.3510   12.1170   62.7910 C.ar   12  TYR12       0.0417
     31  CE2       30.8340   14.3530   63.5730 C.ar   12  TYR12       0.0417
     32  CZ        29.9300   13.3110   63.3480 C.ar   12  TYR12       0.1957
     33  OH        28.6010   13.4630   63.6660 O.3    12  TYR12      -0.2866
     34  N         37.0240   12.5850   63.2160 N.am   13  VAL13      -0.1977
     35  CA        38.3530   12.2930   62.7340 C.3    13  VAL13       0.1596
     36  C         39.1540   11.4830   63.7260 C.2    13  VAL13       0.2287
     37  O         39.7630   10.4750   63.3450 O.2    13  VAL13      -0.2864
     38  CB        39.1050   13.6120   62.3800 C.3    13  VAL13       0.0276
     39  CG1       40.5690   13.3160   61.9570 C.3    13  VAL13       0.0022
     40  CG2       38.3780   14.2680   61.1750 C.3    13  VAL13       0.0022
     41  N         42.0480   10.7580   74.0180 N.3    30  LEU30      -0.1231
     42  CA        41.9670   11.8840   74.9530 C.3    30  LEU30       0.1693
     43  C         40.9540   12.9320   74.5350 C.2    30  LEU30       0.2592
     44  O         40.9480   13.3290   73.3900 O.2    30  LEU30      -0.2718
     45  CB        43.3400   12.5580   75.0420 C.3    30  LEU30       0.0284
     46  CG        43.3670   13.8970   75.8520 C.3    30  LEU30       0.0019
     47  CD1       43.3670   13.6230   77.3080 C.3    30  LEU30       0.0001
     48  CD2       44.6300   14.6540   75.5560 C.3    30  LEU30       0.0001
     49  N         40.0260   13.3170   75.4170 N.am   31  ASP31      -0.1960
     50  CA        39.1680   14.4440   75.0680 C.3    31  ASP31       0.1840
     51  C         39.1420   15.3870   76.2710 C.2    31  ASP31       0.2622
     52  O         39.6560   15.0720   77.3230 O.2    31  ASP31      -0.2715
     53  CB        37.7570   14.0190   74.7170 C.3    31  ASP31       0.1450
     54  CG        37.0860   15.0330   73.7970 C.2    31  ASP31       0.3671
     55  OD1       36.4890   16.0080   74.3040 O.co2  31  ASP31      -0.2456
     56  OD2       37.1830   14.8440   72.5500 O.co2  31  ASP31      -0.2456
     57  N         38.5860   16.5750   76.0890 N.am   32  ILE32      -0.1963
     58  CA        38.5210   17.5130   77.2020 C.3    32  ILE32       0.1727
     59  C         37.1640   17.3930   77.8580 C.2    32  ILE32       0.2616
     60  O         36.9640   17.8940   78.9610 O.2    32  ILE32      -0.2715
     61  CB        38.6750   18.9550   76.7450 C.3    32  ILE32       0.0290
     62  CG1       37.6930   19.2620   75.6140 C.3    32  ILE32       0.0022
     63  CG2       40.0840   19.2130   76.3680 C.3    32  ILE32       0.0023
     64  CD1       37.8200   20.7060   75.1470 C.3    32  ILE32       0.0001
     65  N         36.2240   16.7620   77.1710 N.am   33  VAL33      -0.1977
     66  CA        34.8740   16.5690   77.7060 C.3    33  VAL33       0.1596
     67  C         34.7630   15.2130   78.4470 C.2    33  VAL33       0.2287
     68  O         34.7160   14.1370   77.8590 O.2    33  VAL33      -0.2864
     69  CB        33.8220   16.6580   76.5860 C.3    33  VAL33       0.0276
     70  CG1       32.4290   16.5580   77.2040 C.3    33  VAL33       0.0022
     71  CG2       33.9720   18.0050   75.8360 C.3    33  VAL33       0.0022
     72  N         32.2020   12.5900   77.2900 N.3    36  LYS36      -0.1245
     73  CA        32.4640   11.8650   76.0480 C.3    36  LYS36       0.1561
     74  C         33.4050   10.7060   76.4000 C.2    36  LYS36       0.2260
     75  O         33.2550    9.6210   75.8980 O.2    36  LYS36      -0.2867
     76  CB        33.1840   12.7520   75.0310 C.3    36  LYS36       0.0271
     77  CG        32.3570   13.8970   74.5150 C.3    36  LYS36       0.0035
     78  CD        33.1500   14.6300   73.4280 C.3    36  LYS36       0.0206
     79  CE        32.3960   15.8600   72.8850 C.3    36  LYS36       0.1093
     80  NZ        31.2340   15.4300   72.0760 N.3    36  LYS36      -0.1314
     81  N         29.4020   10.1240   68.8080 N.3    47  ILE47      -0.1245
     82  CA        29.0280   10.6670   67.5020 C.3    47  ILE47       0.1561
     83  C         28.2060    9.6830   66.7210 C.2    47  ILE47       0.2260
     84  O         28.1300    8.5130   67.0690 O.2    47  ILE47      -0.2867
     85  CB        30.2360   10.9940   66.5930 C.3    47  ILE47       0.0252
     86  CG1       31.0240    9.7080   66.2810 C.3    47  ILE47       0.0019
     87  CG2       31.0810   12.0720   67.2390 C.3    47  ILE47       0.0019
     88  CD1       32.3180    9.9020   65.5050 C.3    47  ILE47       0.0001
     89  N         43.5090   15.6480   66.3540 N.3    82  ALA82      -0.1231
     90  CA        42.2490   15.7100   65.6130 C.3    82  ALA82       0.1694
     91  C         41.2780   16.6250   66.3190 C.2    82  ALA82       0.2593
     92  O         40.0890   16.3130   66.4530 O.2    82  ALA82      -0.2718
     93  CB        41.6660   14.2610   65.4980 C.3    82  ALA82       0.0304
     94  N         41.8200   17.7410   66.8310 N.am   83  THR83      -0.1940
     95  CA        41.0170   18.7530   67.5340 C.3    83  THR83       0.2013
     96  C         40.4050   19.7570   66.5370 C.2    83  THR83       0.2484
     97  O         40.8450   19.9000   65.3860 O.2    83  THR83      -0.2729
     98  CB        41.9130   19.4270   68.5900 C.3    83  THR83       0.1807
     99  OG1       43.1140   19.8890   67.9640 O.3    83  THR83      -0.2208
    100  CG2       42.2900   18.3680   69.7040 C.3    83  THR83       0.0379
    101  N         39.3750   20.4860   66.9550 N.am   84  PRO84      -0.2715
    102  CA        38.7090   21.4470   66.0650 C.3    84  PRO84       0.1536
    103  C         39.5560   22.6180   65.5910 C.2    84  PRO84       0.2599
    104  O         40.3450   23.1470   66.3400 O.2    84  PRO84      -0.2715
    105  CB        37.5780   22.0060   66.9220 C.3    84  PRO84       0.0310
    106  CG        37.2780   20.9080   67.8890 C.3    84  PRO84       0.0237
    107  CD        38.7200   20.4490   68.2710 C.3    84  PRO84       0.0939
    108  N         39.3660   23.0370   64.3390 N.am   85  THR85      -0.1951
    109  CA        40.0610   24.2200   63.8480 C.3    85  THR85       0.1897
    110  C         39.0330   24.8790   62.9530 C.2    85  THR85       0.2313
    111  O         38.0490   24.2470   62.5610 O.2    85  THR85      -0.2863
    112  CB        41.3120   23.9210   63.0060 C.3    85  THR85       0.1794
    113  OG1       40.9290   23.0810   61.9060 O.3    85  THR85      -0.2208
    114  CG2       42.3710   23.2030   63.8680 C.3    85  THR85       0.0378
    115  N         43.6260   24.9240   69.0670 N.3    98  THR98      -0.1218
    116  CA        43.5710   23.6260   69.7610 C.3    98  THR98       0.1862
    117  C         44.7550   22.7690   69.3380 C.2    98  THR98       0.2287
    118  O         45.3080   22.0070   70.1610 O.2    98  THR98      -0.2866
    119  CB        42.2690   22.8410   69.4630 C.3    98  THR98       0.1770
    120  OG1       42.2890   22.4880   68.0660 O.3    98  THR98      -0.2211
    121  CG2       41.0060   23.6530   69.8330 C.3    98  THR98       0.0375
    122  N         47.8210   23.9570   71.1730 N.3   101  ALA101     -0.1231
    123  CA        47.7570   23.5870   72.6260 C.3   101  ALA101      0.1694
    124  C         48.1670   22.1450   72.7640 C.2   101  ALA101      0.2591
    125  O         48.8970   21.7840   73.6930 O.2   101  ALA101     -0.2718
    126  CB        46.2980   23.7580   73.1760 C.3   101  ALA101      0.0304
    127  N         47.6880   21.2980   71.8430 N.am  102  VAL102     -0.1980
    128  CA        48.0990   19.8950   71.9260 C.3   102  VAL102      0.1595
    129  C         49.6040   19.7850   71.6780 C.2   102  VAL102      0.2287
    130  O         50.2980   19.0240   72.3880 O.2   102  VAL102     -0.2864
    131  CB        47.2960   18.9990   70.9280 C.3   102  VAL102      0.0276
    132  CG1       47.8980   17.5570   70.8870 C.3   102  VAL102      0.0022
    133  CG2       45.8320   18.9520   71.4430 C.3   102  VAL102      0.0022
    134  N         51.2840   20.6010   74.8090 N.3   105  ASP105     -0.1239
    135  CA        51.1430   19.5720   75.8230 C.3   105  ASP105      0.1674
    136  C         51.9920   18.3510   75.5560 C.2   105  ASP105      0.2266
    137  O         52.5950   17.8060   76.4670 O.2   105  ASP105     -0.2867
    138  CB        49.7030   19.1180   75.9090 C.3   105  ASP105      0.1410
    139  CG        48.8030   20.1770   76.4830 C.2   105  ASP105      0.3668
    140  OD1       49.3350   21.1170   77.1370 O.co2 105  ASP105     -0.2456
    141  OD2       47.5860   20.0710   76.2840 O.co2 105  ASP105     -0.2456
    142  N         45.9720   15.4750   61.8600 N.3   118  LYS118     -0.1231
    143  CA        44.9090   15.1300   60.9050 C.3   118  LYS118      0.1693
    144  C         43.9310   16.3020   60.7830 C.2   118  LYS118      0.2593
    145  O         43.1910   16.3770   59.8040 O.2   118  LYS118     -0.2718
    146  CB        44.1620   13.8720   61.3550 C.3   118  LYS118      0.0285
    147  CG        44.9560   12.5690   61.0490 C.3   118  LYS118      0.0035
    148  CD        44.7590   12.1880   59.5690 C.3   118  LYS118      0.0206
    149  CE        45.6640   11.0530   59.1710 C.3   118  LYS118      0.1093
    150  NZ        45.4250   10.8150   57.6920 N.3   118  LYS118     -0.1314
    151  N         43.9050   17.1730   61.7980 N.am  119  SER119     -0.1938
    152  CA        43.0730   18.4010   61.7760 C.3   119  SER119      0.2055
    153  C         43.4550   19.2130   60.5300 C.2   119  SER119      0.2643
    154  O         44.5950   19.1610   60.0550 O.2   119  SER119     -0.2714
    155  CB        43.4100   19.2840   62.9860 C.3   119  SER119      0.2130
    156  OG        42.9760   18.6140   64.1640 O.3   119  SER119     -0.2179
    157  N         42.5230   20.0310   60.0450 N.am  120  THR120     -0.1950
    158  CA        42.8380   20.9220   58.9220 C.3   120  THR120      0.1897
    159  C         43.6370   22.1400   59.5060 C.2   120  THR120      0.2313
    160  O         43.3020   22.6820   60.5790 O.2   120  THR120     -0.2863
    161  CB        41.5560   21.4430   58.2060 C.3   120  THR120      0.1794
    162  OG1       40.6580   21.9690   59.1780 O.3   120  THR120     -0.2208
    163  CG2       40.8830   20.3000   57.4530 C.3   120  THR120      0.0378
    164  N         43.4550   14.2430   56.1020 N.3   143  GLU143     -0.1245
    165  CA        42.3380   13.3530   56.3760 C.3   143  GLU143      0.1567
    166  C         41.2990   13.5120   55.2580 C.2   143  GLU143      0.2260
    167  O         40.8310   14.6390   54.9870 O.2   143  GLU143     -0.2867
    168  CB        41.7420   13.7530   57.7200 C.3   143  GLU143      0.0388
    169  CG        40.4740   12.9690   57.9910 C.3   143  GLU143      0.1160
    170  CD        40.7210   11.4640   58.0280 C.2   143  GLU143      0.3649
    171  OE1       41.4770   10.9790   58.8980 O.co2 143  GLU143     -0.2457
    172  OE2       40.1540   10.7180   57.1850 O.co2 143  GLU143     -0.2457
    173  N         38.3270   11.6110   55.0290 N.3   145  LEU145     -0.1231
    174  CA        36.9780   11.0910   55.3230 C.3   145  LEU145      0.1693
    175  C         35.8220   12.0980   55.1900 C.2   145  LEU145      0.2592
    176  O         36.0410   13.3360   55.1880 O.2   145  LEU145     -0.2718
    177  CB        36.9160   10.5170   56.7350 C.3   145  LEU145      0.0284
    178  CG        37.1270   11.5030   57.8920 C.3   145  LEU145      0.0019
    179  CD1       35.8460   12.3310   58.1640 C.3   145  LEU145      0.0001
    180  CD2       37.4760   10.6780   59.1740 C.3   145  LEU145      0.0001
    181  N         34.6100   11.5190   55.1200 N.am  146  ARG146     -0.1966
    182  CA        33.3540   12.2760   55.0590 C.3   146  ARG146      0.1729
    183  C         32.5770   11.9710   56.3230 C.2   146  ARG146      0.2616
    184  O         32.5270   10.8120   56.7500 O.2   146  ARG146     -0.2715
    185  CB        32.4810   11.8190   53.8930 C.3   146  ARG146      0.0348
    186  CG        33.0960   11.9210   52.5140 C.3   146  ARG146      0.0492
    187  CD        32.3260   11.0180   51.5090 C.3   146  ARG146      0.2205
    188  NE        32.4780    9.5830   51.8170 N.pl3 146  ARG146     -0.0865
    189  CZ        31.7170    8.6010   51.3250 C.cat 146  ARG146      0.5346
    190  NH1       30.7170    8.8770   50.4840 N.pl3 146  ARG146      0.1354
    191  NH2       31.9610    7.3400   51.6780 N.pl3 146  ARG146      0.1354
    192  N         31.9770   12.9870   56.9470 N.am  147  GLU147     -0.1977
    193  CA        31.1470   12.7270   58.1310 C.3   147  GLU147      0.1602
    194  C         30.0280   11.7450   57.7520 C.2   147  GLU147      0.2287
    195  O         29.4840   11.7940   56.6310 O.2   147  GLU147     -0.2864
    196  CB        30.5280   14.0170   58.6710 C.3   147  GLU147      0.0415
    197  CG        31.4020   14.6740   59.6830 C.3   147  GLU147      0.1163
    198  CD        30.8630   15.9920   60.2180 C.2   147  GLU147      0.3649
    199  OE1       31.6980   16.8900   60.4190 O.co2 147  GLU147     -0.2457
    200  OE2       29.6370   16.1170   60.4600 O.co2 147  GLU147     -0.2457
    201  N         44.5030   18.9680   50.0320 N.3   199  LYS199     -0.1245
    202  CA        43.0570   19.0500   50.0620 C.3   199  LYS199      0.1561
    203  C         42.5300   20.3480   49.4970 C.2   199  LYS199      0.2260
    204  O         41.4470   20.3470   48.9050 O.2   199  LYS199     -0.2867
    205  CB        42.4920   18.8140   51.4780 C.3   199  LYS199      0.0271
    206  CG        42.6430   17.3520   51.9440 C.3   199  LYS199      0.0035
    207  CD        42.5100   17.2730   53.4940 C.3   199  LYS199      0.0206
    208  CE        41.2230   17.7980   53.9380 C.3   199  LYS199      0.1093
    209  NZ        40.9280   17.3970   55.3320 N.3   199  LYS199     -0.1314
    210  N         32.7170   22.3320   53.1030 N.3   255  CYS255     -0.1235
    211  CA        34.1030   22.5370   52.7320 C.3   255  CYS255      0.1677
    212  C         34.3950   23.3840   51.5290 C.2   255  CYS255      0.2270
    213  O         35.2570   24.2260   51.5860 O.2   255  CYS255     -0.2867
    214  CB        34.7890   21.1910   52.4530 C.3   255  CYS255      0.0956
    215  SG        34.8830   20.1130   53.8990 S.3   255  CYS255     -0.0801
@<TRIPOS>BOND
     1   204   203    2
     2   203   202    1
     3   201   202    1
     4   202   205    1
     5   190   189    1
     6   189   191    1
     7   189   188    2
     8   205   206    1
     9   187   188    1
    10   187   186    1
    11   212   213    2
    12   212   211    1
    13   206   207    1
    14   214   211    1
    15   214   215    1
    16   186   185    1
    17   211   210    1
    18   207   208    1
    19   185   182    1
    20   208   209    1
    21   167   166    2
    22   173   174    1
    23   182   181    1
    24   182   183    1
    25   181   175   am
    26   176   175    2
    27   175   174    1
    28   166   165    1
    29   174   177    1
    30   164   165    1
    31   183   184    2
    32   183   192   am
    33   165   168    1
    34   195   194    2
    35   177   178    1
    36   192   193    1
    37   172   170   ar
    38   163   161    1
    39   150   149    1
    40   168   169    1
    41   194   193    1
    42   178   179    1
    43   178   180    1
    44   169   170    1
    45   170   171   ar
    46   193   196    1
    47   161   158    1
    48   161   162    1
    49   196   197    1
    50   158   159    1
    51   158   157    1
    52   149   148    1
    53   159   160    2
    54   148   147    1
    55   197   198    1
    56   145   144    2
    57   157   153   am
    58   154   153    2
    59   198   199   ar
    60   198   200   ar
    61   153   152    1
    62   144   143    1
    63   144   151   am
    64   143   146    1
    65   143   142    1
    66   147   146    1
    67    40    38    1
    68   152   151    1
    69   152   155    1
    70   113   112    1
    71    39    38    1
    72    38    35    1
    73    28    27   ar
    74    28    30   ar
    75    26    27    1
    76    26    23    1
    77   111   110    2
    78    27    29   ar
    79    35    34    1
    80    35    36    1
    81    30    32   ar
    82   110   109    1
    83   155   156    1
    84    25    24    2
    85   112   109    1
    86   112   114    1
    87    34    24   am
    88    29    31   ar
    89    24    23    1
    90    37    36    2
    91    32    31   ar
    92    32    33    1
    93    23    22    1
    94   109   108    1
    95   108   103   am
    96    22    20   am
    97    97    96    2
    98    93    90    1
    99    88    86    1
   100   103   102    1
   101   103   104    2
   102    90    91    1
   103    90    89    1
   104    20    21    2
   105    20    19    1
   106   102   105    1
   107   102   101    1
   108    86    85    1
   109    91    92    2
   110    91    94   am
   111    96   101   am
   112    96    95    1
   113    85    87    1
   114    85    82    1
   115    83    84    2
   116    83    82    1
   117    94    95    1
   118   105   106    1
   119   101   107    1
   120    19    18    1
   121    82    81    1
   122    95    98    1
   123   106   107    1
   124    99    98    1
   125   120   119    1
   126    18    13   am
   127    98   100    1
   128    10     9    2
   129     4     3    2
   130   115   116    1
   131    13    14    2
   132    13    12    1
   133   117   116    1
   134   117   118    2
   135   119   116    1
   136   119   121    1
   137     9     8    1
   138     9    11   am
   139    12    11    1
   140    12    15    1
   141     1     2    1
   142     3     7   am
   143     3     2    1
   144     8     7    1
   145     2     5    1
   146   132   131    1
   147     5     6    1
   148   131   133    1
   149   131   128    1
   150   122   123    1
   151    15    17    1
   152    15    16    1
   153   129   128    1
   154   129   130    2
   155   127   128    1
   156   127   124   am
   157    80    79    1
   158    56    54   ar
   159   123   124    1
   160   123   126    1
   161   124   125    2
   162    79    78    1
   163    44    43    2
   164    78    77    1
   165    54    55   ar
   166    54    53    1
   167    41    42    1
   168    77    76    1
   169    43    42    1
   170    43    49   am
   171    53    50    1
   172   134   135    1
   173    42    45    1
   174    76    73    1
   175    45    46    1
   176    50    49    1
   177    50    51    1
   178    64    62    1
   179   136   135    1
   180   136   137    2
   181    48    46    1
   182    62    61    1
   183   135   138    1
   184    71    69    1
   185    46    47    1
   186    75    74    2
   187   138   139    1
   188    73    74    1
   189    73    72    1
   190    57    51   am
   191    57    58    1
   192    51    52    2
   193   141   139   ar
   194    63    61    1
   195   139   140   ar
   196    69    70    1
   197    69    66    1
   198    61    58    1
   199    65    66    1
   200    65    59   am
   201    58    59    1
   202    66    67    1
   203    59    60    2
   204    68    67    2
