@<TRIPOS>MOLECULE
tmp/3plsA00.pdb
 178 171 0 0 0
SMALL
GASTEIGER

@<TRIPOS>ATOM
      1  N         37.2810   25.8750   11.3300 N.3    29  ILE29      -0.1231
      2  CA        36.3300   26.5740   10.4660 C.3    29  ILE29       0.1692
      3  C         34.9270   26.4990   11.0630 C.2    29  ILE29       0.2593
      4  O         34.2170   27.4950   11.1170 O.2    29  ILE29      -0.2718
      5  CB        36.3150   25.9860    9.0360 C.3    29  ILE29       0.0266
      6  CG1       37.6340   26.2970    8.3290 C.3    29  ILE29       0.0019
      7  CG2       35.1500   26.5540    8.2310 C.3    29  ILE29       0.0020
      8  CD1       37.8230   25.5530    7.0120 C.3    29  ILE29       0.0001
      9  N         34.5300   25.3090   11.4970 N.am   30  GLY30      -0.1942
     10  CA        33.2260   25.1320   12.1030 C.3    30  GLY30       0.2014
     11  C         32.9650   23.7360   12.6150 C.2    30  GLY30       0.2639
     12  O         33.6930   22.8000   12.3220 O.2    30  GLY30      -0.2714
     13  N         31.8900   23.6130   13.3760 N.am   31  LYS31      -0.1963
     14  CA        31.5690   22.4060   14.1150 C.3    31  LYS31       0.1728
     15  C         30.1400   22.0190   13.7430 C.2    31  LYS31       0.2617
     16  O         29.3120   22.8910   13.4690 O.2    31  LYS31      -0.2715
     17  CB        31.6480   22.7290   15.6080 C.3    31  LYS31       0.0311
     18  CG        32.2500   21.6700   16.5080 C.3    31  LYS31       0.0038
     19  CD        32.0740   22.0840   17.9730 C.3    31  LYS31       0.0206
     20  CE        33.0030   21.3150   18.9140 C.3    31  LYS31       0.1093
     21  NZ        34.4170   21.7720   18.7990 N.3    31  LYS31      -0.1314
     22  N         29.8410   20.7260   13.7230 N.am   32  GLY32      -0.1940
     23  CA        28.4700   20.2800   13.4990 C.3    32  GLY32       0.2014
     24  C         28.2770   18.8220   13.8300 C.2    32  GLY32       0.2639
     25  O         29.2080   18.1500   14.2510 O.2    32  GLY32      -0.2714
     26  N         27.0690   18.3270   13.6110 N.am   33  HIS33      -0.1959
     27  CA        26.7000   16.9580   13.9670 C.3    33  HIS33       0.1787
     28  C         27.7090   15.8680   13.5900 C.2    33  HIS33       0.2620
     29  O         28.0810   15.0400   14.4260 O.2    33  HIS33      -0.2715
     30  CB        25.3500   16.6070   13.3410 C.3    33  HIS33       0.0785
     31  CG        24.7670   15.3280   13.8520 C.ar   33  HIS33       0.0821
     32  ND1       24.6900   14.1870   13.0830 N.ar   33  HIS33      -0.2267
     33  CD2       24.2440   15.0090   15.0600 C.ar   33  HIS33       0.1154
     34  CE1       24.1350   13.2180   13.7940 C.ar   33  HIS33       0.1986
     35  NE2       23.8500   13.6930   14.9940 N.ar   33  HIS33      -0.2212
     36  N         28.1360   15.8540   12.3330 N.am   34  PHE34      -0.1960
     37  CA        28.9550   14.7510   11.8390 C.3    34  PHE34       0.1771
     38  C         30.4460   14.8890   12.1490 C.2    34  PHE34       0.2620
     39  O         31.1830   13.9070   12.1010 O.2    34  PHE34      -0.2715
     40  CB        28.7150   14.5450   10.3380 C.3    34  PHE34       0.0574
     41  CG        27.3630   13.9720   10.0350 C.ar   34  PHE34      -0.0200
     42  CD1       27.0220   12.6980   10.4880 C.ar   34  PHE34      -0.0042
     43  CD2       26.4160   14.7060    9.3240 C.ar   34  PHE34      -0.0042
     44  CE1       25.7700   12.1600   10.2280 C.ar   34  PHE34      -0.0003
     45  CE2       25.1670   14.1700    9.0530 C.ar   34  PHE34      -0.0003
     46  CZ        24.8430   12.8950    9.5080 C.ar   34  PHE34      -0.0000
     47  N         30.8850   16.0990   12.4720 N.am   35  GLY35      -0.1954
     48  CA        32.2720   16.3190   12.8300 C.3    35  GLY35       0.1869
     49  C         32.7020   17.7630   12.7590 C.2    35  GLY35       0.2309
     50  O         31.9100   18.6630   12.4260 O.2    35  GLY35      -0.2863
     51  N         35.2940   20.6910   11.1980 N.3    37  VAL37      -0.1245
     52  CA        36.0740   20.9960   10.0220 C.3    37  VAL37       0.1561
     53  C         37.1330   22.0270   10.3410 C.2    37  VAL37       0.2260
     54  O         36.8280   23.1320   10.7690 O.2    37  VAL37      -0.2867
     55  CB        35.2050   21.3670    8.7600 C.3    37  VAL37       0.0252
     56  CG1       33.8140   21.7510    9.1240 C.3    37  VAL37       0.0019
     57  CG2       35.8840   22.4150    7.9060 C.3    37  VAL37       0.0019
     58  N         40.1790   22.1850    3.3300 N.3    53  ALA53      -0.1245
     59  CA        39.4550   21.9420    4.5860 C.3    53  ALA53       0.1562
     60  C         39.4990   20.4660    4.9220 C.2    53  ALA53       0.2260
     61  O         39.5870   19.6320    4.0280 O.2    53  ALA53      -0.2867
     62  CB        38.0070   22.4220    4.5010 C.3    53  ALA53       0.0290
     63  N         37.6440   17.5240    7.5690 N.3    55  LYS55      -0.1245
     64  CA        36.5090   17.2620    8.4420 C.3    55  LYS55       0.1561
     65  C         36.7650   15.9720    9.2060 C.2    55  LYS55       0.2260
     66  O         36.8610   14.9060    8.5950 O.2    55  LYS55      -0.2867
     67  CB        35.2210   17.1580    7.6090 C.3    55  LYS55       0.0271
     68  CG        33.9200   17.1360    8.4160 C.3    55  LYS55       0.0035
     69  CD        32.6950   17.2200    7.4970 C.3    55  LYS55       0.0206
     70  CE        31.5180   18.0250    8.0930 C.3    55  LYS55       0.1093
     71  NZ        30.8630   18.9420    7.0610 N.3    55  LYS55      -0.1314
     72  N         30.7900   19.4230   -4.8160 N.3    85  LEU85      -0.1245
     73  CA        32.0630   19.5670   -4.1440 C.3    85  LEU85       0.1561
     74  C         32.8800   18.2920   -4.3050 C.2    85  LEU85       0.2260
     75  O         32.3610   17.1960   -4.1110 O.2    85  LEU85      -0.2867
     76  CB        31.8790   19.9300   -2.6620 C.3    85  LEU85       0.0270
     77  CG        33.1780   20.3250   -1.9430 C.3    85  LEU85       0.0019
     78  CD1       33.7790   21.5460   -2.5620 C.3    85  LEU85       0.0001
     79  CD2       32.9500   20.5640   -0.4430 C.3    85  LEU85       0.0001
     80  N         38.5630   18.1850    1.7860 N.3   102  LEU102     -0.1231
     81  CA        37.6420   18.8490    0.8530 C.3   102  LEU102      0.1678
     82  C         38.2870   20.1140    0.3200 C.2   102  LEU102      0.2434
     83  O         39.0260   20.7620    1.0430 O.2   102  LEU102     -0.2733
     84  CB        36.3530   19.2460    1.5790 C.3   102  LEU102      0.0284
     85  CG        35.6850   18.1800    2.4640 C.3   102  LEU102      0.0019
     86  CD1       34.9230   18.7940    3.6560 C.3   102  LEU102      0.0001
     87  CD2       34.7770   17.2920    1.6590 C.3   102  LEU102      0.0001
     88  N         38.0100   20.4850   -0.9450 N.am  103  PRO103     -0.2718
     89  CA        38.5530   21.7600   -1.3830 C.3   103  PRO103      0.1535
     90  C         38.0130   22.8960   -0.5130 C.2   103  PRO103      0.2599
     91  O         36.8120   22.9110   -0.2270 O.2   103  PRO103     -0.2715
     92  CB        38.0360   21.9040   -2.8260 C.3   103  PRO103      0.0310
     93  CG        37.6280   20.5410   -3.2520 C.3   103  PRO103      0.0237
     94  CD        37.2380   19.8070   -1.9960 C.3   103  PRO103      0.0939
     95  N         38.8780   23.8340   -0.1120 N.am  104  TYR104     -0.1960
     96  CA        38.4280   25.0290    0.5940 C.3   104  TYR104      0.1771
     97  C         37.5940   25.8980   -0.3150 C.2   104  TYR104      0.2619
     98  O         37.9840   26.2050   -1.4500 O.2   104  TYR104     -0.2715
     99  CB        39.5930   25.8550    1.1290 C.3   104  TYR104      0.0574
    100  CG        39.1520   26.9860    2.0460 C.ar  104  TYR104     -0.0198
    101  CD1       38.6200   26.7180    3.3010 C.ar  104  TYR104     -0.0009
    102  CD2       39.2610   28.3190    1.6520 C.ar  104  TYR104     -0.0009
    103  CE1       38.2110   27.7410    4.1470 C.ar  104  TYR104      0.0417
    104  CE2       38.8530   29.3500    2.4890 C.ar  104  TYR104      0.0417
    105  CZ        38.3370   29.0480    3.7430 C.ar  104  TYR104      0.1957
    106  OH        37.9280   30.0510    4.5910 O.3   104  TYR104     -0.2866
    107  N         36.4350   26.2900    0.2000 N.am  105  MET105     -0.1977
    108  CA        35.4870   27.1210   -0.5170 C.3   105  MET105      0.1605
    109  C         35.4600   28.4650    0.2010 C.2   105  MET105      0.2287
    110  O         35.0120   28.5740    1.3510 O.2   105  MET105     -0.2864
    111  CB        34.1230   26.4450   -0.5210 C.3   105  MET105      0.0413
    112  CG        34.0370   25.2180   -1.3930 C.3   105  MET105      0.0598
    113  SD        34.0210   25.5910   -3.1900 S.3   105  MET105     -0.1393
    114  CE        35.5990   24.9160   -3.6750 C.3   105  MET105      0.0692
    115  N         32.1640   30.5930    1.5190 N.3   108  GLY108     -0.1210
    116  CA        31.2870   29.9640    2.5090 C.3   108  GLY108      0.1956
    117  C         30.0530   29.3210    1.9160 C.2   108  GLY108      0.2611
    118  O         30.0390   28.9260    0.7450 O.2   108  GLY108     -0.2717
    119  N         29.0050   29.2270    2.7260 N.am  109  ASP109     -0.1973
    120  CA        27.7890   28.5320    2.3190 C.3   109  ASP109      0.1709
    121  C         26.7060   29.4910    1.8560 C.2   109  ASP109      0.2293
    122  O         26.6980   30.6820    2.1870 O.2   109  ASP109     -0.2864
    123  CB        27.2590   27.6320    3.4370 C.3   109  ASP109      0.1436
    124  CG        26.9310   28.3980    4.7020 C.2   109  ASP109      0.3671
    125  OD1       27.8700   28.8870    5.3690 O.co2 109  ASP109     -0.2456
    126  OD2       25.7360   28.4940    5.0380 O.co2 109  ASP109     -0.2456
    127  N         23.5330   29.7710    2.4910 N.3   111  LEU111     -0.1231
    128  CA        22.6530   30.3500    3.4930 C.3   111  LEU111      0.1693
    129  C         23.2440   31.6540    4.0040 C.2   111  LEU111      0.2591
    130  O         22.6390   32.7110    3.8610 O.2   111  LEU111     -0.2718
    131  CB        22.4400   29.3580    4.6390 C.3   111  LEU111      0.0284
    132  CG        21.5710   29.7390    5.8340 C.3   111  LEU111      0.0019
    133  CD1       20.1650   30.1480    5.4160 C.3   111  LEU111      0.0001
    134  CD2       21.5400   28.5770    6.8320 C.3   111  LEU111      0.0001
    135  N         24.4390   31.5920    4.5850 N.am  112  GLN112     -0.1979
    136  CA        25.1120   32.8090    5.0550 C.3   112  GLN112      0.1601
    137  C         25.3090   33.8550    3.9510 C.2   112  GLN112      0.2287
    138  O         25.2260   35.0500    4.2210 O.2   112  GLN112     -0.2864
    139  CB        26.4430   32.4660    5.7250 C.3   112  GLN112      0.0394
    140  CG        26.2860   31.6660    7.0530 C.3   112  GLN112      0.0908
    141  CD        25.1700   32.2070    7.9690 C.2   112  GLN112      0.2608
    142  OE1       24.2270   31.4830    8.3150 O.2   112  GLN112     -0.2717
    143  NE2       25.2730   33.4850    8.3500 N.am  112  GLN112     -0.0878
    144  N         22.6810   25.5580    3.6430 N.3   153  ARG153     -0.1231
    145  CA        23.9160   25.5290    4.3870 C.3   153  ARG153      0.1694
    146  C         24.9150   24.5300    3.8650 C.2   153  ARG153      0.2592
    147  O         26.1160   24.7280    4.0250 O.2   153  ARG153     -0.2718
    148  CB        23.6230   25.2000    5.8750 C.3   153  ARG153      0.0321
    149  CG        22.9430   23.8660    6.1070 C.3   153  ARG153      0.0489
    150  CD        22.6840   23.6610    7.5850 C.3   153  ARG153      0.2205
    151  NE        21.7910   22.5440    7.8390 N.pl3 153  ARG153     -0.0865
    152  CZ        22.1640   21.2730    7.9130 C.cat 153  ARG153      0.5346
    153  NH1       21.2510   20.3460    8.1660 N.pl3 153  ARG153      0.1354
    154  NH2       23.4270   20.9120    7.7180 N.pl3 153  ARG153      0.1354
    155  N         24.4460   23.4220    3.3020 N.am  154  ASN154     -0.1974
    156  CA        25.3540   22.4500    2.6700 C.3   154  ASN154      0.1688
    157  C         25.6190   22.7420    1.1320 C.2   154  ASN154      0.2292
    158  O         25.9230   21.8250    0.3630 O.2   154  ASN154     -0.2864
    159  CB        24.7990   21.0340    2.8290 C.3   154  ASN154      0.1181
    160  CG        24.6790   20.5750    4.2980 C.2   154  ASN154      0.2629
    161  OD1       25.2830   21.1440    5.1950 O.2   154  ASN154     -0.2716
    162  ND2       23.9030   19.5370    4.5240 N.am  154  ASN154     -0.0877
    163  N         28.1440   25.1190   -0.9580 N.3   156  MET156     -0.1245
    164  CA        29.2530   26.0290   -0.8000 C.3   156  MET156      0.1570
    165  C         29.4760   26.8790   -2.0280 C.2   156  MET156      0.2261
    166  O         29.0360   26.5330   -3.1310 O.2   156  MET156     -0.2867
    167  CB        30.5020   25.2250   -0.5090 C.3   156  MET156      0.0387
    168  CG        30.3540   24.2710    0.6540 C.3   156  MET156      0.0595
    169  SD        29.8590   25.1260    2.1670 S.3   156  MET156     -0.1393
    170  CE        31.4090   25.8190    2.6620 C.3   156  MET156      0.0692
    171  N         28.3520   17.9780    1.5600 N.3   167  ASP167     -0.1239
    172  CA        27.9250   17.1100    2.6570 C.3   167  ASP167      0.1674
    173  C         26.9140   16.0200    2.3180 C.2   167  ASP167      0.2266
    174  O         26.1510   15.5830    3.1990 O.2   167  ASP167     -0.2867
    175  CB        27.4810   17.9700    3.8470 C.3   167  ASP167      0.1410
    176  CG        28.6070   18.8150    4.3750 C.2   167  ASP167      0.3668
    177  OD1       29.7770   18.3840    4.1880 O.co2 167  ASP167     -0.2456
    178  OD2       28.3520   19.8890    5.0010 O.co2 167  ASP167     -0.2456
@<TRIPOS>BOND
     1    72    73    1
     2    74    73    1
     3    74    75    2
     4    73    76    1
     5   114   113    1
     6    93    92    1
     7    93    94    1
     8   113   112    1
     9   166   165    2
    10    92    89    1
    11    76    77    1
    12    78    77    1
    13   165   164    1
    14    94    88    1
    15    77    79    1
    16    98    97    2
    17   112   111    1
    18    89    88    1
    19    89    90    1
    20   163   164    1
    21    88    82   am
    22   164   167    1
    23   111   108    1
    24   108   107    1
    25   108   109    1
    26    90    91    2
    27    90    95   am
    28   167   168    1
    29    97   107   am
    30    97    96    1
    31    95    96    1
    32   109   110    2
    33    82    81    1
    34    82    83    2
    35   158   157    2
    36    96    99    1
    37   168   169    1
    38   118   117    2
    39    81    84    1
    40    81    80    1
    41    99   100    1
    42   157   156    1
    43   115   116    1
    44   171   172    1
    45    84    85    1
    46   102   100   ar
    47   102   104   ar
    48    87    85    1
    49   121   122    2
    50   121   120    1
    51   117   116    1
    52   117   119   am
    53   100   101   ar
    54   169   170    1
    55   173   172    1
    56   173   174    2
    57   120   119    1
    58   120   123    1
    59    85    86    1
    60   104   105   ar
    61   127   128    1
    62   172   175    1
    63   156   159    1
    64   156   155    1
    65   159   160    1
    66   101   103   ar
    67   155   146   am
    68    58    59    1
    69   123   124    1
    70   128   129    1
    71   128   131    1
    72   144   145    1
    73   105   103   ar
    74   105   106    1
    75   175   176    1
    76   130   129    2
    77   146   147    2
    78   146   145    1
    79   137   138    2
    80   137   136    1
    81   129   135   am
    82    61    60    2
    83   177   176   ar
    84   160   162   am
    85   160   161    2
    86   176   178   ar
    87   145   148    1
    88    62    59    1
    89   135   136    1
    90    59    60    1
    91   131   132    1
    92   124   126   ar
    93   124   125   ar
    94   136   139    1
    95   133   132    1
    96   139   140    1
    97   132   134    1
    98   148   149    1
    99   149   150    1
   100     8     6    1
   101   140   141    1
   102    71    70    1
   103    69    70    1
   104    69    68    1
   105    63    64    1
   106   150   151    1
   107    67    68    1
   108    67    64    1
   109   154   152    1
   110   151   152    2
   111    57    55    1
   112   152   153    1
   113   141   142    2
   114   141   143   am
   115     7     5    1
   116     6     5    1
   117    64    65    1
   118    66    65    2
   119    55    56    1
   120    55    52    1
   121     5     2    1
   122    45    43   ar
   123    45    46   ar
   124    43    41   ar
   125    46    44   ar
   126    52    53    1
   127    52    51    1
   128    41    40    1
   129    41    42   ar
   130    44    42   ar
   131    40    37    1
   132    53    54    2
   133     2     3    1
   134     2     1    1
   135     3     4    2
   136     3     9   am
   137     9    10    1
   138    37    38    1
   139    37    36    1
   140    39    38    2
   141    10    11    1
   142    38    47   am
   143    12    11    2
   144    36    28   am
   145    50    49    2
   146    47    48    1
   147    11    13   am
   148    49    48    1
   149    32    34   ar
   150    32    31   ar
   151    30    31    1
   152    30    27    1
   153    13    14    1
   154    16    15    2
   155    23    22    1
   156    23    24    1
   157    28    27    1
   158    28    29    2
   159    26    24   am
   160    26    27    1
   161    22    15   am
   162    15    14    1
   163    34    35   ar
   164    24    25    2
   165    31    33   ar
   166    14    17    1
   167    35    33   ar
   168    17    18    1
   169    18    19    1
   170    19    20    1
   171    21    20    1
