@<TRIPOS>MOLECULE
tmp/3plzA00.pdb
 155 148 0 0 0
SMALL
GASTEIGER

@<TRIPOS>ATOM
      1  N         -7.2640  -15.9600  -16.6150 N.3    47  PHE47      -0.1241
      2  CA        -7.3670  -17.0440  -15.6140 C.3    47  PHE47       0.1605
      3  C         -7.2400  -16.4800  -14.1970 C.2    47  PHE47       0.2264
      4  O         -7.9640  -16.9020  -13.2900 O.2    47  PHE47      -0.2867
      5  CB        -6.3100  -18.1310  -15.8390 C.3    47  PHE47       0.0534
      6  CG        -6.6080  -19.0380  -17.0020 C.ar   47  PHE47      -0.0203
      7  CD1       -6.0410  -18.7950  -18.2500 C.ar   47  PHE47      -0.0042
      8  CD2       -7.4460  -20.1450  -16.8440 C.ar   47  PHE47      -0.0042
      9  CE1       -6.2970  -19.6270  -19.3260 C.ar   47  PHE47      -0.0003
     10  CE2       -7.7210  -20.9740  -17.9140 C.ar   47  PHE47      -0.0003
     11  CZ        -7.1320  -20.7280  -19.1600 C.ar   47  PHE47      -0.0000
     12  N        -10.4540  -14.4630  -13.2690 N.3    50  VAL50      -0.1231
     13  CA       -11.5370  -15.3710  -12.8840 C.3    50  VAL50       0.1692
     14  C        -11.3100  -15.9230  -11.4800 C.2    50  VAL50       0.2591
     15  O        -12.2410  -15.9700  -10.6790 O.2    50  VAL50      -0.2718
     16  CB       -11.7140  -16.5160  -13.8980 C.3    50  VAL50       0.0266
     17  CG1      -12.6360  -17.6140  -13.3400 C.3    50  VAL50       0.0020
     18  CG2      -12.2560  -15.9520  -15.2090 C.3    50  VAL50       0.0020
     19  N        -10.0780  -16.3190  -11.1710 N.am   51  GLU51      -0.1979
     20  CA        -9.7660  -16.8310   -9.8380 C.3    51  GLU51       0.1602
     21  C         -9.9830  -15.7700   -8.7610 C.2    51  GLU51       0.2287
     22  O        -10.5460  -16.0500   -7.6960 O.2    51  GLU51      -0.2864
     23  CB        -8.3250  -17.3510   -9.7650 C.3    51  GLU51       0.0415
     24  CG        -7.9700  -18.0080   -8.4300 C.3    51  GLU51       0.1163
     25  CD        -8.9680  -19.0770   -8.0190 C.2    51  GLU51       0.3649
     26  OE1       -9.2890  -19.1770   -6.8100 O.co2  51  GLU51      -0.2457
     27  OE2       -9.4460  -19.8090   -8.9130 O.co2  51  GLU51      -0.2457
     28  N        -13.9110  -15.1880   -8.3810 N.3    54  ARG54      -0.1245
     29  CA       -14.5360  -16.3730   -7.7730 C.3    54  ARG54       0.1563
     30  C        -14.4410  -16.4000   -6.2520 C.2    54  ARG54       0.2260
     31  O        -15.3780  -16.8350   -5.5710 O.2    54  ARG54      -0.2867
     32  CB       -13.8780  -17.6330   -8.3430 C.3    54  ARG54       0.0307
     33  CG       -14.5080  -18.9380   -7.9750 C.3    54  ARG54       0.0489
     34  CD       -13.6060  -20.0970   -8.4160 C.3    54  ARG54       0.2205
     35  NE       -12.5070  -20.3100   -7.4830 N.pl3  54  ARG54      -0.0865
     36  CZ       -11.6670  -21.3420   -7.5130 C.cat  54  ARG54       0.5346
     37  NH1      -11.7690  -22.2780   -8.4520 N.pl3  54  ARG54       0.1354
     38  NH2      -10.7080  -21.4370   -6.5960 N.pl3  54  ARG54       0.1354
     39  N        -19.1770  -11.5160   -4.7060 N.3    59  PHE59      -0.1241
     40  CA       -19.2090  -12.3230   -5.9270 C.3    59  PHE59       0.1605
     41  C        -19.3890  -13.8080   -5.6160 C.2    59  PHE59       0.2264
     42  O        -20.1320  -14.5080   -6.3090 O.2    59  PHE59      -0.2867
     43  CB       -17.9300  -12.1160   -6.7320 C.3    59  PHE59       0.0534
     44  CG       -18.0200  -12.6030   -8.1440 C.ar   59  PHE59      -0.0203
     45  CD1      -18.5880  -11.8040   -9.1310 C.ar   59  PHE59      -0.0042
     46  CD2      -17.5170  -13.8430   -8.5010 C.ar   59  PHE59      -0.0042
     47  CE1      -18.6580  -12.2320  -10.4420 C.ar   59  PHE59      -0.0003
     48  CE2      -17.5770  -14.2760   -9.8300 C.ar   59  PHE59      -0.0003
     49  CZ       -18.1590  -13.4680  -10.7930 C.ar   59  PHE59      -0.0000
     50  N        -23.4970  -19.5050  -10.1180 N.3    64  VAL64      -0.1231
     51  CA       -22.5500  -19.4670  -11.2420 C.3    64  VAL64       0.1692
     52  C        -23.1160  -18.7580  -12.4810 C.2    64  VAL64       0.2592
     53  O        -22.3850  -18.0680  -13.1880 O.2    64  VAL64      -0.2718
     54  CB       -22.0470  -20.8800  -11.6160 C.3    64  VAL64       0.0266
     55  CG1      -23.2040  -21.7490  -12.1090 C.3    64  VAL64       0.0020
     56  CG2      -20.9390  -20.7880  -12.6630 C.3    64  VAL64       0.0020
     57  N        -24.4160  -18.8930  -12.7370 N.am   65  ASP65      -0.1974
     58  CA       -24.9920  -18.2240  -13.9080 C.3    65  ASP65       0.1709
     59  C        -24.8880  -16.7000  -13.8120 C.2    65  ASP65       0.2293
     60  O        -24.5950  -16.0310  -14.8120 O.2    65  ASP65      -0.2864
     61  CB       -26.4370  -18.6520  -14.1220 C.3    65  ASP65       0.1436
     62  CG       -26.5600  -20.1360  -14.3840 C.2    65  ASP65       0.3671
     63  OD1      -26.2000  -20.5770  -15.4880 O.co2  65  ASP65      -0.2456
     64  OD2      -27.0090  -20.8510  -13.4740 O.co2  65  ASP65      -0.2456
     65  N        -22.5800  -15.1300  -11.9450 N.3    67  GLN67      -0.1231
     66  CA       -21.1360  -14.9000  -12.0250 C.3    67  GLN67       0.1698
     67  C        -20.6650  -14.8400  -13.4730 C.2    67  GLN67       0.2592
     68  O        -19.8360  -13.9930  -13.8330 O.2    67  GLN67      -0.2718
     69  CB       -20.3690  -16.0060  -11.2980 C.3    67  GLN67       0.0381
     70  CG       -20.5310  -16.0090   -9.7840 C.3    67  GLN67       0.0905
     71  CD       -19.7330  -17.1230   -9.1370 C.2    67  GLN67       0.2608
     72  OE1      -19.4520  -18.1420   -9.7720 O.2    67  GLN67      -0.2717
     73  NE2      -19.3620  -16.9370   -7.8680 N.am   67  GLN67      -0.0878
     74  N        -21.1850  -15.7520  -14.2960 N.am   68  MET68      -0.1965
     75  CA       -20.8470  -15.7830  -15.7110 C.3    68  MET68       0.1736
     76  C        -21.3320  -14.5150  -16.4200 C.2    68  MET68       0.2616
     77  O        -20.5790  -13.8950  -17.1610 O.2    68  MET68      -0.2715
     78  CB       -21.4190  -17.0390  -16.3850 C.3    68  MET68       0.0427
     79  CG       -20.7670  -18.3290  -15.9130 C.3    68  MET68       0.0599
     80  SD       -21.6530  -19.8150  -16.4550 S.3    68  MET68      -0.1393
     81  CE       -21.3040  -19.6850  -18.1910 C.3    68  MET68       0.0692
     82  N        -22.5730  -14.1110  -16.1580 N.am   69  LYS69      -0.1977
     83  CA       -23.1270  -12.9130  -16.7750 C.3    69  LYS69       0.1596
     84  C        -22.2980  -11.6690  -16.4610 C.2    69  LYS69       0.2287
     85  O        -22.0490  -10.8530  -17.3520 O.2    69  LYS69      -0.2864
     86  CB       -24.5730  -12.6950  -16.3300 C.3    69  LYS69       0.0298
     87  CG       -25.5570  -13.6410  -16.9710 C.3    69  LYS69       0.0038
     88  CD       -26.9680  -13.3920  -16.4680 C.3    69  LYS69       0.0206
     89  CE       -27.9730  -14.1910  -17.2700 C.3    69  LYS69       0.1093
     90  NZ       -27.8610  -15.6490  -17.0150 N.3    69  LYS69      -0.1314
     91  N        -19.0230  -11.5250  -15.4850 N.3    71  LEU71      -0.1231
     92  CA       -17.6890  -11.6090  -16.0740 C.3    71  LEU71       0.1693
     93  C        -17.7200  -11.4730  -17.6090 C.2    71  LEU71       0.2591
     94  O        -16.8380  -10.8450  -18.2030 O.2    71  LEU71      -0.2718
     95  CB       -16.9720  -12.8880  -15.6360 C.3    71  LEU71       0.0284
     96  CG       -16.3950  -12.8630  -14.2150 C.3    71  LEU71       0.0019
     97  CD1      -15.9680  -14.2690  -13.7890 C.3    71  LEU71       0.0001
     98  CD2      -15.2210  -11.8900  -14.0900 C.3    71  LEU71       0.0001
     99  N        -18.7490  -12.0190  -18.2420 N.am   72  GLN72      -0.1979
    100  CA       -18.9160  -11.8710  -19.6870 C.3    72  GLN72       0.1601
    101  C        -19.0930  -10.4040  -20.0750 C.2    72  GLN72       0.2287
    102  O        -18.6130   -9.9660  -21.1250 O.2    72  GLN72      -0.2864
    103  CB       -20.0760  -12.7400  -20.1800 C.3    72  GLN72       0.0394
    104  CG       -19.6730  -14.2120  -20.1630 C.3    72  GLN72       0.0908
    105  CD       -20.8190  -15.1950  -20.3040 C.2    72  GLN72       0.2608
    106  OE1      -20.5850  -16.3820  -20.5460 O.2    72  GLN72      -0.2717
    107  NE2      -22.0500  -14.7250  -20.1430 N.am   72  GLN72      -0.0878
    108  N         -7.1270  -20.9650  -25.0780 N.3   223  ASN223     -0.1225
    109  CA        -8.4190  -21.4810  -24.6280 C.3   223  ASN223      0.1785
    110  C         -9.3530  -20.3690  -24.1350 C.2   223  ASN223      0.2597
    111  O        -10.4610  -20.2130  -24.6420 O.2   223  ASN223     -0.2718
    112  CB        -8.2140  -22.5480  -23.5440 C.3   223  ASN223      0.1169
    113  CG        -7.3530  -23.7210  -24.0240 C.2   223  ASN223      0.2627
    114  OD1       -6.1550  -23.7770  -23.7450 O.2   223  ASN223     -0.2716
    115  ND2       -7.9660  -24.6610  -24.7430 N.am  223  ASN223     -0.0877
    116  N         -8.9150  -19.5800  -23.1640 N.am  224  LEU224     -0.1980
    117  CA        -9.8370  -18.6970  -22.4580 C.3   224  LEU224      0.1596
    118  C        -10.1350  -17.3770  -23.1810 C.2   224  LEU224      0.2287
    119  O        -11.2890  -16.9790  -23.2630 O.2   224  LEU224     -0.2864
    120  CB        -9.3420  -18.4370  -21.0360 C.3   224  LEU224      0.0297
    121  CG       -10.2600  -17.6270  -20.1150 C.3   224  LEU224      0.0022
    122  CD1      -11.6660  -18.2130  -20.0460 C.3   224  LEU224      0.0001
    123  CD2       -9.6600  -17.5320  -18.7250 C.3   224  LEU224      0.0001
    124  N        -12.7070  -17.8950  -25.8600 N.3   227  GLU227     -0.1231
    125  CA       -14.0470  -18.1020  -25.3050 C.3   227  GLU227      0.1699
    126  C        -14.6600  -16.7950  -24.8140 C.2   227  GLU227      0.2592
    127  O        -15.8520  -16.5650  -25.0130 O.2   227  GLU227     -0.2718
    128  CB       -14.0450  -19.1390  -24.1880 C.3   227  GLU227      0.0402
    129  CG       -13.6710  -20.5280  -24.6610 C.3   227  GLU227      0.1161
    130  CD       -14.5700  -21.0560  -25.7860 C.2   227  GLU227      0.3649
    131  OE1      -15.8090  -20.9070  -25.7030 O.co2 227  GLU227     -0.2457
    132  OE2      -14.0320  -21.6370  -26.7430 O.co2 227  GLU227     -0.2457
    133  N        -13.8600  -15.9350  -24.1860 N.am  228  MET228     -0.1979
    134  CA       -14.3930  -14.6630  -23.6960 C.3   228  MET228      0.1605
    135  C        -14.6930  -13.7140  -24.8580 C.2   228  MET228      0.2287
    136  O        -15.6650  -12.9570  -24.7970 O.2   228  MET228     -0.2864
    137  CB       -13.4650  -14.0110  -22.6710 C.3   228  MET228      0.0413
    138  CG       -13.2020  -14.8480  -21.4140 C.3   228  MET228      0.0598
    139  SD       -14.6950  -15.4900  -20.6200 S.3   228  MET228     -0.1393
    140  CE       -15.4160  -13.9580  -19.9920 C.3   228  MET228      0.0692
    141  N        -16.0030  -14.5400  -27.5460 N.3   230  HIS230     -0.1226
    142  CA       -17.3350  -14.9410  -27.9770 C.3   230  HIS230      0.1752
    143  C        -18.4120  -14.7690  -26.8920 C.2   230  HIS230      0.2595
    144  O        -19.5590  -15.1440  -27.1160 O.2   230  HIS230     -0.2718
    145  CB       -17.3080  -16.3750  -28.4930 C.3   230  HIS230      0.0759
    146  CG       -16.6350  -16.5140  -29.8190 C.ar  230  HIS230      0.0818
    147  ND1      -17.3240  -16.4520  -31.0100 N.ar  230  HIS230     -0.2268
    148  CD2      -15.3320  -16.6770  -30.1450 C.ar  230  HIS230      0.1154
    149  CE1      -16.4770  -16.5930  -32.0130 C.ar  230  HIS230      0.1986
    150  NE2      -15.2620  -16.7350  -31.5160 N.ar  230  HIS230     -0.2212
    151  N        -18.0570  -14.1800  -25.7450 N.am  231  ALA231     -0.1980
    152  CA       -19.0140  -13.9350  -24.6520 C.3   231  ALA231      0.1597
    153  C        -20.0560  -12.8760  -25.0080 C.2   231  ALA231      0.2287
    154  O        -19.7370  -11.7700  -25.4670 O.2   231  ALA231     -0.2864
    155  CB       -18.2780  -13.5310  -23.3660 C.3   231  ALA231      0.0319
@<TRIPOS>BOND
     1   149   150   ar
     2   149   147   ar
     3   150   148   ar
     4   147   146   ar
     5   148   146   ar
     6   146   145    1
     7   145   142    1
     8   142   141    1
     9   142   143    1
    10   144   143    2
    11   143   151   am
    12   132   130   ar
    13   124   125    1
    14   130   131   ar
    15   130   129    1
    16   151   152    1
    17   154   153    2
    18   125   126    1
    19   125   128    1
    20   108   109    1
    21   127   126    2
    22   153   152    1
    23   135   136    2
    24   135   134    1
    25   126   133   am
    26   115   113   am
    27   129   128    1
    28   152   155    1
    29   111   110    2
    30   109   110    1
    31   109   112    1
    32   133   134    1
    33   110   116   am
    34   113   114    2
    35   113   112    1
    36   134   137    1
    37   119   118    2
    38   118   117    1
    39   116   117    1
    40   137   138    1
    41   117   120    1
    42   138   139    1
    43   102   101    2
    44   120   121    1
    45   139   140    1
    46   106   105    2
    47   105   104    1
    48   105   107   am
    49   103   104    1
    50   103   100    1
    51   121   122    1
    52   121   123    1
    53   101   100    1
    54   100    99    1
    55     9    11   ar
    56     9     7   ar
    57    11    10   ar
    58     7     6   ar
    59    99    93   am
    60    94    93    2
    61    81    80    1
    62    10     8   ar
    63    93    92    1
    64    85    84    2
    65    89    90    1
    66    89    88    1
    67    77    76    2
    68     6     8   ar
    69     6     5    1
    70    87    88    1
    71    87    86    1
    72    83    84    1
    73    83    86    1
    74    83    82    1
    75     1     2    1
    76    80    79    1
    77    76    82   am
    78    76    75    1
    79    78    79    1
    80    78    75    1
    81    92    95    1
    82    92    91    1
    83     5     2    1
    84    75    74    1
    85    95    96    1
    86     2     3    1
    87    63    62   ar
    88    18    16    1
    89    60    59    2
    90    62    61    1
    91    62    64   ar
    92    74    67   am
    93    96    98    1
    94    96    97    1
    95     3     4    2
    96    61    58    1
    97    58    59    1
    98    58    57    1
    99    16    17    1
   100    16    13    1
   101    68    67    2
   102    67    66    1
   103    12    13    1
   104    53    52    2
   105    13    14    1
   106    57    52   am
   107    56    54    1
   108    52    51    1
   109    55    54    1
   110    66    65    1
   111    66    69    1
   112    54    51    1
   113    14    19   am
   114    14    15    2
   115    69    70    1
   116    51    50    1
   117    19    20    1
   118    49    47   ar
   119    49    48   ar
   120    47    45   ar
   121    20    23    1
   122    20    21    1
   123    48    46   ar
   124    70    71    1
   125    72    71    2
   126    23    24    1
   127    71    73   am
   128    45    44   ar
   129    27    25   ar
   130    21    22    2
   131    46    44   ar
   132    37    36    1
   133    24    25    1
   134    34    33    1
   135    34    35    1
   136    28    29    1
   137    32    33    1
   138    32    29    1
   139    44    43    1
   140    25    26   ar
   141    29    30    1
   142    36    35    2
   143    36    38    1
   144    43    40    1
   145    42    41    2
   146    30    31    2
   147    40    41    1
   148    40    39    1
