@<TRIPOS>MOLECULE
tmp/3plzC00.pdb
 214 200 0 0 0
SMALL
GASTEIGER

@<TRIPOS>ATOM
      1  N        -11.6920    1.6220  -57.4150 N.3    42  PHE42      -0.1241
      2  CA       -11.6790    1.9550  -56.0020 C.3    42  PHE42       0.1605
      3  C        -12.5660    3.1820  -55.7690 C.2    42  PHE42       0.2264
      4  O        -13.3900    3.1940  -54.8560 O.2    42  PHE42      -0.2867
      5  CB       -10.2630    2.2270  -55.4810 C.3    42  PHE42       0.0534
      6  CG       -10.2510    2.6810  -54.0530 C.ar   42  PHE42      -0.0203
      7  CD1      -10.3830    1.7640  -53.0220 C.ar   42  PHE42      -0.0042
      8  CD2      -10.1770    4.0330  -53.7430 C.ar   42  PHE42      -0.0042
      9  CE1      -10.4110    2.1830  -51.7010 C.ar   42  PHE42      -0.0003
     10  CE2      -10.2020    4.4540  -52.4250 C.ar   42  PHE42      -0.0003
     11  CZ       -10.3210    3.5270  -51.4080 C.ar   42  PHE42      -0.0000
     12  N        -16.2590    2.2660  -56.0300 N.3    45  MET45      -0.1230
     13  CA       -16.7610    1.5970  -54.8250 C.3    45  MET45       0.1702
     14  C        -17.0740    2.6280  -53.7440 C.2    45  MET45       0.2592
     15  O        -18.0730    2.5130  -53.0280 O.2    45  MET45      -0.2718
     16  CB       -15.7470    0.5940  -54.2590 C.3    45  MET45       0.0401
     17  CG       -15.4320   -0.6110  -55.1390 C.3    45  MET45       0.0596
     18  SD       -16.9000   -1.4900  -55.6750 S.3    45  MET45      -0.1393
     19  CE       -17.0630   -0.8210  -57.3360 C.3    45  MET45       0.0692
     20  N        -16.1960    3.6180  -53.6040 N.am   46  CYS46      -0.1970
     21  CA       -16.4160    4.6850  -52.6270 C.3    46  CYS46       0.1712
     22  C        -17.6980    5.4530  -52.9420 C.2    46  CYS46       0.2296
     23  O        -18.4570    5.7810  -52.0280 O.2    46  CYS46      -0.2864
     24  CB       -15.2330    5.6550  -52.5940 C.3    46  CYS46       0.0983
     25  SG       -13.7040    4.9640  -51.9110 S.3    46  CYS46      -0.0798
     26  N        -20.2760    4.2550  -54.6480 N.3    48  MET48      -0.1230
     27  CA       -21.3700    3.3480  -54.3000 C.3    48  MET48       0.1702
     28  C        -21.6890    3.4140  -52.8070 C.2    48  MET48       0.2592
     29  O        -22.8620    3.5000  -52.4240 O.2    48  MET48      -0.2718
     30  CB       -21.0410    1.9040  -54.7060 C.3    48  MET48       0.0401
     31  CG       -20.9430    1.6670  -56.1950 C.3    48  MET48       0.0596
     32  SD       -22.4620    1.9970  -57.0970 S.3    48  MET48      -0.1393
     33  CE       -22.4530    3.7860  -57.2320 C.3    48  MET48       0.0692
     34  N        -20.6530    3.3980  -51.9680 N.am   49  ALA49      -0.1980
     35  CA       -20.8300    3.4750  -50.5180 C.3    49  ALA49       0.1597
     36  C        -21.5150    4.7850  -50.1260 C.2    49  ALA49       0.2287
     37  O        -22.4750    4.7890  -49.3380 O.2    49  ALA49      -0.2864
     38  CB       -19.4870    3.3440  -49.8000 C.3    49  ALA49       0.0319
     39  N        -25.1990    4.8830  -51.4530 N.3    52  THR52      -0.1218
     40  CA       -26.0080    3.9230  -50.7070 C.3    52  THR52       0.1862
     41  C        -26.2970    4.4340  -49.2940 C.2    52  THR52       0.2287
     42  O        -27.3840    4.2050  -48.7670 O.2    52  THR52      -0.2866
     43  CB       -25.3500    2.5320  -50.6580 C.3    52  THR52       0.1770
     44  OG1      -25.1030    2.0850  -51.9980 O.3    52  THR52      -0.2211
     45  CG2      -26.2700    1.5240  -49.9560 C.3    52  THR52       0.0375
     46  N        -23.5230    2.3450  -39.3840 N.3    82  TRP82      -0.1227
     47  CA       -23.6310    2.6330  -40.8270 C.3    82  TRP82       0.1737
     48  C        -22.7990    1.7020  -41.7160 C.2    82  TRP82       0.2596
     49  O        -23.2690    1.2420  -42.7670 O.2    82  TRP82      -0.2718
     50  CB       -23.2860    4.1010  -41.1300 C.3    82  TRP82       0.0564
     51  CG       -21.8670    4.4990  -40.8280 C.ar   82  TRP82       0.0003
     52  CD1      -21.3780    4.9430  -39.6400 C.ar   82  TRP82       0.0946
     53  CD2      -20.7610    4.4700  -41.7330 C.ar   82  TRP82       0.0152
     54  NE1      -20.0340    5.2020  -39.7470 N.ar   82  TRP82      -0.2442
     55  CE2      -19.6290    4.9150  -41.0240 C.ar   82  TRP82       0.0810
     56  CE3      -20.6170    4.1110  -43.0780 C.ar   82  TRP82       0.0012
     57  CZ2      -18.3690    5.0230  -41.6190 C.ar   82  TRP82       0.0191
     58  CZ3      -19.3670    4.2190  -43.6670 C.ar   82  TRP82       0.0001
     59  CH2      -18.2600    4.6640  -42.9380 C.ar   82  TRP82       0.0015
     60  N        -21.5650    1.4370  -41.3100 N.am   83  SER83      -0.1952
     61  CA       -20.6750    0.6140  -42.1290 C.3    83  SER83       0.1924
     62  C        -21.1020   -0.8560  -42.1250 C.2    83  SER83       0.2314
     63  O        -20.9000   -1.5720  -43.1150 O.2    83  SER83      -0.2863
     64  CB       -19.2140    0.7830  -41.7030 C.3    83  SER83       0.2116
     65  OG       -19.0210    0.5330  -40.3220 O.3    83  SER83      -0.2180
     66  N        -23.9400   -1.0860  -44.6040 N.3    86  LEU86      -0.1231
     67  CA       -23.3800   -1.1030  -45.9670 C.3    86  LEU86       0.1693
     68  C        -22.8870   -2.4950  -46.3340 C.2    86  LEU86       0.2591
     69  O        -23.1260   -2.9930  -47.4430 O.2    86  LEU86      -0.2718
     70  CB       -22.2140   -0.1160  -46.0820 C.3    86  LEU86       0.0284
     71  CG       -22.5370    1.3390  -46.4020 C.3    86  LEU86       0.0019
     72  CD1      -21.2420    2.1530  -46.3270 C.3    86  LEU86       0.0001
     73  CD2      -23.1710    1.4520  -47.7790 C.3    86  LEU86       0.0001
     74  N        -22.1800   -3.1200  -45.4010 N.am   87  ILE87      -0.1980
     75  CA       -21.5850   -4.4330  -45.6460 C.3    87  ILE87       0.1595
     76  C        -22.6680   -5.5270  -45.6730 C.2    87  ILE87       0.2287
     77  O        -22.6820   -6.3790  -46.5680 O.2    87  ILE87      -0.2864
     78  CB       -20.4560   -4.7300  -44.6250 C.3    87  ILE87       0.0276
     79  CG1      -19.2610   -3.7980  -44.8990 C.3    87  ILE87       0.0022
     80  CG2      -20.0340   -6.2040  -44.6950 C.3    87  ILE87       0.0022
     81  CD1      -18.0290   -4.0430  -44.0400 C.3    87  ILE87       0.0001
     82  N        -24.4550   -5.2240  -48.9210 N.3    90  HIS90      -0.1241
     83  CA       -23.6080   -5.7570  -49.9940 C.3    90  HIS90       0.1621
     84  C        -23.5970   -7.2890  -50.0200 C.2    90  HIS90       0.2264
     85  O        -23.7670   -7.9040  -51.0790 O.2    90  HIS90      -0.2867
     86  CB       -22.1790   -5.2120  -49.8710 C.3    90  HIS90       0.0745
     87  CG       -21.1720   -5.9770  -50.6750 C.ar   90  HIS90       0.0817
     88  ND1      -20.8770   -5.6700  -51.9840 N.ar   90  HIS90      -0.2268
     89  CD2      -20.4050   -7.0500  -50.3580 C.ar   90  HIS90       0.1154
     90  CE1      -19.9610   -6.5070  -52.4360 C.ar   90  HIS90       0.1986
     91  NE2      -19.6600   -7.3590  -51.4710 N.ar   90  HIS90      -0.2212
     92  N        -26.8530   -8.7120  -51.3150 N.3    93  ARG93      -0.1245
     93  CA       -26.9380   -8.5330  -52.7630 C.3    93  ARG93       0.1563
     94  C        -26.1310   -9.6080  -53.5080 C.2    93  ARG93       0.2260
     95  O        -26.5530  -10.0800  -54.5670 O.2    93  ARG93      -0.2867
     96  CB       -26.4660   -7.1260  -53.1650 C.3    93  ARG93       0.0307
     97  CG       -26.5450   -6.8540  -54.6720 C.3    93  ARG93       0.0489
     98  CD       -26.4290   -5.3680  -55.0050 C.3    93  ARG93       0.2205
     99  NE       -25.4690   -4.7080  -54.1410 N.pl3  93  ARG93      -0.0865
    100  CZ       -25.7570   -3.8560  -53.1510 C.cat  93  ARG93       0.5346
    101  NH1      -27.0040   -3.4850  -52.8620 N.pl3  93  ARG93       0.1354
    102  NH2      -24.7620   -3.3660  -52.4440 N.pl3  93  ARG93       0.1354
    103  N        -18.5890   -9.1290  -58.7000 N.3   103  ILE103     -0.1245
    104  CA       -19.2640   -8.3920  -57.6470 C.3   103  ILE103      0.1561
    105  C        -20.4380   -7.6450  -58.2720 C.2   103  ILE103      0.2260
    106  O        -20.2880   -6.9900  -59.3090 O.2   103  ILE103     -0.2867
    107  CB       -18.2910   -7.4020  -56.9790 C.3   103  ILE103      0.0252
    108  CG1      -17.1610   -8.1610  -56.2670 C.3   103  ILE103      0.0019
    109  CG2      -19.0230   -6.4800  -56.0000 C.3   103  ILE103      0.0019
    110  CD1      -17.6190   -9.0000  -55.0760 C.3   103  ILE103      0.0001
    111  N        -23.0890   -4.6650  -57.9410 N.3   105  LEU105     -0.1245
    112  CA       -23.1960   -3.3680  -57.2810 C.3   105  LEU105      0.1561
    113  C        -24.6560   -2.9370  -57.1660 C.2   105  LEU105      0.2260
    114  O        -25.5270   -3.4530  -57.8640 O.2   105  LEU105     -0.2867
    115  CB       -22.3780   -2.3270  -58.0440 C.3   105  LEU105      0.0270
    116  CG       -20.8990   -2.6860  -58.2240 C.3   105  LEU105      0.0019
    117  CD1      -20.1800   -1.5890  -58.9980 C.3   105  LEU105      0.0001
    118  CD2      -20.2260   -2.9410  -56.8720 C.3   105  LEU105      0.0001
    119  N        -14.0280   -9.4700  -60.0120 N.3   113  TYR113     -0.1241
    120  CA       -13.2650   -9.4180  -58.7740 C.3   113  TYR113      0.1605
    121  C        -11.7960   -9.0670  -58.9990 C.2   113  TYR113      0.2264
    122  O        -11.2170   -8.3010  -58.2300 O.2   113  TYR113     -0.2867
    123  CB       -13.3570  -10.7410  -57.9980 C.3   113  TYR113      0.0534
    124  CG       -12.9380  -10.5680  -56.5570 C.ar  113  TYR113     -0.0201
    125  CD1      -13.7890   -9.9530  -55.6440 C.ar  113  TYR113     -0.0009
    126  CD2      -11.6750  -10.9710  -56.1170 C.ar  113  TYR113     -0.0009
    127  CE1      -13.4100   -9.7610  -54.3190 C.ar  113  TYR113      0.0417
    128  CE2      -11.2870  -10.7890  -54.7870 C.ar  113  TYR113      0.0417
    129  CZ       -12.1600  -10.1870  -53.8990 C.ar  113  TYR113      0.1957
    130  OH       -11.7960   -9.9950  -52.5840 O.3   113  TYR113     -0.2866
    131  N        -11.1780   -5.2330  -59.2360 N.3   116  ILE116     -0.1245
    132  CA       -11.1880   -4.5220  -57.9490 C.3   116  ILE116      0.1561
    133  C         -9.9350   -4.8910  -57.1470 C.2   116  ILE116      0.2260
    134  O         -9.2400   -4.0280  -56.6070 O.2   116  ILE116     -0.2867
    135  CB       -12.4360   -4.8840  -57.1030 C.3   116  ILE116      0.0252
    136  CG1      -13.7370   -4.6120  -57.8670 C.3   116  ILE116      0.0019
    137  CG2      -12.4540   -4.0810  -55.8060 C.3   116  ILE116      0.0019
    138  CD1      -14.9650   -5.2190  -57.2130 C.3   116  ILE116      0.0001
    139  N         -6.9940   -3.9190  -48.4390 N.3   124  LEU124     -0.1245
    140  CA        -8.3400   -3.9460  -49.0100 C.3   124  LEU124      0.1561
    141  C         -8.6650   -5.3450  -49.5260 C.2   124  LEU124      0.2260
    142  O         -9.7610   -5.8420  -49.3080 O.2   124  LEU124     -0.2867
    143  CB        -8.5240   -2.9020  -50.1050 C.3   124  LEU124      0.0270
    144  CG        -9.9750   -2.5820  -50.4930 C.3   124  LEU124      0.0019
    145  CD1      -10.8520   -2.2260  -49.2930 C.3   124  LEU124      0.0001
    146  CD2       -9.9740   -1.4310  -51.4960 C.3   124  LEU124      0.0001
    147  N         -9.7550   -7.4330  -46.5710 N.3   127  LEU127     -0.1231
    148  CA       -11.1090   -7.0950  -46.1330 C.3   127  LEU127      0.1693
    149  C        -12.1440   -7.6260  -47.1200 C.2   127  LEU127      0.2591
    150  O        -13.1600   -8.1880  -46.7230 O.2   127  LEU127     -0.2718
    151  CB       -11.2460   -5.5810  -45.9530 C.3   127  LEU127      0.0284
    152  CG       -10.3830   -5.0090  -44.8250 C.3   127  LEU127      0.0019
    153  CD1      -10.4340   -3.4800  -44.7990 C.3   127  LEU127      0.0001
    154  CD2      -10.7910   -5.6040  -43.4740 C.3   127  LEU127      0.0001
    155  N        -11.8610   -7.4860  -48.4130 N.am  128  MET128     -0.1979
    156  CA       -12.7580   -8.0100  -49.4400 C.3   128  MET128      0.1605
    157  C        -12.8840   -9.5340  -49.3870 C.2   128  MET128      0.2287
    158  O        -13.9750  -10.0600  -49.5870 O.2   128  MET128     -0.2864
    159  CB       -12.3260   -7.5160  -50.8240 C.3   128  MET128      0.0413
    160  CG       -12.4530   -6.0140  -50.9430 C.3   128  MET128      0.0598
    161  SD       -12.2020   -5.3350  -52.5860 S.3   128  MET128     -0.1393
    162  CE       -11.1380   -6.5660  -53.3420 C.3   128  MET128      0.0692
    163  N        -15.2320  -10.4340  -46.6470 N.3   131  ALA131     -0.1231
    164  CA       -16.5910  -10.1690  -47.1090 C.3   131  ALA131      0.1694
    165  C        -17.1170  -11.3080  -47.9610 C.2   131  ALA131      0.2591
    166  O        -18.2390  -11.7610  -47.7750 O.2   131  ALA131     -0.2718
    167  CB       -16.6500   -8.8390  -47.8990 C.3   131  ALA131      0.0304
    168  N        -16.3100  -11.8050  -48.8870 N.am  132  GLN132     -0.1979
    169  CA       -16.8130  -12.8560  -49.7580 C.3   132  GLN132      0.1601
    170  C        -16.9220  -14.2070  -49.0340 C.2   132  GLN132      0.2287
    171  O        -17.7450  -15.0400  -49.4150 O.2   132  GLN132     -0.2864
    172  CB       -16.0350  -12.8740  -51.0800 C.3   132  GLN132      0.0394
    173  CG       -16.1690  -11.5080  -51.8430 C.3   132  GLN132      0.0908
    174  CD       -17.6290  -11.0670  -52.0820 C.2   132  GLN132      0.2608
    175  OE1      -18.0780   -9.9850  -51.6140 O.2   132  GLN132     -0.2717
    176  NE2      -18.3840  -11.9120  -52.7970 N.am  132  GLN132     -0.0878
    177  N        -15.1520   -6.6940  -39.1530 N.3   209  ILE209     -0.1245
    178  CA       -14.7150   -6.3260  -40.4970 C.3   209  ILE209      0.1561
    179  C        -15.0040   -4.8540  -40.7900 C.2   209  ILE209      0.2260
    180  O        -14.1580   -4.1480  -41.3670 O.2   209  ILE209     -0.2867
    181  CB       -15.3780   -7.2140  -41.5700 C.3   209  ILE209      0.0252
    182  CG1      -14.9220   -8.6690  -41.4080 C.3   209  ILE209      0.0019
    183  CG2      -15.0070   -6.7150  -42.9640 C.3   209  ILE209      0.0019
    184  CD1      -15.8400   -9.6960  -42.0910 C.3   209  ILE209      0.0001
    185  N        -12.5780   -1.7850  -42.0010 N.3   213  ALA213     -0.1231
    186  CA       -12.8880   -1.1020  -43.2700 C.3   213  ALA213      0.1694
    187  C        -12.9880    0.4100  -43.0760 C.2   213  ALA213      0.2591
    188  O        -12.5240    1.1770  -43.9170 O.2   213  ALA213     -0.2718
    189  CB       -14.1850   -1.6440  -43.8630 C.3   213  ALA213      0.0304
    190  N        -13.6040    0.8450  -41.9740 N.am  214  GLU214     -0.1979
    191  CA       -13.6470    2.2750  -41.6570 C.3   214  GLU214      0.1602
    192  C        -12.2350    2.8420  -41.4870 C.2   214  GLU214      0.2287
    193  O        -11.9160    3.9300  -41.9900 O.2   214  GLU214     -0.2864
    194  CB       -14.4620    2.5540  -40.3860 C.3   214  GLU214      0.0415
    195  CG       -15.9670    2.3770  -40.5420 C.3   214  GLU214      0.1163
    196  CD       -16.7560    3.0150  -39.4100 C.2   214  GLU214      0.3649
    197  OE1      -17.8690    2.5260  -39.1090 O.co2 214  GLU214     -0.2457
    198  OE2      -16.2610    4.0010  -38.8230 O.co2 214  GLU214     -0.2457
    199  N        -10.5670    3.0310  -45.0020 N.3   217  LEU217     -0.1245
    200  CA       -11.0890    4.1050  -45.8700 C.3   217  LEU217      0.1561
    201  C        -10.6950    5.4780  -45.3600 C.2   217  LEU217      0.2260
    202  O        -10.4710    6.4060  -46.1550 O.2   217  LEU217     -0.2867
    203  CB       -12.6090    4.0120  -46.0340 C.3   217  LEU217      0.0270
    204  CG       -13.1360    2.8740  -46.9120 C.3   217  LEU217      0.0019
    205  CD1      -14.6280    3.0540  -47.1460 C.3   217  LEU217      0.0001
    206  CD2      -12.3880    2.7830  -48.2610 C.3   217  LEU217      0.0001
    207  N        -20.1460   10.0790  -47.0330 N.3   232  LEU232     -0.1245
    208  CA       -19.2100    9.0280  -46.6110 C.3   232  LEU232      0.1561
    209  C        -18.1340    9.5940  -45.6860 C.2   232  LEU232      0.2260
    210  O        -17.8530    9.0190  -44.6440 O.2   232  LEU232     -0.2867
    211  CB       -18.5670    8.3330  -47.8240 C.3   232  LEU232      0.0270
    212  CG       -17.5040    7.2750  -47.4960 C.3   232  LEU232      0.0019
    213  CD1      -18.0930    6.1190  -46.6800 C.3   232  LEU232      0.0001
    214  CD2      -16.8520    6.7650  -48.8010 C.3   232  LEU232      0.0001
@<TRIPOS>BOND
     1   119   120    1
     2   106   105    2
     3   131   132    1
     4   121   120    1
     5   121   122    2
     6   117   116    1
     7   120   123    1
     8   103   104    1
     9   105   104    1
    10   116   115    1
    11   116   118    1
    12   115   112    1
    13   123   124    1
    14   132   133    1
    15   132   135    1
    16   111   112    1
    17   136   138    1
    18   136   135    1
    19   114   113    2
    20   104   107    1
    21     1     2    1
    22    19    18    1
    23   112   113    1
    24    33    32    1
    25   133   134    2
    26   135   137    1
    27    32    31    1
    28   107   108    1
    29   107   109    1
    30   124   126   ar
    31   124   125   ar
    32   108   110    1
    33    31    30    1
    34   126   128   ar
    35    12    13    1
    36     2     3    1
    37     2     5    1
    38     3     4    2
    39    18    17    1
    40   125   127   ar
    41     5     6    1
    42    17    16    1
    43    98    97    1
    44    98    99    1
    45    13    16    1
    46    13    14    1
    47   128   129   ar
    48    30    27    1
    49    97    96    1
    50    26    27    1
    51    95    94    2
    52   127   129   ar
    53    27    28    1
    54    99   100    2
    55     6     8   ar
    56     6     7   ar
    57   129   130    1
    58    14    20   am
    59    14    15    2
    60     8    10   ar
    61    20    21    1
    62    94    93    1
    63   162   161    1
    64    96    93    1
    65   100   101    1
    66   100   102    1
    67     7     9   ar
    68    22    21    1
    69    22    23    2
    70    28    29    2
    71    28    34   am
    72   176   174   am
    73    93    92    1
    74    21    24    1
    75    24    25    1
    76   161   160    1
    77    90    88   ar
    78    90    91   ar
    79    10    11   ar
    80   174   173    1
    81   174   175    2
    82    44    43    1
    83    88    87   ar
    84    34    35    1
    85   173   172    1
    86     9    11   ar
    87   146   144    1
    88    91    89   ar
    89    39    40    1
    90   172   169    1
    91    85    84    2
    92   160   159    1
    93   159   156    1
    94    40    43    1
    95    40    41    1
    96    87    89   ar
    97    87    86    1
    98    43    45    1
    99    35    36    1
   100    35    38    1
   101   144   143    1
   102   144   145    1
   103    36    37    2
   104   143   140    1
   105    84    83    1
   106    83    86    1
   107    83    82    1
   108   169   170    1
   109   169   168    1
   110   158   157    2
   111   141   142    2
   112   141   140    1
   113   156   157    1
   114   156   155    1
   115   171   170    2
   116    41    42    2
   117   140   139    1
   118   168   165   am
   119   214   212    1
   120   155   149   am
   121   206   204    1
   122   165   166    2
   123   165   164    1
   124   167   164    1
   125   211   212    1
   126   211   208    1
   127    73    71    1
   128   212   213    1
   129    69    68    2
   130   205   204    1
   131   149   150    2
   132   149   148    1
   133   164   163    1
   134   207   208    1
   135   204   203    1
   136   208   209    1
   137   147   148    1
   138    77    76    2
   139    71    72    1
   140    71    70    1
   141    68    67    1
   142    68    74   am
   143   202   201    2
   144   148   151    1
   145    70    67    1
   146   203   200    1
   147    67    66    1
   148   151   152    1
   149   200   201    1
   150   200   199    1
   151   209   210    2
   152    76    75    1
   153    75    74    1
   154    75    78    1
   155    79    78    1
   156    79    81    1
   157   152   153    1
   158   152   154    1
   159    80    78    1
   160   188   187    2
   161   189   186    1
   162    58    56   ar
   163    58    59   ar
   164   186   187    1
   165   186   185    1
   166    63    62    2
   167    56    53   ar
   168   187   190   am
   169   183   181    1
   170    59    57   ar
   171    49    48    2
   172    61    62    1
   173    61    64    1
   174    61    60    1
   175   184   182    1
   176   193   192    2
   177   190   191    1
   178    53    55   ar
   179    53    51   ar
   180    48    60   am
   181    48    47    1
   182    64    65    1
   183   191   192    1
   184   191   194    1
   185    57    55   ar
   186   181   182    1
   187   181   178    1
   188   180   179    2
   189    50    51    1
   190    50    47    1
   191    55    54   ar
   192    51    52   ar
   193    47    46    1
   194   179   178    1
   195   195   194    1
   196   195   196    1
   197   178   177    1
   198    54    52   ar
   199   196   197   ar
   200   196   198   ar
