@<TRIPOS>MOLECULE
tmp/3pm0A01.pdb
 163 154 0 0 0
SMALL
GASTEIGER

@<TRIPOS>ATOM
      1  N        -15.5920   23.1910  -28.9060 N.3    59  VAL59      -0.1245
      2  CA       -15.0880   22.9050  -27.5640 C.3    59  VAL59       0.1561
      3  C        -13.6530   22.3510  -27.5480 C.2    59  VAL59       0.2260
      4  O        -13.2810   21.4970  -28.3520 O.2    59  VAL59      -0.2867
      5  CB       -16.0280   21.9180  -26.8470 C.3    59  VAL59       0.0252
      6  CG1      -15.7100   21.8500  -25.3940 C.3    59  VAL59       0.0019
      7  CG2      -17.4780   22.3530  -27.0510 C.3    59  VAL59       0.0019
      8  N        -15.1760   14.7840  -24.4450 N.3    66  ALA66      -0.1231
      9  CA       -16.6130   14.7250  -24.1580 C.3    66  ALA66       0.1694
     10  C        -17.4550   14.9750  -25.3990 C.2    66  ALA66       0.2592
     11  O        -18.4900   14.3300  -25.6160 O.2    66  ALA66      -0.2718
     12  CB       -16.9720   15.7540  -23.1070 C.3    66  ALA66       0.0304
     13  N        -16.9990   15.9180  -26.2130 N.am   67  PHE67      -0.1976
     14  CA       -17.7210   16.2840  -27.4170 C.3    67  PHE67       0.1639
     15  C        -17.1240   15.7890  -28.7420 C.2    67  PHE67       0.2290
     16  O        -17.6240   16.1210  -29.8090 O.2    67  PHE67      -0.2864
     17  CB       -17.8880   17.7920  -27.4220 C.3    67  PHE67       0.0560
     18  CG       -18.5840   18.3070  -26.1980 C.ar   67  PHE67      -0.0200
     19  CD1      -17.8510   18.7880  -25.1090 C.ar   67  PHE67      -0.0042
     20  CD2      -19.9760   18.2630  -26.1040 C.ar   67  PHE67      -0.0042
     21  CE1      -18.4920   19.2140  -23.9490 C.ar   67  PHE67      -0.0003
     22  CE2      -20.6320   18.6840  -24.9410 C.ar   67  PHE67      -0.0003
     23  CZ       -19.8840   19.1620  -23.8590 C.ar   67  PHE67      -0.0000
     24  N        -20.2690   31.9930  -17.2350 N.3   160  HIS160     -0.1226
     25  CA       -20.9440   31.7040  -18.4880 C.3   160  HIS160      0.1752
     26  C        -21.3730   30.2500  -18.6140 C.2   160  HIS160      0.2596
     27  O        -21.6420   29.8000  -19.7220 O.2   160  HIS160     -0.2718
     28  CB       -20.0200   32.0420  -19.6550 C.3   160  HIS160      0.0759
     29  CG       -19.6180   33.4820  -19.7100 C.ar  160  HIS160      0.0818
     30  ND1      -20.5150   34.4970  -19.9790 N.ar  160  HIS160     -0.2268
     31  CD2      -18.4190   34.0810  -19.5120 C.ar  160  HIS160      0.1154
     32  CE1      -19.8820   35.6570  -19.9440 C.ar  160  HIS160      0.1986
     33  NE2      -18.6090   35.4320  -19.6630 N.ar  160  HIS160     -0.2212
     34  N        -21.4510   29.5160  -17.5060 N.am  161  ASN161     -0.1974
     35  CA       -21.8280   28.1100  -17.6110 C.3   161  ASN161      0.1688
     36  C        -23.2220   27.8670  -18.2000 C.2   161  ASN161      0.2292
     37  O        -23.4820   26.7860  -18.7600 O.2   161  ASN161     -0.2864
     38  CB       -21.7200   27.4020  -16.2570 C.3   161  ASN161      0.1181
     39  CG       -20.3730   27.5810  -15.6190 C.2   161  ASN161      0.2629
     40  OD1      -19.3660   27.7890  -16.2960 O.2   161  ASN161     -0.2716
     41  ND2      -20.3400   27.4950  -14.3020 N.am  161  ASN161     -0.0877
     42  N        -23.2140   27.7070  -21.9020 N.3   164  PHE164     -0.1241
     43  CA       -22.5670   26.5010  -22.4010 C.3   164  PHE164      0.1605
     44  C        -23.5450   25.3580  -22.5130 C.2   164  PHE164      0.2264
     45  O        -23.5130   24.6240  -23.4800 O.2   164  PHE164     -0.2867
     46  CB       -21.4020   26.0740  -21.5100 C.3   164  PHE164      0.0534
     47  CG       -20.6640   24.8680  -22.0280 C.ar  164  PHE164     -0.0203
     48  CD1      -19.5080   25.0180  -22.8000 C.ar  164  PHE164     -0.0042
     49  CD2      -21.1640   23.5860  -21.8190 C.ar  164  PHE164     -0.0042
     50  CE1      -18.8750   23.9000  -23.3610 C.ar  164  PHE164     -0.0003
     51  CE2      -20.5390   22.4860  -22.3760 C.ar  164  PHE164     -0.0003
     52  CZ       -19.3990   22.6450  -23.1460 C.ar  164  PHE164     -0.0000
     53  N        -16.8040   32.1320  -24.8610 N.3   197  LEU197     -0.1231
     54  CA       -16.4120   31.4930  -23.5980 C.3   197  LEU197      0.1693
     55  C        -15.4410   30.3100  -23.7690 C.2   197  LEU197      0.2592
     56  O        -14.5070   30.1530  -22.9850 O.2   197  LEU197     -0.2718
     57  CB       -17.6630   31.0770  -22.7920 C.3   197  LEU197      0.0284
     58  CG       -18.3900   29.7530  -23.1150 C.3   197  LEU197      0.0019
     59  CD1      -17.7430   28.6100  -22.3280 C.3   197  LEU197      0.0001
     60  CD2      -19.8930   29.8500  -22.7730 C.3   197  LEU197      0.0001
     61  N        -15.6470   29.4880  -24.7920 N.am  198  ASN198     -0.1974
     62  CA       -14.7560   28.3600  -25.0470 C.3   198  ASN198      0.1688
     63  C        -13.3970   28.9080  -25.4600 C.2   198  ASN198      0.2292
     64  O        -12.3490   28.3370  -25.1640 O.2   198  ASN198     -0.2864
     65  CB       -15.3220   27.4830  -26.1660 C.3   198  ASN198      0.1181
     66  CG       -16.4780   26.6440  -25.7040 C.2   198  ASN198      0.2629
     67  OD1      -16.3240   25.8090  -24.8210 O.2   198  ASN198     -0.2716
     68  ND2      -17.6480   26.8610  -26.2880 N.am  198  ASN198     -0.0877
     69  N        -11.7200   29.9070  -22.1930 N.3   201  PHE201     -0.1241
     70  CA       -11.3410   28.7490  -21.3860 C.3   201  PHE201      0.1605
     71  C        -10.0760   28.1140  -21.8950 C.2   201  PHE201      0.2264
     72  O         -9.1980   27.7540  -21.1170 O.2   201  PHE201     -0.2867
     73  CB       -12.4400   27.6870  -21.4120 C.3   201  PHE201      0.0534
     74  CG       -13.1050   27.4720  -20.0950 C.ar  201  PHE201     -0.0203
     75  CD1      -14.0310   28.3900  -19.6150 C.ar  201  PHE201     -0.0042
     76  CD2      -12.8060   26.3500  -19.3320 C.ar  201  PHE201     -0.0042
     77  CE1      -14.6590   28.1970  -18.3820 C.ar  201  PHE201     -0.0003
     78  CE2      -13.4240   26.1480  -18.1080 C.ar  201  PHE201     -0.0003
     79  CZ       -14.3560   27.0770  -17.6310 C.ar  201  PHE201     -0.0000
     80  N         -9.1290   20.6220  -20.2340 N.3   254  THR254     -0.1203
     81  CA       -10.1950   21.6300  -20.3680 C.3   254  THR254      0.1994
     82  C        -11.5490   20.9750  -20.1090 C.2   254  THR254      0.2617
     83  O        -12.3870   21.5220  -19.3830 O.2   254  THR254     -0.2717
     84  CB       -10.2490   22.2840  -21.7690 C.3   254  THR254      0.1784
     85  OG1       -8.9870   22.8660  -22.0960 O.3   254  THR254     -0.2211
     86  CG2      -11.2720   23.3740  -21.7880 C.3   254  THR254      0.0376
     87  N        -11.7610   19.8010  -20.7080 N.am  255  ASP255     -0.1973
     88  CA       -13.0050   19.0710  -20.5040 C.3   255  ASP255      0.1709
     89  C        -13.1000   18.7260  -19.0140 C.2   255  ASP255      0.2293
     90  O        -14.1280   18.9220  -18.3650 O.2   255  ASP255     -0.2864
     91  CB       -13.0150   17.7900  -21.3480 C.3   255  ASP255      0.1436
     92  CG       -13.2010   18.0650  -22.8480 C.2   255  ASP255      0.3671
     93  OD1      -13.1000   17.0980  -23.6210 O.co2 255  ASP255     -0.2456
     94  OD2      -13.4430   19.2290  -23.2680 O.co2 255  ASP255     -0.2456
     95  N        -13.5970   21.9400  -16.9980 N.3   258  GLY258     -0.1210
     96  CA       -14.8570   22.5540  -17.3670 C.3   258  GLY258      0.1956
     97  C        -16.0810   21.8390  -16.8610 C.2   258  GLY258      0.2611
     98  O        -16.9890   22.4720  -16.3450 O.2   258  GLY258     -0.2717
     99  N        -16.1210   20.5210  -17.0160 N.am  259  ALA259     -0.1979
    100  CA       -17.2630   19.7420  -16.5560 C.3   259  ALA259      0.1597
    101  C        -17.4070   19.8540  -15.0540 C.2   259  ALA259      0.2287
    102  O        -18.3840   20.4070  -14.5580 O.2   259  ALA259     -0.2864
    103  CB       -17.1060   18.2870  -16.9460 C.3   259  ALA259      0.0319
    104  N        -16.3360   21.8130  -12.7250 N.3   261  GLN261     -0.1231
    105  CA       -16.6700   23.1560  -12.2510 C.3   261  GLN261      0.1698
    106  C        -18.1150   23.5760  -12.5150 C.2   261  GLN261      0.2592
    107  O        -18.6960   24.3840  -11.7790 O.2   261  GLN261     -0.2718
    108  CB       -15.7020   24.1510  -12.8850 C.3   261  GLN261      0.0381
    109  CG       -16.2170   25.5360  -13.0040 C.3   261  GLN261      0.0905
    110  CD       -17.0850   25.7670  -14.2370 C.2   261  GLN261      0.2608
    111  OE1      -17.9150   26.6660  -14.2350 O.2   261  GLN261     -0.2717
    112  NE2      -16.8900   24.9780  -15.2920 N.am  261  GLN261     -0.0878
    113  N        -18.6860   23.0390  -13.5810 N.am  262  ASP262     -0.1960
    114  CA       -20.0470   23.3580  -13.9510 C.3   262  ASP262      0.1840
    115  C        -20.9770   22.4420  -13.1570 C.2   262  ASP262      0.2622
    116  O        -21.7440   22.9140  -12.3020 O.2   262  ASP262     -0.2715
    117  CB       -20.2100   23.1550  -15.4620 C.3   262  ASP262      0.1450
    118  CG       -21.5550   23.6310  -15.9900 C.2   262  ASP262      0.3671
    119  OD1      -22.1290   24.5850  -15.4290 O.co2 262  ASP262     -0.2456
    120  OD2      -22.0340   23.0620  -16.9930 O.co2 262  ASP262     -0.2456
    121  N        -20.8760   21.1340  -13.4140 N.am  263  THR263     -0.1951
    122  CA       -21.7070   20.1380  -12.7410 C.3   263  THR263      0.1897
    123  C        -21.6610   20.1700  -11.2100 C.2   263  THR263      0.2313
    124  O        -22.7160   20.1960  -10.5490 O.2   263  THR263     -0.2863
    125  CB       -21.3280   18.7150  -13.1480 C.3   263  THR263      0.1794
    126  OG1      -19.9420   18.5210  -12.8740 O.3   263  THR263     -0.2208
    127  CG2      -21.6190   18.4550  -14.6210 C.3   263  THR263      0.0378
    128  N        -28.9630   16.9260  -14.4570 N.3   324  VAL324     -0.1245
    129  CA       -28.4060   16.6390  -15.7850 C.3   324  VAL324      0.1561
    130  C        -29.4980   15.7330  -16.3670 C.2   324  VAL324      0.2260
    131  O        -29.3170   14.5170  -16.4830 O.2   324  VAL324     -0.2867
    132  CB       -27.0340   15.8630  -15.7610 C.3   324  VAL324      0.0252
    133  CG1      -26.6050   15.5450  -17.1670 C.3   324  VAL324      0.0019
    134  CG2      -25.9310   16.7100  -15.1320 C.3   324  VAL324      0.0019
    135  N        -25.2000   14.3400  -22.8440 N.3   328  ILE328     -0.1245
    136  CA       -24.6940   15.0500  -24.0080 C.3   328  ILE328      0.1561
    137  C        -25.2400   14.1790  -25.1310 C.2   328  ILE328      0.2260
    138  O        -25.0530   12.9600  -25.1150 O.2   328  ILE328     -0.2867
    139  CB       -23.1600   15.0490  -24.0300 C.3   328  ILE328      0.0252
    140  CG1      -22.6370   15.8460  -22.8400 C.3   328  ILE328      0.0019
    141  CG2      -22.6470   15.6200  -25.3280 C.3   328  ILE328      0.0019
    142  CD1      -21.1390   15.7680  -22.6770 C.3   328  ILE328      0.0001
    143  N        -19.8530    9.3560  -17.4010 N.3   399  CYS399     -0.1235
    144  CA       -18.9630   10.2880  -16.7120 C.3   399  CYS399      0.1677
    145  C        -17.6860    9.6230  -16.2040 C.2   399  CYS399      0.2270
    146  O        -17.7230    8.5050  -15.6900 O.2   399  CYS399     -0.2867
    147  CB       -19.6960   10.9670  -15.5520 C.3   399  CYS399      0.0956
    148  SG       -18.7510   12.2730  -14.7330 S.3   399  CYS399     -0.0801
    149  N        -28.4870   20.8690  -20.6050 N.3   438  LEU438     -0.1231
    150  CA       -27.4350   19.9440  -20.1780 C.3   438  LEU438      0.1693
    151  C        -27.6600   19.9010  -18.6710 C.2   438  LEU438      0.2592
    152  O        -28.2780   18.9560  -18.1960 O.2   438  LEU438     -0.2718
    153  CB       -26.0420   20.4590  -20.5250 C.3   438  LEU438      0.0284
    154  CG       -24.9850   19.3560  -20.4910 C.3   438  LEU438      0.0019
    155  CD1      -25.3600   18.3000  -21.5040 C.3   438  LEU438      0.0001
    156  CD2      -23.6210   19.9100  -20.8230 C.3   438  LEU438      0.0001
    157  N        -27.1980   20.9060  -17.9160 N.am  439  THR439     -0.1953
    158  CA       -27.5070   20.9280  -16.4780 C.3   439  THR439      0.1897
    159  C        -28.7490   21.8280  -16.2300 C.2   439  THR439      0.2313
    160  O        -29.0380   22.7620  -17.0010 O.2   439  THR439     -0.2863
    161  CB       -26.3390   21.4690  -15.5740 C.3   439  THR439      0.1794
    162  OG1      -26.0260   22.8210  -15.9200 O.3   439  THR439     -0.2208
    163  CG2      -25.1050   20.6130  -15.6990 C.3   439  THR439      0.0378
@<TRIPOS>BOND
     1    16    15    2
     2     1     2    1
     3    15    14    1
     4     4     3    2
     5     2     3    1
     6     2     5    1
     7    17    14    1
     8    17    18    1
     9    14    13    1
    10     7     5    1
    11     5     6    1
    12    68    66   am
    13    13    10   am
    14    18    20   ar
    15    18    19   ar
    16    65    66    1
    17    65    62    1
    18    20    22   ar
    19    66    67    2
    20    11    10    2
    21    63    64    2
    22    63    62    1
    23    10     9    1
    24   141   139    1
    25   137   138    2
    26   137   136    1
    27    19    21   ar
    28    62    61    1
    29    22    23   ar
    30    53    54    1
    31    61    55   am
    32     8     9    1
    33     9    12    1
    34   139   136    1
    35   139   140    1
    36   136   135    1
    37    21    23   ar
    38    55    54    1
    39    55    56    2
    40    93    92   ar
    41    54    57    1
    42    45    44    2
    43    50    52   ar
    44    50    48   ar
    45    94    92   ar
    46    52    51   ar
    47    58    57    1
    48    58    60    1
    49    58    59    1
    50    92    91    1
    51   140   142    1
    52    48    47   ar
    53    44    43    1
    54    43    42    1
    55    43    46    1
    56    51    49   ar
    57    69    70    1
    58    85    84    1
    59    47    49   ar
    60    47    46    1
    61    71    70    1
    62    71    72    2
    63    86    84    1
    64    84    81    1
    65   155   154    1
    66    73    70    1
    67    73    74    1
    68    91    88    1
    69   156   154    1
    70    87    88    1
    71    87    82   am
    72   149   150    1
    73   153   154    1
    74   153   150    1
    75    88    89    1
    76    81    80    1
    77    81    82    1
    78   150   151    1
    79    82    83    2
    80    74    75   ar
    81    74    76   ar
    82    30    32   ar
    83    30    29   ar
    84    32    33   ar
    85    27    26    2
    86    29    28    1
    87    29    31   ar
    88    33    31   ar
    89    28    25    1
    90    75    77   ar
    91    76    78   ar
    92    89    90    2
    93    37    36    2
    94   151   152    2
    95   151   157   am
    96    26    25    1
    97    26    34   am
    98    25    24    1
    99    77    79   ar
   100    36    35    1
   101    78    79   ar
   102   157   158    1
   103    35    34    1
   104    35    38    1
   105   143   144    1
   106    96    95    1
   107    96    97    1
   108   133   132    1
   109    99    97   am
   110    99   100    1
   111   160   159    2
   112   120   118   ar
   113   103   100    1
   114    97    98    2
   115   144   145    1
   116   144   147    1
   117   100   101    1
   118   131   130    2
   119   158   159    1
   120   158   161    1
   121   130   129    1
   122    40    39    2
   123    38    39    1
   124   145   146    2
   125   118   117    1
   126   118   119   ar
   127   162   161    1
   128   129   132    1
   129   129   128    1
   130   132   134    1
   131   163   161    1
   132    39    41   am
   133   147   148    1
   134   117   114    1
   135   112   110   am
   136   101   102    2
   137   127   125    1
   138   110   111    2
   139   110   109    1
   140   114   113    1
   141   114   115    1
   142   113   106   am
   143   121   115   am
   144   121   122    1
   145   115   116    2
   146   125   126    1
   147   125   122    1
   148   109   108    1
   149   108   105    1
   150   122   123    1
   151   104   105    1
   152   106   105    1
   153   106   107    2
   154   123   124    2
