@<TRIPOS>MOLECULE
tmp/3pm3A00.pdb
 173 173 0 0 0
SMALL
GASTEIGER

@<TRIPOS>ATOM
      1  N         11.6390   26.7870   27.2800 N.3    40  HIS40      -0.1241
      2  CA        13.0440   26.4840   27.5420 C.3    40  HIS40       0.1621
      3  C         13.6660   25.6050   26.4540 C.2    40  HIS40       0.2264
      4  O         14.8940   25.4330   26.4030 O.2    40  HIS40      -0.2867
      5  CB        13.2830   25.9490   28.9820 C.3    40  HIS40       0.0745
      6  CG        13.0330   24.4870   29.1770 C.ar   40  HIS40       0.0817
      7  ND1       11.8240   23.9870   29.6160 N.ar   40  HIS40      -0.2268
      8  CD2       13.8630   23.4210   29.0610 C.ar   40  HIS40       0.1154
      9  CE1       11.9160   22.6740   29.7480 C.ar   40  HIS40       0.1986
     10  NE2       13.1480   22.3080   29.4240 N.ar   40  HIS40      -0.2212
     11  N         12.8530   32.9300   32.2350 N.3    78  SER78      -0.1202
     12  CA        13.8750   31.8740   32.1900 C.3    78  SER78       0.2020
     13  C         14.5490   31.6220   33.5370 C.2    78  SER78       0.2619
     14  O         15.2450   30.6320   33.6750 O.2    78  SER78      -0.2717
     15  CB        14.9430   32.1880   31.1480 C.3    78  SER78       0.2103
     16  OG        15.6030   33.3930   31.4950 O.3    78  SER78      -0.2182
     17  N         14.3060   32.4790   34.5260 N.am   79  GLU79      -0.1965
     18  CA        14.8870   32.2930   35.8530 C.3    79  GLU79       0.1733
     19  C         14.0280   31.3440   36.6910 C.2    79  GLU79       0.2617
     20  O         14.5400   30.5980   37.5340 O.2    79  GLU79      -0.2715
     21  CB        15.0420   33.6490   36.5470 C.3    79  GLU79       0.0429
     22  CG        15.9440   33.6880   37.7440 C.3    79  GLU79       0.1163
     23  CD        16.3300   35.1250   38.0780 C.2    79  GLU79       0.3649
     24  OE1       16.8700   35.8470   37.1940 O.co2  79  GLU79      -0.2457
     25  OE2       16.0820   35.5100   39.2370 O.co2  79  GLU79      -0.2457
     26  N         12.7150   31.3510   36.4730 N.am   80  THR80      -0.1937
     27  CA        11.8160   30.5370   37.3060 C.3    80  THR80       0.2028
     28  C         11.0490   29.5190   36.4840 C.2    80  THR80       0.2642
     29  O         10.3820   28.6550   37.0500 O.2    80  THR80      -0.2714
     30  CB        10.7420   31.4010   37.9910 C.3    80  THR80       0.1808
     31  OG1        9.9230   32.0100   36.9700 O.3    80  THR80      -0.2208
     32  CG2       11.3790   32.5230   38.8580 C.3    80  THR80       0.0379
     33  N         11.1280   29.6590   35.1630 N.am   81  TYR81      -0.1973
     34  CA        10.3500   28.8730   34.2050 C.3    81  TYR81       0.1639
     35  C          8.8350   29.1240   34.2660 C.2    81  TYR81       0.2290
     36  O          8.0350   28.3460   33.7190 O.2    81  TYR81      -0.2864
     37  CB        10.6650   27.3710   34.2960 C.3    81  TYR81       0.0560
     38  CG        11.9390   26.9450   33.5780 C.ar   81  TYR81      -0.0198
     39  CD1       13.0430   27.8020   33.4560 C.ar   81  TYR81      -0.0009
     40  CD2       12.0420   25.6680   33.0330 C.ar   81  TYR81      -0.0009
     41  CE1       14.2100   27.3910   32.8100 C.ar   81  TYR81       0.0417
     42  CE2       13.1890   25.2550   32.3990 C.ar   81  TYR81       0.0417
     43  CZ        14.2700   26.1130   32.2890 C.ar   81  TYR81       0.1957
     44  OH        15.4110   25.6630   31.6460 O.3    81  TYR81      -0.2866
     45  N         16.2340   10.8770   29.8380 N.3   123  ASN123     -0.1240
     46  CA        16.9770    9.9720   30.7140 C.3   123  ASN123      0.1653
     47  C         16.0170    9.0460   31.4770 C.2   123  ASN123      0.2266
     48  O         14.9740    9.4890   31.9790 O.2   123  ASN123     -0.2867
     49  CB        17.7820   10.8360   31.6780 C.3   123  ASN123      0.1155
     50  CG        18.8610   10.0660   32.4160 C.2   123  ASN123      0.2627
     51  OD1       18.9940    8.8470   32.2910 O.2   123  ASN123     -0.2716
     52  ND2       19.6310   10.7940   33.2300 N.am  123  ASN123     -0.0877
     53  N          9.0300    9.4150   37.3360 N.3   171  ASP171     -0.1225
     54  CA         9.0650   10.8660   37.0270 C.3   171  ASP171      0.1805
     55  C          9.4850   11.0750   35.5790 C.2   171  ASP171      0.2598
     56  O         10.0260   10.1720   34.9370 O.2   171  ASP171     -0.2718
     57  CB        10.0820   11.5380   37.9710 C.3   171  ASP171      0.1424
     58  CG         9.9440   13.0600   38.0850 C.2   171  ASP171      0.3668
     59  OD1        9.0420   13.6870   37.4860 O.co2 171  ASP171     -0.2456
     60  OD2       10.7830   13.6410   38.8330 O.co2 171  ASP171     -0.2456
     61  N          9.2300   12.2630   35.0470 N.am  172  ALA172     -0.1966
     62  CA         9.9250   12.6680   33.8230 C.3   172  ALA172      0.1728
     63  C         11.3600   13.0760   34.1690 C.2   172  ALA172      0.2616
     64  O         11.7470   13.0860   35.3480 O.2   172  ALA172     -0.2715
     65  CB         9.1630   13.8060   33.1380 C.3   172  ALA172      0.0334
     66  N         12.1650   13.3910   33.1610 N.am  173  CYS173     -0.1954
     67  CA        13.5720   13.7200   33.4010 C.3   173  CYS173      0.1843
     68  C         14.1550   14.5620   32.2650 C.2   173  CYS173      0.2625
     69  O         13.4440   14.9130   31.2900 O.2   173  CYS173     -0.2714
     70  CB        14.3740   12.4090   33.5880 C.3   173  CYS173      0.0997
     71  SG        15.9070   12.5900   34.5600 S.3   173  CYS173     -0.0797
     72  N         15.4400   14.8970   32.3630 N.am  174  GLN174     -0.1977
     73  CA        16.1200   15.6460   31.3040 C.3   174  GLN174      0.1601
     74  C         15.9090   14.9530   29.9590 C.2   174  GLN174      0.2287
     75  O         16.0000   13.7180   29.8550 O.2   174  GLN174     -0.2864
     76  CB        17.6260   15.7460   31.5510 C.3   174  GLN174      0.0394
     77  CG        18.1170   16.8970   32.3560 C.3   174  GLN174      0.0908
     78  CD        19.6310   16.9980   32.2430 C.2   174  GLN174      0.2608
     79  OE1       20.3490   15.9810   32.3240 O.2   174  GLN174     -0.2717
     80  NE2       20.1240   18.2110   32.0160 N.am  174  GLN174     -0.0878
     81  N         11.8240   17.2910   28.3820 N.3   177  SER177     -0.1217
     82  CA        11.4480   18.7120   28.2440 C.3   177  SER177      0.1889
     83  C         10.6090   18.9890   27.0200 C.2   177  SER177      0.2288
     84  O         10.9660   18.5840   25.9080 O.2   177  SER177     -0.2866
     85  CB        12.6860   19.5750   28.0650 C.3   177  SER177      0.2089
     86  OG        13.4400   19.6740   29.2650 O.3   177  SER177     -0.2183
     87  N          6.2120   19.1200   29.8610 N.3   191  VAL191     -0.1231
     88  CA         7.3330   18.7790   30.7690 C.3   191  VAL191      0.1692
     89  C          8.2290   20.0120   30.9100 C.2   191  VAL191      0.2593
     90  O          8.7430   20.5130   29.9120 O.2   191  VAL191     -0.2718
     91  CB         8.1670   17.5870   30.2110 C.3   191  VAL191      0.0266
     92  CG1        9.3520   17.2740   31.1030 C.3   191  VAL191      0.0020
     93  CG2        7.2920   16.3260   30.0470 C.3   191  VAL191      0.0020
     94  N          8.3630   20.5220   32.1390 N.am  192  SER192     -0.1938
     95  CA         9.0150   21.8110   32.3660 C.3   192  SER192      0.2055
     96  C         10.2650   21.6880   33.2380 C.2   192  SER192      0.2643
     97  O         11.3750   21.8970   32.7430 O.2   192  SER192     -0.2714
     98  CB         7.9950   22.8040   32.9540 C.3   192  SER192      0.2130
     99  OG         8.5700   24.1020   33.0420 O.3   192  SER192     -0.2179
    100  N         10.0860   21.3670   34.5240 N.am  193  TRP193     -0.1959
    101  CA        11.2350   21.3780   35.4230 C.3   193  TRP193      0.1771
    102  C         11.0570   20.4880   36.6190 C.2   193  TRP193      0.2620
    103  O         10.0280   19.8430   36.7730 O.2   193  TRP193     -0.2715
    104  CB        11.6060   22.8130   35.8540 C.3   193  TRP193      0.0590
    105  CG        10.5740   23.5570   36.6900 C.ar  193  TRP193      0.0006
    106  CD1        9.4820   24.2620   36.2330 C.ar  193  TRP193      0.0946
    107  CD2       10.5740   23.7220   38.1290 C.ar  193  TRP193      0.0152
    108  NE1        8.8000   24.8400   37.2940 N.ar  193  TRP193     -0.2442
    109  CE2        9.4460   24.5130   38.4600 C.ar  193  TRP193      0.0810
    110  CE3       11.4110   23.2730   39.1580 C.ar  193  TRP193      0.0012
    111  CZ2        9.1390   24.8730   39.7880 C.ar  193  TRP193      0.0191
    112  CZ3       11.1020   23.6290   40.4790 C.ar  193  TRP193      0.0001
    113  CH2        9.9790   24.4130   40.7710 C.ar  193  TRP193      0.0015
    114  N         12.0830   20.4570   37.4610 N.am  194  GLY194     -0.1940
    115  CA        12.0390   19.6290   38.6690 C.3   194  GLY194      0.2014
    116  C         13.3200   19.7940   39.4570 C.2   194  GLY194      0.2640
    117  O         14.0950   20.7040   39.2010 O.2   194  GLY194     -0.2714
    118  N         13.4960   18.9250   40.4490 N.am  195  SER195     -0.1935
    119  CA        14.7480   18.8250   41.1730 C.3   195  SER195      0.2055
    120  C         15.1980   17.3840   41.0680 C.2   195  SER195      0.2644
    121  O         14.5650   16.4970   41.6310 O.2   195  SER195     -0.2714
    122  CB        14.5130   19.1930   42.6290 C.3   195  SER195      0.2130
    123  OG        15.6890   18.8760   43.3580 O.3   195  SER195     -0.2179
    124  N         16.2770   17.1490   40.3230 N.am  196  GLY196     -0.1939
    125  CA        16.6820   15.7970   39.9630 C.3   196  GLY196      0.2014
    126  C         15.5470   15.1080   39.2190 C.2   196  GLY196      0.2639
    127  O         14.7360   15.7740   38.5490 O.2   196  GLY196     -0.2714
    128  N         15.4880   13.7820   39.3290 N.am  197  CYS197     -0.1967
    129  CA        14.3960   13.0050   38.7270 C.3   197  CYS197      0.1712
    130  C         14.0190   11.8690   39.6510 C.2   197  CYS197      0.2296
    131  O         14.8900   11.1290   40.0890 O.2   197  CYS197     -0.2864
    132  CB        14.7900   12.4310   37.3560 C.3   197  CYS197      0.0983
    133  SG        15.3740   13.6850   36.2190 S.3   197  CYS197     -0.0798
    134  N         10.0420   15.2930   45.5930 N.3   202  LYS202     -0.1231
    135  CA        10.4650   16.2020   44.5260 C.3   202  LYS202      0.1678
    136  C          9.7440   15.8030   43.2220 C.2   202  LYS202      0.2434
    137  O         10.3460   15.2340   42.3320 O.2   202  LYS202     -0.2733
    138  CB        11.9850   16.1400   44.3790 C.3   202  LYS202      0.0284
    139  CG        12.7730   16.4660   45.6590 C.3   202  LYS202      0.0035
    140  CD        12.5940   17.8930   46.0610 C.3   202  LYS202      0.0206
    141  CE        13.0400   18.1270   47.5040 C.3   202  LYS202      0.1093
    142  NZ        12.9860   19.5920   47.8290 N.3   202  LYS202     -0.1314
    143  N          8.4380   16.0850   43.1410 N.am  203  PRO203     -0.2718
    144  CA         7.7030   15.6060   41.9670 C.3   203  PRO203      0.1535
    145  C          7.9790   16.4840   40.7420 C.2   203  PRO203      0.2599
    146  O          8.6320   17.5240   40.8490 O.2   203  PRO203     -0.2715
    147  CB         6.2430   15.7450   42.4040 C.3   203  PRO203      0.0310
    148  CG         6.2530   16.9350   43.3480 C.3   203  PRO203      0.0237
    149  CD         7.5680   16.8070   44.0940 C.3   203  PRO203      0.0939
    150  N          7.5110   16.0390   39.5800 N.am  204  GLY204     -0.1941
    151  CA         7.7390   16.7980   38.3560 C.3   204  GLY204      0.2014
    152  C          6.8340   18.0140   38.2970 C.2   204  GLY204      0.2639
    153  O          5.7010   17.9880   38.7940 O.2   204  GLY204     -0.2714
    154  N          7.3580   19.0850   37.7050 N.am  205  ILE205     -0.1963
    155  CA         6.6020   20.3020   37.4950 C.3   205  ILE205      0.1727
    156  C          6.3370   20.5290   36.0090 C.2   205  ILE205      0.2616
    157  O          7.2460   20.3830   35.1540 O.2   205  ILE205     -0.2715
    158  CB         7.3010   21.5580   38.1260 C.3   205  ILE205      0.0290
    159  CG1        7.8450   21.2440   39.5440 C.3   205  ILE205      0.0022
    160  CG2        6.3170   22.7480   38.1470 C.3   205  ILE205      0.0023
    161  CD1        6.8090   20.7700   40.5440 C.3   205  ILE205      0.0001
    162  N          5.0910   20.9040   35.7330 N.am  206  TYR206     -0.1974
    163  CA         4.5340   20.9580   34.3710 C.3   206  TYR206      0.1639
    164  C          3.8410   22.2750   34.0910 C.2   206  TYR206      0.2290
    165  O          3.1760   22.8430   34.9730 O.2   206  TYR206     -0.2864
    166  CB         3.5620   19.7650   34.1920 C.3   206  TYR206      0.0560
    167  CG         4.2860   18.4600   34.4230 C.ar  206  TYR206     -0.0198
    168  CD1        4.2980   17.8450   35.6830 C.ar  206  TYR206     -0.0009
    169  CD2        5.0290   17.8720   33.4040 C.ar  206  TYR206     -0.0009
    170  CE1        5.0050   16.6520   35.8940 C.ar  206  TYR206      0.0417
    171  CE2        5.7210   16.6850   33.5950 C.ar  206  TYR206      0.0417
    172  CZ         5.7200   16.0960   34.8470 C.ar  206  TYR206      0.1957
    173  OH         6.4410   14.9360   35.0270 O.3   206  TYR206     -0.2866
@<TRIPOS>BOND
     1    84    83    2
     2     4     3    2
     3     3     2    1
     4    83    82    1
     5     1     2    1
     6     2     5    1
     7    85    82    1
     8    85    86    1
     9    82    81    1
    10     5     6    1
    11     8     6   ar
    12     8    10   ar
    13     6     7   ar
    14    10     9   ar
    15     7     9   ar
    16    45    46    1
    17    75    74    2
    18    87    88    1
    19    90    89    2
    20    74    73    1
    21    93    91    1
    22    91    88    1
    23    91    92    1
    24    46    47    1
    25    46    49    1
    26    88    89    1
    27    89    94   am
    28    15    16    1
    29    15    12    1
    30    69    68    2
    31    73    76    1
    32    73    72    1
    33    47    48    2
    34    76    77    1
    35    44    43    1
    36    49    50    1
    37    80    78   am
    38    94    95    1
    39    12    11    1
    40    12    13    1
    41    78    79    2
    42    78    77    1
    43    68    72   am
    44    68    67    1
    45    43    42   ar
    46    43    41   ar
    47    51    50    2
    48    95    98    1
    49    95    96    1
    50    42    40   ar
    51    50    52   am
    52    97    96    2
    53    41    39   ar
    54    98    99    1
    55    40    38   ar
    56    65    62    1
    57    66    67    1
    58    66    63   am
    59    96   100   am
    60    67    70    1
    61   169   171   ar
    62   169   167   ar
    63    39    38   ar
    64    13    14    2
    65    13    17   am
    66    38    37    1
    67    70    71    1
    68   171   172   ar
    69    36    35    2
    70    62    63    1
    71    62    61    1
    72   164   163    1
    73   164   165    2
    74    63    64    2
    75   166   163    1
    76   166   167    1
    77    34    35    1
    78    34    37    1
    79    34    33    1
    80   163   162    1
    81   167   168   ar
    82   100   101    1
    83    17    18    1
    84    71   133    1
    85   172   173    1
    86   172   170   ar
    87    56    55    2
    88    61    55   am
    89   157   156    2
    90    33    28   am
    91   101   104    1
    92   101   102    1
    93    55    54    1
    94   168   170   ar
    95   162   156   am
    96    18    21    1
    97    18    19    1
    98   104   105    1
    99   156   155    1
   100   133   132    1
   101   106   105   ar
   102   106   108   ar
   103    26    19   am
   104    26    27    1
   105    28    29    2
   106    28    27    1
   107    21    22    1
   108   102   103    2
   109   102   114   am
   110   105   107   ar
   111    19    20    2
   112    31    30    1
   113    54    53    1
   114    54    57    1
   115    24    23   ar
   116   108   109   ar
   117    27    30    1
   118   132   129    1
   119   114   115    1
   120    59    58   ar
   121   155   154    1
   122   155   158    1
   123   154   152   am
   124    22    23    1
   125    57    58    1
   126    30    32    1
   127    23    25   ar
   128    58    60   ar
   129   158   160    1
   130   158   159    1
   131   107   109   ar
   132   107   110   ar
   133   152   151    1
   134   152   153    2
   135   151   150    1
   136   109   111   ar
   137   127   126    2
   138   115   116    1
   139   129   128    1
   140   129   130    1
   141   110   112   ar
   142   117   116    2
   143   126   128   am
   144   126   125    1
   145   116   118   am
   146   159   161    1
   147   150   145   am
   148   130   131    2
   149   111   113   ar
   150   125   124    1
   151   124   120   am
   152   118   119    1
   153   112   113   ar
   154   145   146    2
   155   145   144    1
   156   120   119    1
   157   120   121    2
   158   119   122    1
   159   144   147    1
   160   144   143    1
   161   137   136    2
   162   147   148    1
   163   122   123    1
   164   143   136   am
   165   143   149    1
   166   136   135    1
   167   148   149    1
   168   138   135    1
   169   138   139    1
   170   135   134    1
   171   139   140    1
   172   140   141    1
   173   141   142    1
