@<TRIPOS>MOLECULE
tmp/3pm5D01.pdb
 117 115 0 0 0
SMALL
GASTEIGER

@<TRIPOS>ATOM
      1  N         19.8250   21.1200  -39.1130 N.3   192  LYS192     -0.1245
      2  CA        19.1280   22.3910  -39.3720 C.3   192  LYS192      0.1561
      3  C         19.9950   23.5350  -38.8570 C.2   192  LYS192      0.2260
      4  O         20.7730   23.3290  -37.9350 O.2   192  LYS192     -0.2867
      5  CB        17.7730   22.4160  -38.6380 C.3   192  LYS192      0.0271
      6  CG        16.8600   21.1830  -38.9500 C.3   192  LYS192      0.0035
      7  CD        15.6850   21.5570  -39.8850 C.3   192  LYS192      0.0206
      8  CE        14.9870   20.3230  -40.5590 C.3   192  LYS192      0.1093
      9  NZ        13.9910   20.8280  -41.5720 N.3   192  LYS192     -0.1314
     10  N         18.5820   26.7380  -37.4260 N.3   194  PRO194     -0.2116
     11  CA        17.2050   27.2120  -37.2530 C.3   194  PRO194      0.1372
     12  C         17.0010   28.6680  -36.8410 C.2   194  PRO194      0.2244
     13  O         15.8730   29.1260  -36.8740 O.2   194  PRO194     -0.2868
     14  CB        16.6470   26.3210  -36.1440 C.3   194  PRO194      0.0268
     15  CG        17.8460   25.9230  -35.3500 C.3   194  PRO194      0.0207
     16  CD        19.0120   25.8620  -36.3390 C.3   194  PRO194      0.0892
     17  N         22.4010   30.3070  -34.3400 N.3   198  SER198     -0.1217
     18  CA        23.0410   29.1440  -34.9530 C.3   198  SER198      0.1889
     19  C         23.8510   29.5290  -36.1800 C.2   198  SER198      0.2288
     20  O         24.9160   28.9390  -36.3950 O.2   198  SER198     -0.2866
     21  CB        21.9870   28.1110  -35.4060 C.3   198  SER198      0.2089
     22  OG        21.2880   27.5970  -34.2850 O.3   198  SER198     -0.2183
     23  N         24.8660   27.0420  -26.8320 N.3   283  TYR283     -0.1241
     24  CA        24.9720   27.0330  -28.2950 C.3   283  TYR283      0.1605
     25  C         26.4170   26.8330  -28.7410 C.2   283  TYR283      0.2264
     26  O         26.6770   26.2390  -29.7860 O.2   283  TYR283     -0.2867
     27  CB        24.4100   28.2960  -28.9210 C.3   283  TYR283      0.0534
     28  CG        22.9340   28.2600  -29.1700 C.ar  283  TYR283     -0.0201
     29  CD1       22.4380   28.1890  -30.4520 C.ar  283  TYR283     -0.0009
     30  CD2       22.0390   28.3590  -28.1240 C.ar  283  TYR283     -0.0009
     31  CE1       21.1030   28.1270  -30.6860 C.ar  283  TYR283      0.0417
     32  CE2       20.6980   28.3540  -28.3400 C.ar  283  TYR283      0.0417
     33  CZ        20.2170   28.2320  -29.6200 C.ar  283  TYR283      0.1957
     34  OH        18.8340   28.2360  -29.8560 O.3   283  TYR283     -0.2866
     35  N         27.1750   23.1050  -28.3320 N.3   286  PHE286     -0.1227
     36  CA        26.5830   22.3700  -29.4630 C.3   286  PHE286      0.1736
     37  C         27.4120   22.4170  -30.7430 C.2   286  PHE286      0.2595
     38  O         27.8220   21.3620  -31.2990 O.2   286  PHE286     -0.2718
     39  CB        25.1540   22.8540  -29.7850 C.3   286  PHE286      0.0547
     40  CG        24.4820   22.0740  -30.9040 C.ar  286  PHE286     -0.0202
     41  CD1       23.8800   20.8460  -30.6520 C.ar  286  PHE286     -0.0042
     42  CD2       24.5600   22.5140  -32.2320 C.ar  286  PHE286     -0.0042
     43  CE1       23.2750   20.0830  -31.7250 C.ar  286  PHE286     -0.0003
     44  CE2       23.9910   21.7830  -33.2820 C.ar  286  PHE286     -0.0003
     45  CZ        23.3310   20.5610  -33.0250 C.ar  286  PHE286     -0.0000
     46  N         27.6290   23.6200  -31.2370 N.am  287  HIS287     -0.1975
     47  CA        28.2090   23.7500  -32.5620 C.3   287  HIS287      0.1656
     48  C         29.6730   23.3540  -32.5400 C.2   287  HIS287      0.2291
     49  O         30.1690   22.8750  -33.5510 O.2   287  HIS287     -0.2864
     50  CB        28.0620   25.1840  -33.0920 C.3   287  HIS287      0.0771
     51  CG        26.6900   25.4930  -33.5660 C.ar  287  HIS287      0.0820
     52  ND1       26.2790   25.2220  -34.8470 N.ar  287  HIS287     -0.2267
     53  CD2       25.5980   25.9280  -32.8980 C.ar  287  HIS287      0.1154
     54  CE1       25.0010   25.5370  -34.9630 C.ar  287  HIS287      0.1986
     55  NE2       24.5730   25.9820  -33.7910 N.ar  287  HIS287     -0.2212
     56  N         30.0570   15.1760  -26.1340 N.3   392  HIS392     -0.1241
     57  CA        29.0710   15.1830  -27.2600 C.3   392  HIS392      0.1621
     58  C         29.7000   14.9180  -28.6160 C.2   392  HIS392      0.2264
     59  O         29.6880   15.7830  -29.5130 O.2   392  HIS392     -0.2867
     60  CB        28.3460   16.5030  -27.2960 C.3   392  HIS392      0.0745
     61  CG        27.1870   16.5630  -28.2320 C.ar  392  HIS392      0.0817
     62  ND1       27.1250   17.4750  -29.2870 N.ar  392  HIS392     -0.2268
     63  CD2       26.0070   15.9110  -28.2310 C.ar  392  HIS392      0.1154
     64  CE1       25.9700   17.3380  -29.9080 C.ar  392  HIS392      0.1986
     65  NE2       25.2820   16.3910  -29.2950 N.ar  392  HIS392     -0.2212
     66  N         22.2930   16.7480  -19.6100 N.3   419  HIS419     -0.1226
     67  CA        22.6750   17.4770  -20.8300 C.3   419  HIS419      0.1752
     68  C         21.8000   18.7310  -21.0910 C.2   419  HIS419      0.2595
     69  O         22.1740   19.6060  -21.9200 O.2   419  HIS419     -0.2718
     70  CB        22.7140   16.5510  -22.0890 C.3   419  HIS419      0.0759
     71  CG        21.3610   16.1330  -22.5970 C.ar  419  HIS419      0.0818
     72  ND1       20.5710   16.9500  -23.3640 N.ar  419  HIS419     -0.2268
     73  CD2       20.6820   14.9670  -22.4740 C.ar  419  HIS419      0.1154
     74  CE1       19.4350   16.3280  -23.6380 C.ar  419  HIS419      0.1986
     75  NE2       19.4850   15.1160  -23.1120 N.ar  419  HIS419     -0.2212
     76  N         20.6430   18.8150  -20.4250 N.am  420  LYS420     -0.1980
     77  CA        19.8610   20.0570  -20.5010 C.3   420  LYS420      0.1596
     78  C         20.6910   21.2850  -20.0490 C.2   420  LYS420      0.2287
     79  O         20.5770   22.3350  -20.6300 O.2   420  LYS420     -0.2864
     80  CB        18.5050   19.9680  -19.7530 C.3   420  LYS420      0.0298
     81  CG        18.5610   19.6120  -18.2930 C.3   420  LYS420      0.0038
     82  CD        17.0890   19.6260  -17.7530 C.3   420  LYS420      0.0206
     83  CE        16.8220   18.5310  -16.7560 C.3   420  LYS420      0.1093
     84  NZ        16.8890   17.0930  -17.3000 N.3   420  LYS420     -0.1314
     85  N         23.4000   21.7210  -23.3960 N.3   423  LEU423     -0.1231
     86  CA        23.1070   21.8580  -24.8280 C.3   423  LEU423      0.1678
     87  C         21.7270   22.4850  -24.9190 C.2   423  LEU423      0.2434
     88  O         20.9170   22.2800  -24.0340 O.2   423  LEU423     -0.2733
     89  CB        23.0610   20.4520  -25.4800 C.3   423  LEU423      0.0284
     90  CG        24.4070   19.7290  -25.6490 C.3   423  LEU423      0.0019
     91  CD1       24.1830   18.3090  -26.1320 C.3   423  LEU423      0.0001
     92  CD2       25.2270   20.5130  -26.6610 C.3   423  LEU423      0.0001
     93  N         21.4460   23.2120  -25.9820 N.am  424  PRO424     -0.2718
     94  CA        20.1720   23.8970  -26.0290 C.3   424  PRO424      0.1535
     95  C         18.9680   22.9850  -25.8580 C.2   424  PRO424      0.2599
     96  O         18.7050   22.1690  -26.7390 O.2   424  PRO424     -0.2715
     97  CB        20.1660   24.5170  -27.4220 C.3   424  PRO424      0.0310
     98  CG        21.5880   24.7690  -27.7210 C.3   424  PRO424      0.0237
     99  CD        22.3620   23.6460  -27.0350 C.3   424  PRO424      0.0939
    100  N         18.2310   23.1080  -24.7530 N.am  425  THR425     -0.1951
    101  CA        16.9440   22.4070  -24.5890 C.3   425  THR425      0.1897
    102  C         15.9220   22.9630  -25.6110 C.2   425  THR425      0.2313
    103  O         16.2280   23.8790  -26.3440 O.2   425  THR425     -0.2863
    104  CB        16.3890   22.6320  -23.2080 C.3   425  THR425      0.1794
    105  OG1       16.0600   24.0420  -23.0660 O.3   425  THR425     -0.2208
    106  CG2       17.3910   22.2360  -22.1950 C.3   425  THR425      0.0378
    107  N         15.5230   26.7340  -27.2710 N.3   429  ARG429     -0.1245
    108  CA        15.4180   27.0160  -28.7400 C.3   429  ARG429      0.1563
    109  C         14.1800   27.8370  -29.0960 C.2   429  ARG429      0.2260
    110  O         14.2400   28.6460  -29.9990 O.2   429  ARG429     -0.2867
    111  CB        15.4090   25.7440  -29.6230 C.3   429  ARG429      0.0307
    112  CG        16.7890   24.9510  -29.6460 C.3   429  ARG429      0.0489
    113  CD        16.8830   23.8070  -30.7570 C.3   429  ARG429      0.2205
    114  NE        15.8630   22.7780  -30.5210 N.pl3 429  ARG429     -0.0865
    115  CZ        15.9100   21.7720  -29.6220 C.cat 429  ARG429      0.5346
    116  NH1       16.9720   21.5510  -28.8420 N.pl3 429  ARG429      0.1354
    117  NH2       14.8730   20.9440  -29.5100 N.pl3 429  ARG429      0.1354
@<TRIPOS>BOND
     1     9     8    1
     2     8     7    1
     3     7     6    1
     4     2     1    1
     5     2     3    1
     6     2     5    1
     7     6     5    1
     8     3     4    2
     9    10    11    1
    10    10    16    1
    11    11    12    1
    12    11    14    1
    13    13    12    2
    14    20    19    2
    15    16    15    1
    16    19    18    1
    17    14    15    1
    18    21    18    1
    19    21    22    1
    20    54    52   ar
    21    54    55   ar
    22    18    17    1
    23    52    51   ar
    24    55    53   ar
    25    51    50    1
    26    51    53   ar
    27    49    48    2
    28    44    45   ar
    29    44    42   ar
    30    50    47    1
    31    45    43   ar
    32    47    48    1
    33    47    46    1
    34    42    40   ar
    35    43    41   ar
    36    38    37    2
    37    46    37   am
    38    40    41   ar
    39    40    39    1
    40   113   114    1
    41   113   112    1
    42    37    36    1
    43    31    29   ar
    44    31    33   ar
    45   114   115    2
    46    29    28   ar
    47   110   109    2
    48    64    65   ar
    49    64    62   ar
    50    34    33    1
    51    26    25    2
    52    39    36    1
    53   112   111    1
    54   111   108    1
    55   115   117    1
    56   115   116    1
    57    33    32   ar
    58    59    58    2
    59    36    35    1
    60    65    63   ar
    61    62    61   ar
    62    28    27    1
    63    28    30   ar
    64   109   108    1
    65    27    24    1
    66    25    24    1
    67   108   107    1
    68    58    57    1
    69    32    30   ar
    70    24    23    1
    71    61    63   ar
    72    61    60    1
    73    98    97    1
    74    98    99    1
    75    97    94    1
    76    60    57    1
    77    57    56    1
    78    99    93    1
    79    96    95    2
    80    92    90    1
    81   103   102    2
    82    91    90    1
    83    94    93    1
    84    94    95    1
    85    93    87   am
    86    95   100   am
    87    90    89    1
    88   102   101    1
    89    89    86    1
    90    87    86    1
    91    87    88    2
    92    86    85    1
    93   100   101    1
    94   101   104    1
    95    74    72   ar
    96    74    75   ar
    97    72    71   ar
    98   104   105    1
    99   104   106    1
   100    75    73   ar
   101    71    73   ar
   102    71    70    1
   103    70    67    1
   104    69    68    2
   105    68    67    1
   106    68    76   am
   107    67    66    1
   108    79    78    2
   109    77    76    1
   110    77    78    1
   111    77    80    1
   112    80    81    1
   113    81    82    1
   114    82    83    1
   115    84    83    1
