@<TRIPOS>MOLECULE
tmp/3pmaD00.pdb
 89 87 0 0 0
SMALL
GASTEIGER

@<TRIPOS>ATOM
      1  N         12.7140  -47.9080   30.5550 N.3    83  LYS83      -0.1245
      2  CA        12.7180  -47.9530   32.0110 C.3    83  LYS83       0.1561
      3  C         12.0040  -49.2030   32.5260 C.2    83  LYS83       0.2260
      4  O         11.0840  -49.7150   31.8810 O.2    83  LYS83      -0.2867
      5  CB        12.0660  -46.6830   32.5800 C.3    83  LYS83       0.0271
      6  CG        12.3410  -46.4250   34.0630 C.3    83  LYS83       0.0035
      7  CD        12.2390  -44.9510   34.4050 C.3    83  LYS83       0.0206
      8  CE        12.7430  -44.6710   35.8180 C.3    83  LYS83       0.1093
      9  NZ        13.2700  -43.2760   35.9350 N.3    83  LYS83      -0.1314
     10  N          9.9470  -50.7920   35.9130 N.3    85  TYR85      -0.1227
     11  CA         9.2320  -50.5050   37.1500 C.3    85  TYR85       0.1736
     12  C          8.8870  -51.8090   37.8440 C.2    85  TYR85       0.2595
     13  O          8.2490  -52.6740   37.2570 O.2    85  TYR85      -0.2718
     14  CB         7.9450  -49.7240   36.8640 C.3    85  TYR85       0.0548
     15  CG         8.1680  -48.3620   36.2500 C.ar   85  TYR85      -0.0200
     16  CD1        8.2560  -48.2060   34.8650 C.ar   85  TYR85      -0.0009
     17  CD2        8.2830  -47.2250   37.0530 C.ar   85  TYR85      -0.0009
     18  CE1        8.4570  -46.9480   34.2900 C.ar   85  TYR85       0.0417
     19  CE2        8.4860  -45.9540   36.4880 C.ar   85  TYR85       0.0417
     20  CZ         8.5700  -45.8300   35.1080 C.ar   85  TYR85       0.1957
     21  OH         8.7690  -44.5950   34.5410 O.3    85  TYR85      -0.2866
     22  N          9.3160  -51.9540   39.0910 N.am   86  ILE86      -0.1980
     23  CA         8.9520  -53.1330   39.8730 C.3    86  ILE86       0.1595
     24  C          8.0740  -52.7050   41.0410 C.2    86  ILE86       0.2287
     25  O          8.3010  -51.6560   41.6290 O.2    86  ILE86      -0.2864
     26  CB        10.1990  -53.9310   40.3440 C.3    86  ILE86       0.0276
     27  CG1       10.9510  -54.4880   39.1280 C.3    86  ILE86       0.0022
     28  CG2        9.7910  -55.0870   41.2640 C.3    86  ILE86       0.0022
     29  CD1       12.3260  -55.0340   39.4290 C.3    86  ILE86       0.0001
     30  N          6.8010  -51.8500   44.4520 N.3    88  PRO88      -0.2116
     31  CA         7.5310  -51.5440   45.6930 C.3    88  PRO88       0.1372
     32  C          7.3340  -52.5790   46.7970 C.2    88  PRO88       0.2244
     33  O          8.1770  -52.6940   47.6890 O.2    88  PRO88      -0.2868
     34  CB         6.9460  -50.1930   46.1300 C.3    88  PRO88       0.0268
     35  CG         5.6630  -50.0500   45.3720 C.3    88  PRO88       0.0207
     36  CD         5.9050  -50.7440   44.0670 C.3    88  PRO88       0.0892
     37  N         -1.6560  -49.9340   40.9820 N.3   249  TRP249     -0.1241
     38  CA        -0.2150  -49.7380   40.7620 C.3   249  TRP249      0.1605
     39  C          0.1030  -49.5670   39.2850 C.2   249  TRP249      0.2264
     40  O          0.8620  -48.6770   38.9220 O.2   249  TRP249     -0.2867
     41  CB         0.6330  -50.8810   41.3390 C.3   249  TRP249      0.0550
     42  CG         2.1140  -50.6950   41.0460 C.ar  249  TRP249      0.0003
     43  CD1        2.9760  -49.8330   41.6730 C.ar  249  TRP249      0.0946
     44  CD2        2.8840  -51.3600   40.0360 C.ar  249  TRP249      0.0152
     45  NE1        4.2330  -49.9320   41.1270 N.ar  249  TRP249     -0.2442
     46  CE2        4.2070  -50.8600   40.1200 C.ar  249  TRP249      0.0810
     47  CE3        2.5880  -52.3370   39.0730 C.ar  249  TRP249      0.0012
     48  CZ2        5.2330  -51.3030   39.2750 C.ar  249  TRP249      0.0191
     49  CZ3        3.6100  -52.7780   38.2350 C.ar  249  TRP249      0.0001
     50  CH2        4.9160  -52.2570   38.3420 C.ar  249  TRP249      0.0015
     51  N         -1.0070  -46.1830   38.1510 N.3   252  LYS252     -0.1231
     52  CA        -0.0620  -45.2230   38.7170 C.3   252  LYS252      0.1693
     53  C          1.1710  -44.9980   37.8250 C.2   252  LYS252      0.2591
     54  O          1.5200  -43.8510   37.5500 O.2   252  LYS252     -0.2718
     55  CB         0.3470  -45.6710   40.1220 C.3   252  LYS252      0.0285
     56  CG         1.0880  -44.6410   40.9580 C.3   252  LYS252      0.0035
     57  CD         1.5790  -45.2980   42.2490 C.3   252  LYS252      0.0206
     58  CE         2.6100  -44.4500   42.9730 C.3   252  LYS252      0.1093
     59  NZ         2.0140  -43.2580   43.6310 N.3   252  LYS252     -0.1314
     60  N          1.8190  -46.0710   37.3600 N.am  253  VAL253     -0.1980
     61  CA         3.0080  -45.8950   36.5100 C.3   253  VAL253      0.1595
     62  C          2.6590  -45.4910   35.0680 C.2   253  VAL253      0.2287
     63  O          3.3280  -44.6370   34.4850 O.2   253  VAL253     -0.2864
     64  CB         4.0360  -47.0880   36.5570 C.3   253  VAL253      0.0276
     65  CG1        3.8750  -47.9300   37.8250 C.3   253  VAL253      0.0022
     66  CG2        3.9660  -47.9520   35.3110 C.3   253  VAL253      0.0022
     67  N          1.0610  -41.7810   34.2330 N.3   256  ARG256     -0.1231
     68  CA         2.0400  -40.7040   34.3490 C.3   256  ARG256      0.1694
     69  C          2.0700  -39.8280   33.0950 C.2   256  ARG256      0.2592
     70  O          2.2400  -40.3250   31.9780 O.2   256  ARG256     -0.2718
     71  CB         3.4240  -41.2960   34.6360 C.3   256  ARG256      0.0321
     72  CG         4.5340  -40.2820   34.8450 C.3   256  ARG256      0.0489
     73  CD         5.6360  -40.8500   35.7260 C.3   256  ARG256      0.2205
     74  NE         5.1910  -40.9690   37.1150 N.pl3 256  ARG256     -0.0865
     75  CZ         5.0580  -42.1150   37.7790 C.cat 256  ARG256      0.5346
     76  NH1        5.3520  -43.2790   37.2010 N.pl3 256  ARG256      0.1354
     77  NH2        4.6380  -42.0950   39.0370 N.pl3 256  ARG256      0.1354
     78  N          1.8730  -38.5280   33.2960 N.am  257  LEU257     -0.1966
     79  CA         1.9130  -37.5510   32.2130 C.3   257  LEU257      0.1728
     80  C          3.1320  -36.6480   32.3700 C.2   257  LEU257      0.2616
     81  O          3.9040  -36.7960   33.3210 O.2   257  LEU257     -0.2715
     82  CB         0.6280  -36.7090   32.1820 C.3   257  LEU257      0.0311
     83  CG        -0.7250  -37.4250   32.0860 C.3   257  LEU257      0.0022
     84  CD1       -1.8630  -36.4280   32.2170 C.3   257  LEU257      0.0001
     85  CD2       -0.8600  -38.2290   30.7950 C.3   257  LEU257      0.0001
     86  N          3.3120  -35.7310   31.4270 N.am  258  GLY258     -0.1955
     87  CA         4.4240  -34.7960   31.4750 C.3   258  GLY258      0.1869
     88  C          5.6910  -35.2940   30.8100 C.2   258  GLY258      0.2309
     89  O          6.0070  -36.4800   30.8560 O.2   258  GLY258     -0.2863
@<TRIPOS>BOND
     1     1     2    1
     2    85    83    1
     3    88    89    2
     4    88    87    1
     5    86    87    1
     6    86    80   am
     7     4     3    2
     8    70    69    2
     9     2     3    1
    10     2     5    1
    11    83    82    1
    12    83    84    1
    13    82    79    1
    14    79    80    1
    15    79    78    1
    16    80    81    2
    17     5     6    1
    18    69    78   am
    19    69    68    1
    20     6     7    1
    21    67    68    1
    22    18    16   ar
    23    18    20   ar
    24    68    71    1
    25     7     8    1
    26    63    62    2
    27    21    20    1
    28    71    72    1
    29    72    73    1
    30    16    15   ar
    31    62    61    1
    32    20    19   ar
    33    66    64    1
    34    73    74    1
    35     8     9    1
    36    10    11    1
    37    15    14    1
    38    15    17   ar
    39    19    17   ar
    40    61    64    1
    41    61    60    1
    42    64    65    1
    43    14    11    1
    44    74    75    2
    45    11    12    1
    46    76    75    1
    47    13    12    2
    48    60    53   am
    49    54    53    2
    50    75    77    1
    51    53    52    1
    52    12    22   am
    53    51    52    1
    54    49    50   ar
    55    49    47   ar
    56    50    48   ar
    57    52    55    1
    58    40    39    2
    59    47    44   ar
    60    22    23    1
    61    27    29    1
    62    27    26    1
    63    48    46   ar
    64    39    38    1
    65    23    26    1
    66    23    24    1
    67    44    46   ar
    68    44    42   ar
    69    46    45   ar
    70    55    56    1
    71    26    28    1
    72    38    37    1
    73    38    41    1
    74    56    57    1
    75    24    25    2
    76    42    41    1
    77    42    43   ar
    78    45    43   ar
    79    57    58    1
    80    58    59    1
    81    36    30    1
    82    36    35    1
    83    30    31    1
    84    35    34    1
    85    31    34    1
    86    31    32    1
    87    32    33    2
