@<TRIPOS>MOLECULE
tmp/3pmdA00.pdb
 165 157 0 0 0
SMALL
GASTEIGER

@<TRIPOS>ATOM
      1  N         -6.8590   44.2400   23.8790 N.3    22  PHE22      -0.1227
      2  CA        -7.6130   43.2570   23.1330 C.3    22  PHE22       0.1736
      3  C         -7.0420   41.8500   23.3170 C.2    22  PHE22       0.2595
      4  O         -7.7900   40.8980   23.5920 O.2    22  PHE22      -0.2718
      5  CB        -7.6410   43.6240   21.6580 C.3    22  PHE22       0.0547
      6  CG        -8.4290   42.6720   20.8410 C.ar   22  PHE22      -0.0202
      7  CD1       -9.7700   42.8930   20.6000 C.ar   22  PHE22      -0.0042
      8  CD2       -7.8430   41.5240   20.3660 C.ar   22  PHE22      -0.0042
      9  CE1      -10.5010   41.9930   19.8660 C.ar   22  PHE22      -0.0003
     10  CE2       -8.5670   40.6310   19.6370 C.ar   22  PHE22      -0.0003
     11  CZ        -9.8910   40.8600   19.3810 C.ar   22  PHE22      -0.0000
     12  N         -5.7240   41.7220   23.1830 N.am   23  ILE23      -0.1980
     13  CA        -5.0510   40.4220   23.3560 C.3    23  ILE23       0.1595
     14  C         -5.1380   39.9330   24.8050 C.2    23  ILE23       0.2287
     15  O         -5.3650   38.7440   25.0440 O.2    23  ILE23      -0.2864
     16  CB        -3.5850   40.4590   22.8840 C.3    23  ILE23       0.0276
     17  CG1       -3.5120   40.6820   21.3690 C.3    23  ILE23       0.0022
     18  CG2       -2.8550   39.1600   23.2490 C.3    23  ILE23       0.0022
     19  CD1       -4.2490   39.6180   20.5260 C.3    23  ILE23       0.0001
     20  N         -8.5790   38.5830   25.2580 N.3    26  TRP26      -0.1241
     21  CA        -8.6850   37.3170   24.5290 C.3    26  TRP26       0.1605
     22  C         -8.0120   36.2060   25.3250 C.2    26  TRP26       0.2264
     23  O         -8.5220   35.0880   25.3940 O.2    26  TRP26      -0.2867
     24  CB        -8.0600   37.4840   23.1450 C.3    26  TRP26       0.0550
     25  CG        -8.1050   36.2840   22.2610 C.ar   26  TRP26       0.0003
     26  CD1       -9.2120   35.6620   21.7620 C.ar   26  TRP26       0.0946
     27  CD2       -6.9820   35.5980   21.7310 C.ar   26  TRP26       0.0152
     28  NE1       -8.8450   34.6050   20.9730 N.ar   26  TRP26      -0.2442
     29  CE2       -7.4740   34.5470   20.9280 C.ar   26  TRP26       0.0810
     30  CE3       -5.5980   35.7660   21.8630 C.ar   26  TRP26       0.0012
     31  CZ2       -6.6410   33.6630   20.2650 C.ar   26  TRP26       0.0191
     32  CZ3       -4.7630   34.8740   21.1940 C.ar   26  TRP26       0.0001
     33  CH2       -5.2890   33.8400   20.4100 C.ar   26  TRP26       0.0015
     34  N          0.4350   30.3680   20.3970 N.3    42  ILE42      -0.1245
     35  CA        -0.9780   30.6940   20.2630 C.3    42  ILE42       0.1561
     36  C         -1.1630   32.2130   20.3970 C.2    42  ILE42       0.2260
     37  O         -1.8340   32.8520   19.5850 O.2    42  ILE42      -0.2867
     38  CB        -1.8170   29.9500   21.3260 C.3    42  ILE42       0.0252
     39  CG1       -1.6950   28.4300   21.1370 C.3    42  ILE42       0.0019
     40  CG2       -3.2650   30.3840   21.2630 C.3    42  ILE42       0.0019
     41  CD1       -2.5020   27.6210   22.1570 C.3    42  ILE42       0.0001
     42  N          0.6010   33.9150   17.3360 N.3    45  ASN45      -0.1225
     43  CA        -0.2100   33.7390   16.1420 C.3    45  ASN45       0.1785
     44  C         -1.4560   34.6110   16.1860 C.2    45  ASN45       0.2597
     45  O         -1.8460   35.1820   15.1630 O.2    45  ASN45      -0.2718
     46  CB        -0.6100   32.2710   15.9710 C.3    45  ASN45       0.1169
     47  CG         0.5450   31.3810   15.5240 C.2    45  ASN45       0.2627
     48  OD1        1.5530   31.8490   14.9840 O.2    45  ASN45      -0.2716
     49  ND2        0.3980   30.0830   15.7500 N.am   45  ASN45      -0.0877
     50  N         -2.0660   34.7330   17.3650 N.am   46  GLY46      -0.1957
     51  CA        -3.2740   35.5550   17.5220 C.3    46  GLY46       0.1869
     52  C         -2.9640   37.0310   17.3370 C.2    46  GLY46       0.2309
     53  O         -3.7400   37.7760   16.7060 O.2    46  GLY46      -0.2863
     54  N         -2.3880   37.4450   13.6650 N.3    49  LEU49      -0.1231
     55  CA        -3.6530   37.3770   12.9270 C.3    49  LEU49       0.1693
     56  C         -4.4980   38.6260   13.1130 C.2    49  LEU49       0.2591
     57  O         -5.2410   39.0060   12.1950 O.2    49  LEU49      -0.2718
     58  CB        -4.4390   36.1140   13.2610 C.3    49  LEU49       0.0284
     59  CG        -4.0000   34.9180   12.4220 C.3    49  LEU49       0.0019
     60  CD1       -4.3880   33.6190   13.1060 C.3    49  LEU49       0.0001
     61  CD2       -4.6010   35.0080   11.0240 C.3    49  LEU49       0.0001
     62  N         -4.3720   39.2940   14.2570 N.am   50  LEU50      -0.1980
     63  CA        -5.0720   40.5670   14.4460 C.3    50  LEU50       0.1596
     64  C         -4.5650   41.5820   13.4170 C.2    50  LEU50       0.2287
     65  O         -5.3550   42.3230   12.8290 O.2    50  LEU50      -0.2864
     66  CB        -4.9050   41.0870   15.8710 C.3    50  LEU50       0.0297
     67  CG        -5.7220   42.3080   16.2940 C.3    50  LEU50       0.0022
     68  CD1       -7.2210   42.0600   16.1920 C.3    50  LEU50       0.0001
     69  CD2       -5.3270   42.7050   17.7120 C.3    50  LEU50       0.0001
     70  N         -5.7970   40.5150    9.9260 N.3    53  PHE53      -0.1241
     71  CA        -7.2170   40.8680    9.8460 C.3    53  PHE53       0.1605
     72  C         -7.3850   42.3310    9.4430 C.2    53  PHE53       0.2264
     73  O         -8.1070   42.6410    8.4890 O.2    53  PHE53      -0.2867
     74  CB        -7.9120   40.6030   11.1780 C.3    53  PHE53       0.0534
     75  CG        -9.2700   41.2190   11.2650 C.ar   53  PHE53      -0.0203
     76  CD1       -9.4820   42.3780   11.9820 C.ar   53  PHE53      -0.0042
     77  CD2      -10.3270   40.6630   10.5760 C.ar   53  PHE53      -0.0042
     78  CE1      -10.7420   42.9580   12.0370 C.ar   53  PHE53      -0.0003
     79  CE2      -11.5900   41.2330   10.6260 C.ar   53  PHE53      -0.0003
     80  CZ       -11.7990   42.3720   11.3610 C.ar   53  PHE53      -0.0000
     81  N         -0.4540   27.0640   11.5250 N.3    73  ILE73      -0.1245
     82  CA        -1.2380   26.7790   12.7200 C.3    73  ILE73       0.1561
     83  C         -1.6390   25.3130   12.7610 C.2    73  ILE73       0.2260
     84  O         -1.4930   24.6700   13.7910 O.2    73  ILE73      -0.2867
     85  CB        -2.4890   27.6840   12.8030 C.3    73  ILE73       0.0252
     86  CG1       -2.0730   29.1330   13.0230 C.3    73  ILE73       0.0019
     87  CG2       -3.4190   27.2360   13.9070 C.3    73  ILE73       0.0019
     88  CD1       -3.2050   30.1110   12.7690 C.3    73  ILE73       0.0001
     89  N          1.2410   23.1350   13.8390 N.3    76  GLU76      -0.1231
     90  CA         1.5270   23.3140   15.2650 C.3    76  GLU76       0.1699
     91  C          0.4860   22.6210   16.1220 C.2    76  GLU76       0.2592
     92  O          0.8280   21.9960   17.1260 O.2    76  GLU76      -0.2718
     93  CB         1.6080   24.7990   15.6290 C.3    76  GLU76       0.0402
     94  CG         2.7870   25.5190   14.9820 C.3    76  GLU76       0.1161
     95  CD         2.8020   27.0260   15.1990 C.2    76  GLU76       0.3649
     96  OE1        1.7910   27.6070   15.6570 O.co2  76  GLU76      -0.2457
     97  OE2        3.8510   27.6370   14.8950 O.co2  76  GLU76      -0.2457
     98  N         -0.7840   22.7160   15.7240 N.am   77  ARG77      -0.1980
     99  CA        -1.8560   22.0560   16.4770 C.3    77  ARG77       0.1597
    100  C         -1.7080   20.5320   16.4050 C.2    77  ARG77       0.2287
    101  O         -1.9150   19.8440   17.3900 O.2    77  ARG77      -0.2864
    102  CB        -3.2400   22.5000   15.9740 C.3    77  ARG77       0.0334
    103  CG        -3.5180   24.0130   16.1180 C.3    77  ARG77       0.0492
    104  CD        -3.5330   24.4910   17.5700 C.3    77  ARG77       0.2205
    105  NE        -2.2020   24.8780   18.0460 N.pl3  77  ARG77      -0.0865
    106  CZ        -1.7450   24.7240   19.2960 C.cat  77  ARG77       0.5346
    107  NH1       -2.4800   24.1600   20.2610 N.pl3  77  ARG77       0.1354
    108  NH2       -0.5190   25.1260   19.5910 N.pl3  77  ARG77       0.1354
    109  N         -8.8330   25.1960   18.5710 N.3    87  PHE87      -0.1241
    110  CA        -8.5190   26.2630   17.6330 C.3    87  PHE87       0.1605
    111  C         -9.7800   27.0060   17.1740 C.2    87  PHE87       0.2264
    112  O         -9.7880   28.2340   17.0830 O.2    87  PHE87      -0.2867
    113  CB        -7.7080   25.7380   16.4340 C.3    87  PHE87       0.0534
    114  CG        -7.8440   26.5890   15.2150 C.ar   87  PHE87      -0.0203
    115  CD1       -7.1430   27.7620   15.0950 C.ar   87  PHE87      -0.0042
    116  CD2       -8.7400   26.2320   14.2200 C.ar   87  PHE87      -0.0042
    117  CE1       -7.3070   28.5700   13.9660 C.ar   87  PHE87      -0.0003
    118  CE2       -8.9070   27.0220   13.1160 C.ar   87  PHE87      -0.0003
    119  CZ        -8.2060   28.1950   12.9960 C.ar   87  PHE87      -0.0000
    120  N        -11.0740   29.0730   20.1180 N.3    90  ASN90      -0.1225
    121  CA       -10.2420   30.2460   20.3850 C.3    90  ASN90       0.1785
    122  C        -10.4000   31.3100   19.3000 C.2    90  ASN90       0.2597
    123  O        -10.4230   32.5040   19.5970 O.2    90  ASN90      -0.2718
    124  CB        -8.7820   29.8130   20.5410 C.3    90  ASN90       0.1169
    125  CG        -8.5600   28.9790   21.7860 C.2    90  ASN90       0.2627
    126  OD1       -9.3770   29.0040   22.7390 O.2    90  ASN90      -0.2716
    127  ND2       -7.4380   28.2690   21.8220 N.am   90  ASN90      -0.0877
    128  N        -10.5130   30.8650   18.0510 N.am   91  THR91      -0.1953
    129  CA       -10.7290   31.7760   16.9310 C.3    91  THR91       0.1897
    130  C        -12.0590   32.4810   17.1140 C.2    91  THR91       0.2313
    131  O        -12.1590   33.7040   16.9530 O.2    91  THR91      -0.2863
    132  CB       -10.6620   31.0310   15.6140 C.3    91  THR91       0.1794
    133  OG1       -9.3430   30.5060   15.4600 O.3    91  THR91      -0.2208
    134  CG2      -11.0120   31.9510   14.4000 C.3    91  THR91       0.0378
    135  N        -11.9980   35.2320   19.6030 N.3    94  GLY94      -0.1225
    136  CA       -11.3980   36.4170   18.9880 C.3    94  GLY94       0.1811
    137  C        -12.3860   37.1730   18.1160 C.2    94  GLY94       0.2280
    138  O        -12.5130   38.3950   18.2310 O.2    94  GLY94      -0.2866
    139  N        -13.9670   41.0400   18.3150 N.3    98  ILE98      -0.1245
    140  CA       -13.9080   42.0010   17.1950 C.3    98  ILE98       0.1561
    141  C        -15.3080   42.5330   16.9400 C.2    98  ILE98       0.2260
    142  O        -15.5120   43.7460   16.8080 O.2    98  ILE98      -0.2867
    143  CB       -13.2590   41.3780   15.9550 C.3    98  ILE98       0.0252
    144  CG1      -11.7520   41.2640   16.2090 C.3    98  ILE98       0.0019
    145  CG2      -13.5780   42.2070   14.6850 C.3    98  ILE98       0.0019
    146  CD1      -11.0210   40.3670   15.2830 C.3    98  ILE98       0.0001
    147  N        -12.8910   35.2820    8.8460 N.3   123  PHE123     -0.1241
    148  CA       -12.8460   34.2190    9.8560 C.3   123  PHE123      0.1605
    149  C        -13.3530   32.8780    9.3240 C.2   123  PHE123      0.2264
    150  O        -12.8150   31.8310    9.7160 O.2   123  PHE123     -0.2867
    151  CB       -13.5670   34.6400   11.1300 C.3   123  PHE123      0.0534
    152  CG       -12.7790   35.6010   11.9450 C.ar  123  PHE123     -0.0203
    153  CD1      -11.7600   35.1350   12.7700 C.ar  123  PHE123     -0.0042
    154  CD2      -12.9850   36.9760   11.8440 C.ar  123  PHE123     -0.0042
    155  CE1      -10.9970   36.0110   13.5100 C.ar  123  PHE123     -0.0003
    156  CE2      -12.2140   37.8570   12.5810 C.ar  123  PHE123     -0.0003
    157  CZ       -11.2160   37.3770   13.4080 C.ar  123  PHE123     -0.0000
    158  N        -10.3190   31.6040    7.4980 N.3   126  LEU126     -0.1245
    159  CA        -9.2830   31.2000    8.4250 C.3   126  LEU126      0.1561
    160  C         -9.5880   29.8200    8.9780 C.2   126  LEU126      0.2260
    161  O         -8.7320   28.9480    9.0040 O.2   126  LEU126     -0.2867
    162  CB        -9.1640   32.1930    9.5730 C.3   126  LEU126      0.0270
    163  CG        -8.1530   31.8180   10.6420 C.3   126  LEU126      0.0019
    164  CD1       -6.7360   31.6920   10.1000 C.3   126  LEU126      0.0001
    165  CD2       -8.1870   32.8400   11.7840 C.3   126  LEU126      0.0001
@<TRIPOS>BOND
     1   158   159    1
     2   159   160    1
     3   159   162    1
     4    73    72    2
     5   147   148    1
     6   160   161    2
     7   149   150    2
     8   149   148    1
     9    72    71    1
    10   162   163    1
    11    71    70    1
    12    71    74    1
    13   148   151    1
    14   164   163    1
    15    77    79   ar
    16    77    75   ar
    17    79    80   ar
    18   163   165    1
    19    61    59    1
    20   151   152    1
    21    74    75    1
    22    75    76   ar
    23    80    78   ar
    24    81    82    1
    25   154   152   ar
    26   154   156   ar
    27   152   153   ar
    28    76    78   ar
    29    57    56    2
    30    59    60    1
    31    59    58    1
    32   156   157   ar
    33    82    83    1
    34    82    85    1
    35    83    84    2
    36    88    86    1
    37   153   155   ar
    38    85    86    1
    39    85    87    1
    40    65    64    2
    41    55    56    1
    42    55    58    1
    43    55    54    1
    44   119   118   ar
    45   119   117   ar
    46    56    62   am
    47   118   116   ar
    48   157   155   ar
    49    64    63    1
    50    89    90    1
    51   117   115   ar
    52   116   114   ar
    53    62    63    1
    54   134   132    1
    55    63    66    1
    56   145   143    1
    57    97    95   ar
    58    94    95    1
    59    94    93    1
    60    48    47    2
    61   115   114   ar
    62    45    44    2
    63    95    96   ar
    64   114   113    1
    65    90    93    1
    66    90    91    1
    67   146   144    1
    68   133   132    1
    69    47    49   am
    70    47    46    1
    71   132   129    1
    72    98    91   am
    73    98    99    1
    74    66    67    1
    75   143   144    1
    76   143   140    1
    77    46    43    1
    78   102   103    1
    79   102    99    1
    80   103   104    1
    81    91    92    2
    82    43    44    1
    83    43    42    1
    84    44    50   am
    85    68    67    1
    86    67    69    1
    87   100    99    1
    88   100   101    2
    89   113   110    1
    90    53    52    2
    91   142   141    2
    92   129   130    1
    93   129   128    1
    94   141   140    1
    95   131   130    2
    96   112   111    2
    97   111   110    1
    98   140   139    1
    99    52    51    1
   100    50    51    1
   101   104   105    1
   102   110   109    1
   103   105   106    2
   104   128   122   am
   105   137   138    2
   106   137   136    1
   107   136   135    1
   108   106   108    1
   109   106   107    1
   110   122   123    2
   111   122   121    1
   112    11    10   ar
   113    11     9   ar
   114    37    36    2
   115    10     8   ar
   116     9     7   ar
   117   120   121    1
   118    35    34    1
   119    35    36    1
   120    35    38    1
   121    31    33   ar
   122    31    29   ar
   123     8     6   ar
   124   121   124    1
   125    33    32   ar
   126    19    17    1
   127   124   125    1
   128     7     6   ar
   129     6     5    1
   130    29    28   ar
   131    29    27   ar
   132    28    26   ar
   133    39    38    1
   134    39    41    1
   135    32    30   ar
   136    40    38    1
   137    17    16    1
   138     5     2    1
   139    27    30   ar
   140    27    25   ar
   141    26    25   ar
   142   125   127   am
   143   125   126    2
   144    25    24    1
   145    16    18    1
   146    16    13    1
   147     2     3    1
   148     2     1    1
   149    24    21    1
   150    12     3   am
   151    12    13    1
   152     3     4    2
   153    13    14    1
   154    21    20    1
   155    21    22    1
   156    14    15    2
   157    22    23    2
