@<TRIPOS>MOLECULE
tmp/3pmlB02.pdb
 133 125 0 0 0
SMALL
GASTEIGER

@<TRIPOS>ATOM
      1  N         81.8850   38.7700    5.8840 N.3   140  ARG140     -0.1245
      2  CA        81.4750   38.9220    7.2680 C.3   140  ARG140      0.1563
      3  C         81.8640   40.3350    7.7180 C.2   140  ARG140      0.2260
      4  O         82.8340   40.9120    7.2250 O.2   140  ARG140     -0.2867
      5  CB        82.1430   37.8500    8.1350 C.3   140  ARG140      0.0307
      6  CG        81.7950   36.4140    7.7160 C.3   140  ARG140      0.0489
      7  CD        82.5010   35.3780    8.5950 C.3   140  ARG140      0.2205
      8  NE        82.1170   35.5010   10.0030 N.pl3 140  ARG140     -0.0865
      9  CZ        80.9650   35.0720   10.5110 C.cat 140  ARG140      0.5346
     10  NH1       80.0700   34.4730    9.7310 N.pl3 140  ARG140      0.1354
     11  NH2       80.6940   35.2690   11.7930 N.pl3 140  ARG140      0.1354
     12  N         72.9070   35.8350   17.5780 N.3   170  GLY170     -0.1210
     13  CA        73.7180   35.1140   16.6220 C.3   170  GLY170      0.1956
     14  C         75.1690   35.0820   17.0410 C.2   170  GLY170      0.2612
     15  O         75.4810   35.1570   18.2270 O.2   170  GLY170     -0.2717
     16  N         76.0600   34.9670   16.0660 N.am  171  SER171     -0.1952
     17  CA        77.4860   34.9420   16.3510 C.3   171  SER171      0.1924
     18  C         77.9260   36.2350   17.0650 C.2   171  SER171      0.2314
     19  O         78.9560   36.2570   17.7480 O.2   171  SER171     -0.2863
     20  CB        78.2700   34.7550   15.0500 C.3   171  SER171      0.2116
     21  OG        77.8600   35.7010   14.0720 O.3   171  SER171     -0.2180
     22  N         77.6280   35.7660   20.4960 N.3   174  ARG174     -0.1245
     23  CA        78.5360   34.6900   20.8550 C.3   174  ARG174      0.1563
     24  C         79.9680   35.2120   20.8620 C.2   174  ARG174      0.2260
     25  O         80.9340   34.4420   20.8940 O.2   174  ARG174     -0.2867
     26  CB        78.3690   33.4920   19.9170 C.3   174  ARG174      0.0307
     27  CG        76.9820   32.8770   19.9920 C.3   174  ARG174      0.0489
     28  CD        76.9850   31.3680   19.8520 C.3   174  ARG174      0.2205
     29  NE        77.6590   30.9170   18.6430 N.pl3 174  ARG174     -0.0865
     30  CZ        77.2130   31.1120   17.4060 C.cat 174  ARG174      0.5346
     31  NH1       76.0670   31.7530   17.1920 N.pl3 174  ARG174      0.1354
     32  NH2       77.9300   30.6730   16.3780 N.pl3 174  ARG174      0.1354
     33  N         78.4700   36.9460    9.7250 N.3   180  GLY180     -0.1210
     34  CA        77.9200   36.7740    8.3930 C.3   180  GLY180      0.1956
     35  C         76.6520   37.5960    8.2540 C.2   180  GLY180      0.2611
     36  O         76.2970   38.0320    7.1560 O.2   180  GLY180     -0.2717
     37  N         75.9740   37.8120    9.3770 N.am  181  ASP181     -0.1973
     38  CA        74.7400   38.5840    9.4070 C.3   181  ASP181      0.1709
     39  C         74.4740   39.0880   10.8180 C.2   181  ASP181      0.2293
     40  O         75.1800   38.7330   11.7600 O.2   181  ASP181     -0.2864
     41  CB        73.5550   37.7290    8.9570 C.3   181  ASP181      0.1436
     42  CG        73.3010   36.5440    9.8800 C.2   181  ASP181      0.3671
     43  OD1       73.9460   35.4770    9.7050 O.co2 181  ASP181     -0.2456
     44  OD2       72.4540   36.6890   10.7880 O.co2 181  ASP181     -0.2456
     45  N         71.5070   39.4000   13.7330 N.3   183  ASP183     -0.1239
     46  CA        70.2030   38.9220   14.1550 C.3   183  ASP183      0.1674
     47  C         69.8020   39.6900   15.3970 C.2   183  ASP183      0.2266
     48  O         70.4100   39.5360   16.4570 O.2   183  ASP183     -0.2867
     49  CB        70.2810   37.4280   14.4380 C.3   183  ASP183      0.1410
     50  CG        70.9760   36.6700   13.3240 C.2   183  ASP183      0.3668
     51  OD1       72.1540   36.2890   13.5170 O.co2 183  ASP183     -0.2456
     52  OD2       70.3510   36.4710   12.2530 O.co2 183  ASP183     -0.2456
     53  N         68.3850   40.3920   10.1390 N.3   239  ASP239     -0.1239
     54  CA        67.2060   39.6590   10.6130 C.3   239  ASP239      0.1674
     55  C         66.6660   40.3090   11.8770 C.2   239  ASP239      0.2266
     56  O         67.4290   40.6880   12.7720 O.2   239  ASP239     -0.2867
     57  CB        67.5350   38.1980   10.9480 C.3   239  ASP239      0.1410
     58  CG        67.8790   37.3740    9.7260 C.2   239  ASP239      0.3668
     59  OD1       67.0650   37.3630    8.7810 O.co2 239  ASP239     -0.2456
     60  OD2       68.9570   36.7330    9.7150 O.co2 239  ASP239     -0.2456
     61  N         67.7310   30.5980   21.6240 N.3   254  TYR254     -0.1227
     62  CA        67.5800   30.0930   20.2770 C.3   254  TYR254      0.1736
     63  C         68.2980   30.9340   19.2310 C.2   254  TYR254      0.2595
     64  O         69.0560   30.4070   18.4270 O.2   254  TYR254     -0.2718
     65  CB        66.0920   30.0250   19.9120 C.3   254  TYR254      0.0548
     66  CG        65.8390   29.9570   18.4210 C.ar  254  TYR254     -0.0200
     67  CD1       66.1500   28.8100   17.6910 C.ar  254  TYR254     -0.0009
     68  CD2       65.3320   31.0540   17.7340 C.ar  254  TYR254     -0.0009
     69  CE1       65.9630   28.7610   16.3190 C.ar  254  TYR254      0.0417
     70  CE2       65.1440   31.0200   16.3570 C.ar  254  TYR254      0.0417
     71  CZ        65.4590   29.8690   15.6590 C.ar  254  TYR254      0.1957
     72  OH        65.2540   29.8160   14.3010 O.3   254  TYR254     -0.2866
     73  N         68.0690   32.2410   19.2430 N.am  255  PHE255     -0.1962
     74  CA        68.6990   33.0770   18.2430 C.3   255  PHE255      0.1771
     75  C         70.1770   33.2620   18.4200 C.2   255  PHE255      0.2620
     76  O         70.8680   33.7220   17.5130 O.2   255  PHE255     -0.2715
     77  CB        68.0070   34.4240   18.1690 C.3   255  PHE255      0.0574
     78  CG        66.6840   34.3550   17.5020 C.ar  255  PHE255     -0.0200
     79  CD1       65.5270   34.1560   18.2370 C.ar  255  PHE255     -0.0042
     80  CD2       66.6000   34.3920   16.1230 C.ar  255  PHE255     -0.0042
     81  CE1       64.3100   33.9940   17.6040 C.ar  255  PHE255     -0.0003
     82  CE2       65.3820   34.2290   15.4740 C.ar  255  PHE255     -0.0003
     83  CZ        64.2420   34.0290   16.2040 C.ar  255  PHE255     -0.0000
     84  N         70.6760   32.8880   19.5890 N.am  256  THR256     -0.1937
     85  CA        72.1000   33.0190   19.8480 C.3   256  THR256      0.2028
     86  C         72.7950   31.7680   19.3160 C.2   256  THR256      0.2643
     87  O         73.9730   31.8030   18.9490 O.2   256  THR256     -0.2714
     88  CB        72.3780   33.1810   21.3380 C.3   256  THR256      0.1808
     89  OG1       71.8720   34.4470   21.7770 O.3   256  THR256     -0.2208
     90  CG2       73.8740   33.1140   21.6040 C.3   256  THR256      0.0379
     91  N         72.0470   30.6670   19.2420 N.am  257  GLY257     -0.1939
     92  CA        72.6150   29.4350   18.7290 C.3   257  GLY257      0.2014
     93  C         73.8720   28.9730   19.4570 C.2   257  GLY257      0.2640
     94  O         74.0200   29.1880   20.6670 O.2   257  GLY257     -0.2714
     95  N         74.7940   28.3460   18.7320 N.am  258  SER258     -0.1935
     96  CA        74.6610   28.1030   17.3000 C.3   258  SER258      0.2055
     97  C         73.5360   27.1350   16.9520 C.2   258  SER258      0.2642
     98  O         72.9160   26.5330   17.8320 O.2   258  SER258     -0.2714
     99  CB        75.9670   27.5220   16.7500 C.3   258  SER258      0.2130
    100  OG        76.0850   26.1400   17.0680 O.3   258  SER258     -0.2179
    101  N         73.3000   26.9830   15.6530 N.am  259  ALA259     -0.1977
    102  CA        72.2840   26.0740   15.1560 C.3   259  ALA259      0.1597
    103  C         72.6110   24.6590   15.6330 C.2   259  ALA259      0.2287
    104  O         71.7190   23.9180   16.0410 O.2   259  ALA259     -0.2864
    105  CB        72.2320   26.1230   13.6360 C.3   259  ALA259      0.0319
    106  N         71.7310   24.4230   19.2720 N.3   262  ASN262     -0.1240
    107  CA        70.2990   24.2980   19.5240 C.3   262  ASN262      0.1653
    108  C         69.8010   22.8780   19.3080 C.2   262  ASN262      0.2266
    109  O         68.9880   22.3700   20.0800 O.2   262  ASN262     -0.2867
    110  CB        69.5090   25.2400   18.6240 C.3   262  ASN262      0.1155
    111  CG        69.8500   26.6890   18.8600 C.2   262  ASN262      0.2627
    112  OD1       70.3750   27.0580   19.9140 O.2   262  ASN262     -0.2716
    113  ND2       69.5380   27.5270   17.8890 N.am  262  ASN262     -0.0877
    114  N         67.8310   20.6480   22.1020 N.3   266  ARG266     -0.1245
    115  CA        66.5320   20.0740   21.8220 C.3   266  ARG266      0.1563
    116  C         66.6120   18.5800   22.0010 C.2   266  ARG266      0.2260
    117  O         65.7050   17.9400   22.5190 O.2   266  ARG266     -0.2867
    118  CB        66.1300   20.3920   20.3810 C.3   266  ARG266      0.0307
    119  CG        65.6230   21.8160   20.1630 C.3   266  ARG266      0.0489
    120  CD        66.1180   22.3650   18.8390 C.3   266  ARG266      0.2205
    121  NE        66.0720   21.3580   17.7840 N.pl3 266  ARG266     -0.0865
    122  CZ        66.7820   21.4180   16.6590 C.cat 266  ARG266      0.5346
    123  NH1       67.5950   22.4400   16.4370 N.pl3 266  ARG266      0.1354
    124  NH2       66.6910   20.4490   15.7610 N.pl3 266  ARG266      0.1354
    125  N         62.0160   28.1630   20.1470 N.3   278  GLU278     -0.1245
    126  CA        62.2890   29.5810   20.3280 C.3   278  GLU278      0.1567
    127  C         61.2250   30.2370   21.1900 C.2   278  GLU278      0.2260
    128  O         61.3880   31.3820   21.6110 O.2   278  GLU278     -0.2867
    129  CB        62.3980   30.3240   18.9840 C.3   278  GLU278      0.0388
    130  CG        61.3090   30.0610   17.9750 C.3   278  GLU278      0.1160
    131  CD        61.7980   29.1670   16.8490 C.2   278  GLU278      0.3649
    132  OE1       62.1010   27.9750   17.1160 O.co2 278  GLU278     -0.2457
    133  OE2       61.8870   29.6630   15.7020 O.co2 278  GLU278     -0.2457
@<TRIPOS>BOND
     1     1     2    1
     2    36    35    2
     3     4     3    2
     4     2     3    1
     5     2     5    1
     6     6     5    1
     7     6     7    1
     8    35    34    1
     9    35    37   am
    10    34    33    1
    11     7     8    1
    12    59    58   ar
    13    41    38    1
    14    41    42    1
    15    37    38    1
    16    38    39    1
    17    43    42   ar
    18    60    58   ar
    19    58    57    1
    20    10     9    1
    21    42    44   ar
    22     8     9    2
    23    53    54    1
    24     9    11    1
    25    54    57    1
    26    54    55    1
    27    39    40    2
    28    55    56    2
    29    52    50   ar
    30    50    51   ar
    31    50    49    1
    32   105   102    1
    33    45    46    1
    34    21    20    1
    35    46    49    1
    36    46    47    1
    37    72    71    1
    38    20    17    1
    39   102   103    1
    40   102   101    1
    41    47    48    2
    42    82    80   ar
    43    82    83   ar
    44   103   104    2
    45   101    97   am
    46    71    69   ar
    47    71    70   ar
    48   133   131   ar
    49   124   122    1
    50    16    17    1
    51    16    14   am
    52    80    78   ar
    53    83    81   ar
    54    69    67   ar
    55    17    18    1
    56    70    68   ar
    57    32    30    1
    58   123   122    1
    59    13    14    1
    60    13    12    1
    61   122   121    2
    62    99   100    1
    63    99    96    1
    64   131   132   ar
    65   131   130    1
    66    97    96    1
    67    97    98    2
    68    14    15    2
    69    18    19    2
    70    31    30    1
    71    96    95    1
    72    30    29    2
    73    78    77    1
    74    78    79   ar
    75    76    75    2
    76    81    79   ar
    77    67    66   ar
    78    68    66   ar
    79   121   120    1
    80   113   111   am
    81   130   129    1
    82    77    74    1
    83    74    75    1
    84    74    73    1
    85    75    84   am
    86    66    65    1
    87    64    63    2
    88   110   111    1
    89   110   107    1
    90    29    28    1
    91    92    91    1
    92    92    93    1
    93    95    93   am
    94   120   119    1
    95   111   112    2
    96    87    86    2
    97   129   126    1
    98    63    73   am
    99    63    62    1
   100    91    86   am
   101   106   107    1
   102   108   107    1
   103   108   109    2
   104    86    85    1
   105    93    94    2
   106    84    85    1
   107    85    88    1
   108    28    27    1
   109    65    62    1
   110    26    27    1
   111    26    23    1
   112   125   126    1
   113   119   118    1
   114    62    61    1
   115   126   127    1
   116   118   115    1
   117    22    23    1
   118    23    24    1
   119    24    25    2
   120   127   128    2
   121    88    90    1
   122    88    89    1
   123   115   116    1
   124   115   114    1
   125   116   117    2
