@<TRIPOS>MOLECULE
tmp/3pmpB00.pdb
 183 177 0 0 0
SMALL
GASTEIGER

@<TRIPOS>ATOM
      1  N         19.8410    3.9290  -17.2360 N.3    53  HIS53      -0.1226
      2  CA        19.3910    2.9500  -18.2460 C.3    53  HIS53       0.1752
      3  C         19.8160    1.5100  -17.9510 C.2    53  HIS53       0.2595
      4  O         19.3040    0.5890  -18.5800 O.2    53  HIS53      -0.2718
      5  CB        19.8670    3.3300  -19.6540 C.3    53  HIS53       0.0759
      6  CG        21.3470    3.2340  -19.8100 C.ar   53  HIS53       0.0818
      7  ND1       22.2020    4.2380  -19.4130 N.ar   53  HIS53      -0.2268
      8  CD2       22.1290    2.2240  -20.2700 C.ar   53  HIS53       0.1154
      9  CE1       23.4490    3.8640  -19.6610 C.ar   53  HIS53       0.1986
     10  NE2       23.4290    2.6340  -20.1500 N.ar   53  HIS53      -0.2212
     11  N         20.7420    1.2910  -17.0310 N.am   54  ARG54      -0.1980
     12  CA        21.2380   -0.0580  -16.7530 C.3    54  ARG54       0.1597
     13  C         21.5310   -0.1510  -15.2700 C.2    54  ARG54       0.2287
     14  O         22.4510    0.5320  -14.7870 O.2    54  ARG54      -0.2864
     15  CB        22.5190   -0.2750  -17.5380 C.3    54  ARG54       0.0334
     16  CG        23.2040   -1.6130  -17.3330 C.3    54  ARG54       0.0492
     17  CD        24.3210   -1.8260  -18.3990 C.3    54  ARG54       0.2205
     18  NE        25.0800   -3.0760  -18.2300 N.pl3  54  ARG54      -0.0865
     19  CZ        26.2290   -3.1610  -17.5500 C.cat  54  ARG54       0.5346
     20  NH1       26.7810   -2.0650  -16.9770 N.pl3  54  ARG54       0.1354
     21  NH2       26.8770   -4.3240  -17.4650 N.pl3  54  ARG54       0.1354
     22  N         21.9910   -2.9020  -12.0910 N.3    56  ILE56      -0.1245
     23  CA        22.2540   -4.2990  -11.7870 C.3    56  ILE56       0.1561
     24  C         22.3800   -4.4930  -10.2830 C.2    56  ILE56       0.2260
     25  O         23.3380   -3.9970   -9.6760 O.2    56  ILE56      -0.2867
     26  CB        23.4700   -4.8000  -12.5460 C.3    56  ILE56       0.0252
     27  CG1       23.2180   -4.7100  -14.0820 C.3    56  ILE56       0.0019
     28  CG2       23.7920   -6.2240  -12.0890 C.3    56  ILE56       0.0019
     29  CD1       24.5100   -5.0410  -14.8930 C.3    56  ILE56       0.0001
     30  N         23.2260   -5.6120   -6.6300 N.3    58  GLN58      -0.1231
     31  CA        24.4890   -6.1120   -6.0610 C.3    58  GLN58       0.1698
     32  C         25.7170   -5.7150   -6.9040 C.2    58  GLN58       0.2592
     33  O         26.7650   -6.3280   -6.8100 O.2    58  GLN58      -0.2718
     34  CB        24.4460   -7.6370   -5.7490 C.3    58  GLN58       0.0381
     35  CG        23.5220   -7.9790   -4.5520 C.3    58  GLN58       0.0905
     36  CD        22.0370   -7.6610   -4.7960 C.2    58  GLN58       0.2608
     37  OE1       21.3830   -8.3110   -5.6240 O.2    58  GLN58      -0.2717
     38  NE2       21.4870   -6.6830   -4.0380 N.am   58  GLN58      -0.0878
     39  N         25.5640   -4.7000   -7.7720 N.am   59  PHE59      -0.1962
     40  CA        26.6880   -4.2380   -8.5800 C.3    59  PHE59       0.1771
     41  C         26.6610   -2.6930   -8.6460 C.2    59  PHE59       0.2619
     42  O         27.4460   -2.0440   -7.9520 O.2    59  PHE59      -0.2715
     43  CB        26.6450   -4.9370   -9.9550 C.3    59  PHE59       0.0574
     44  CG        27.7440   -4.5120  -10.9410 C.ar   59  PHE59      -0.0200
     45  CD1       27.5190   -4.5890  -12.3170 C.ar   59  PHE59      -0.0042
     46  CD2       28.9330   -3.9450  -10.4840 C.ar   59  PHE59      -0.0042
     47  CE1       28.4930   -4.1790  -13.2390 C.ar   59  PHE59      -0.0003
     48  CE2       29.9160   -3.5410  -11.3990 C.ar   59  PHE59      -0.0003
     49  CZ        29.6740   -3.6350  -12.7860 C.ar   59  PHE59      -0.0000
     50  N         25.8200   -2.1070   -9.4910 N.am   60  MET60      -0.1977
     51  CA        25.8760   -0.6780   -9.7070 C.3    60  MET60       0.1605
     52  C         24.6360   -0.1520  -10.4390 C.2    60  MET60       0.2287
     53  O         23.8690   -0.9070  -11.0000 O.2    60  MET60      -0.2864
     54  CB        27.1580   -0.2850  -10.4590 C.3    60  MET60       0.0413
     55  CG        27.3500   -0.9280  -11.8580 C.3    60  MET60       0.0598
     56  SD        26.4340   -0.0560  -13.1260 S.3    60  MET60      -0.1393
     57  CE        25.4830   -1.4260  -13.7900 C.3    60  MET60       0.0692
     58  N         23.9700    2.5300  -13.5460 N.3    62  GLN62      -0.1245
     59  CA        24.6370    3.2600  -14.6330 C.3    62  GLN62       0.1566
     60  C         23.6850    4.2670  -15.2790 C.2    62  GLN62       0.2260
     61  O         22.5580    3.9300  -15.6700 O.2    62  GLN62      -0.2867
     62  CB        25.1540    2.2630  -15.6650 C.3    62  GLN62       0.0367
     63  CG        25.8740    2.9390  -16.8640 C.3    62  GLN62       0.0905
     64  CD        26.4800    1.9270  -17.8370 C.2    62  GLN62       0.2608
     65  OE1       26.4300    0.7070  -17.6280 O.2    62  GLN62      -0.2717
     66  NE2       27.0470    2.4340  -18.9460 N.am   62  GLN62      -0.0878
     67  N         20.6090    4.9900  -23.6260 N.3    70  ASN70      -0.1225
     68  CA        20.6880    3.5270  -23.6970 C.3    70  ASN70       0.1785
     69  C         22.1150    2.9660  -23.6150 C.2    70  ASN70       0.2598
     70  O         22.2930    1.7650  -23.7680 O.2    70  ASN70      -0.2718
     71  CB        19.9750    3.0000  -24.9480 C.3    70  ASN70       0.1169
     72  CG        20.6580    3.4250  -26.2340 C.2    70  ASN70       0.2627
     73  OD1       21.7100    4.0720  -26.2240 O.2    70  ASN70      -0.2716
     74  ND2       20.0310    3.0750  -27.3750 N.am   70  ASN70      -0.0877
     75  N         23.1150    3.8140  -23.3230 N.am   71  GLY71      -0.1942
     76  CA        24.4890    3.3090  -23.2370 C.3    71  GLY71       0.2014
     77  C         25.3270    3.6440  -24.4680 C.2    71  GLY71       0.2640
     78  O         26.5390    3.5020  -24.4530 O.2    71  GLY71      -0.2714
     79  N         24.6860    4.0950  -25.5340 N.am   72  THR72      -0.1936
     80  CA        25.4410    4.3700  -26.7760 C.3    72  THR72       0.2028
     81  C         25.8730    5.8220  -26.9350 C.2    72  THR72       0.2642
     82  O         26.5250    6.1600  -27.9580 O.2    72  THR72      -0.2714
     83  CB        24.6640    3.9730  -28.0510 C.3    72  THR72       0.1808
     84  OG1       23.4760    4.7770  -28.1730 O.3    72  THR72      -0.2208
     85  CG2       24.2340    2.5040  -27.9900 C.3    72  THR72       0.0379
     86  N         25.5110    6.6720  -25.9680 N.am   73  GLY73      -0.1954
     87  CA        25.7810    8.0820  -26.1160 C.3    73  GLY73       0.1869
     88  C         26.4150    8.7950  -24.9340 C.2    73  GLY73       0.2309
     89  O         27.1590    8.2250  -24.1310 O.2    73  GLY73      -0.2863
     90  N         31.9430    5.3020  -16.5550 N.3   100  ALA100     -0.1231
     91  CA        31.8140    4.2380  -17.5370 C.3   100  ALA100      0.1694
     92  C         32.6840    4.5800  -18.7640 C.2   100  ALA100      0.2592
     93  O         32.9800    5.7430  -18.9950 O.2   100  ALA100     -0.2718
     94  CB        30.3350    4.0590  -17.9400 C.3   100  ALA100      0.0304
     95  N         33.1200    3.5910  -19.5340 N.am  101  ASN101     -0.1960
     96  CA        33.8680    3.9350  -20.7410 C.3   101  ASN101      0.1819
     97  C         33.7520    2.8370  -21.7790 C.2   101  ASN101      0.2621
     98  O         33.0790    1.8160  -21.5120 O.2   101  ASN101     -0.2715
     99  CB        35.3240    4.2750  -20.3970 C.3   101  ASN101      0.1195
    100  CG        36.0830    3.0970  -19.8250 C.2   101  ASN101      0.2630
    101  OD1       36.0550    1.9990  -20.4040 O.2   101  ASN101     -0.2716
    102  ND2       36.7930    3.3130  -18.6840 N.am  101  ASN101     -0.0877
    103  N         34.3130    3.0600  -22.9730 N.am  102  ALA102     -0.1963
    104  CA        34.3530    2.0020  -23.9880 C.3   102  ALA102      0.1728
    105  C         35.8120    1.7130  -24.3440 C.2   102  ALA102      0.2616
    106  O         36.1720    1.7170  -25.5420 O.2   102  ALA102     -0.2715
    107  CB        33.5670    2.3950  -25.1870 C.3   102  ALA102      0.0334
    108  N         36.6360    1.5130  -23.3200 N.am  103  GLY103     -0.1955
    109  CA        38.0710    1.3230  -23.4820 C.3   103  GLY103      0.1869
    110  C         38.8560    2.5500  -23.0790 C.2   103  GLY103      0.2309
    111  O         38.2960    3.5330  -22.5900 O.2   103  GLY103     -0.2863
    112  N         38.1150    7.0140  -23.2180 N.3   106  THR106     -0.1218
    113  CA        36.8450    7.2130  -23.9010 C.3   106  THR106      0.1862
    114  C         35.7920    7.7190  -22.9050 C.2   106  THR106      0.2287
    115  O         34.6050    7.4490  -23.0650 O.2   106  THR106     -0.2866
    116  CB        36.3380    5.9410  -24.5970 C.3   106  THR106      0.1770
    117  OG1       36.2510    4.8780  -23.6160 O.3   106  THR106     -0.2211
    118  CG2       37.2910    5.5170  -25.7400 C.3   106  THR106      0.0375
    119  N         33.0860   10.0790  -21.3720 N.3   108  GLY108     -0.1225
    120  CA        32.1920   11.0840  -21.9400 C.3   108  GLY108      0.1811
    121  C         31.3640   11.6800  -20.8100 C.2   108  GLY108      0.2280
    122  O         31.8580   12.5020  -20.0080 O.2   108  GLY108     -0.2866
    123  N         28.8280    9.1930  -19.3240 N.3   110  GLN110     -0.1245
    124  CA        28.1890    8.0840  -18.6000 C.3   110  GLN110      0.1566
    125  C         29.0340    7.7580  -17.3730 C.2   110  GLN110      0.2260
    126  O         30.2960    7.8310  -17.3960 O.2   110  GLN110     -0.2867
    127  CB        28.0950    6.8620  -19.4790 C.3   110  GLN110      0.0367
    128  CG        26.9980    7.0000  -20.5660 C.3   110  GLN110      0.0905
    129  CD        26.8260    5.7010  -21.3090 C.2   110  GLN110      0.2608
    130  OE1       26.5470    4.6520  -20.6960 O.2   110  GLN110     -0.2717
    131  NE2       26.9820    5.7410  -22.6520 N.am  110  GLN110     -0.0878
    132  N         28.8060    5.5010  -13.2880 N.3   112  PHE112     -0.1241
    133  CA        28.0740    4.5570  -12.4330 C.3   112  PHE112      0.1605
    134  C         28.2400    4.8980  -10.9510 C.2   112  PHE112      0.2264
    135  O         29.2080    5.5610  -10.5580 O.2   112  PHE112     -0.2867
    136  CB        28.3960    3.0720  -12.6820 C.3   112  PHE112      0.0534
    137  CG        29.8620    2.6660  -12.5370 C.ar  112  PHE112     -0.0203
    138  CD1       30.7790    3.0060  -13.5450 C.ar  112  PHE112     -0.0042
    139  CD2       30.3060    1.8820  -11.4540 C.ar  112  PHE112     -0.0042
    140  CE1       32.0810    2.5600  -13.4580 C.ar  112  PHE112     -0.0003
    141  CE2       31.5920    1.4670  -11.3710 C.ar  112  PHE112     -0.0003
    142  CZ        32.4950    1.8100  -12.3570 C.ar  112  PHE112     -0.0000
    143  N         37.5790   -5.0930   -9.1160 N.3   120  TRP120     -0.1227
    144  CA        37.9750   -5.6110  -10.4390 C.3   120  TRP120      0.1737
    145  C         37.9930   -4.5290  -11.4810 C.2   120  TRP120      0.2595
    146  O         38.5930   -4.7410  -12.5450 O.2   120  TRP120     -0.2718
    147  CB        37.0570   -6.7860  -10.8680 C.3   120  TRP120      0.0564
    148  CG        35.6000   -6.4270  -10.9570 C.ar  120  TRP120      0.0003
    149  CD1       34.9230   -6.0020  -12.0640 C.ar  120  TRP120      0.0946
    150  CD2       34.6370   -6.5060   -9.8890 C.ar  120  TRP120      0.0152
    151  NE1       33.5980   -5.7980  -11.7450 N.ar  120  TRP120     -0.2442
    152  CE2       33.3980   -6.1110  -10.4180 C.ar  120  TRP120      0.0810
    153  CE3       34.7040   -6.9030   -8.5280 C.ar  120  TRP120      0.0012
    154  CZ2       32.2210   -6.0990   -9.6540 C.ar  120  TRP120      0.0191
    155  CZ3       33.5290   -6.9070   -7.7700 C.ar  120  TRP120      0.0001
    156  CH2       32.3140   -6.4720   -8.3090 C.ar  120  TRP120      0.0015
    157  N         37.3770   -3.3820  -11.2100 N.am  121  LEU121     -0.1980
    158  CA        37.3700   -2.2560  -12.1680 C.3   121  LEU121      0.1596
    159  C         38.5400   -1.2810  -11.9120 C.2   121  LEU121      0.2287
    160  O         38.7130   -0.3130  -12.6650 O.2   121  LEU121     -0.2864
    161  CB        36.0300   -1.4820  -12.0530 C.3   121  LEU121      0.0297
    162  CG        34.8300   -2.3940  -12.3540 C.3   121  LEU121      0.0022
    163  CD1       33.4880   -1.6580  -12.2370 C.3   121  LEU121      0.0001
    164  CD2       34.9600   -3.0330  -13.7820 C.3   121  LEU121      0.0001
    165  N         40.9400    0.6670  -14.5740 N.3   124  LYS124     -0.1231
    166  CA        40.3070    0.8130  -15.8900 C.3   124  LYS124      0.1693
    167  C         39.1750    1.8450  -15.8930 C.2   124  LYS124      0.2592
    168  O         38.8330    2.3510  -16.9510 O.2   124  LYS124     -0.2718
    169  CB        39.7860   -0.5240  -16.4260 C.3   124  LYS124      0.0285
    170  CG        40.9450   -1.4460  -16.8630 C.3   124  LYS124      0.0035
    171  CD        40.4220   -2.6700  -17.6220 C.3   124  LYS124      0.0206
    172  CE        41.5830   -3.6420  -17.9280 C.3   124  LYS124      0.1093
    173  NZ        42.6620   -2.9370  -18.6900 N.3   124  LYS124     -0.1314
    174  N         38.6040    2.1610  -14.7240 N.am  125  HIS125     -0.1976
    175  CA        37.5300    3.1510  -14.5880 C.3   125  HIS125      0.1656
    176  C         37.9680    4.1600  -13.5710 C.2   125  HIS125      0.2291
    177  O         38.3960    3.7820  -12.4750 O.2   125  HIS125     -0.2864
    178  CB        36.2000    2.4330  -14.1580 C.3   125  HIS125      0.0771
    179  CG        35.6570    1.5840  -15.2680 C.ar  125  HIS125      0.0820
    180  ND1       36.1180    0.3090  -15.5680 N.ar  125  HIS125     -0.2267
    181  CD2       34.8430    1.9320  -16.2810 C.ar  125  HIS125      0.1154
    182  CE1       35.5320   -0.1200  -16.6860 C.ar  125  HIS125      0.1986
    183  NE2       34.7420    0.8450  -17.1210 N.ar  125  HIS125     -0.2212
@<TRIPOS>BOND
     1    84    83    1
     2    83    85    1
     3    83    80    1
     4    82    81    2
     5    74    72   am
     6    81    80    1
     7    81    86   am
     8    80    79    1
     9    72    73    2
    10    72    71    1
    11    87    86    1
    12    87    88    1
    13   118   116    1
    14   106   105    2
    15    79    77   am
    16   107   104    1
    17    71    68    1
    18    88    89    2
    19   116   113    1
    20   116   117    1
    21    77    78    2
    22    77    76    1
    23   105   104    1
    24   105   108   am
    25   104   103    1
    26   113   112    1
    27   113   114    1
    28    70    69    2
    29    68    67    1
    30    68    69    1
    31    69    75   am
    32   109   108    1
    33   109   110    1
    34    75    76    1
    35   110   111    2
    36   115   114    2
    37   103    97   am
    38   131   129   am
    39   120   119    1
    40   120   121    1
    41    97    98    2
    42    97    96    1
    43   129   130    2
    44   129   128    1
    45   121   122    2
    46    96    99    1
    47    96    95    1
    48   128   127    1
    49   101   100    2
    50    99   100    1
    51     8    10   ar
    52     8     6   ar
    53    10     9   ar
    54   100   102   am
    55     6     5    1
    56     6     7   ar
    57     9     7   ar
    58     5     2    1
    59    95    92   am
    60   127   124    1
    61   123   124    1
    62    93    92    2
    63    66    64   am
    64    92    91    1
    65   173   172    1
    66   124   125    1
    67     4     3    2
    68    17    18    1
    69    17    16    1
    70     2     3    1
    71     2     1    1
    72    18    19    2
    73     3    11   am
    74    94    91    1
    75   172   171    1
    76    64    65    2
    77    64    63    1
    78   171   170    1
    79    19    21    1
    80    19    20    1
    81    15    16    1
    82    15    12    1
    83    91    90    1
    84   126   125    2
    85   183   182   ar
    86   183   181   ar
    87    11    12    1
    88   168   167    2
    89    63    62    1
    90   170   169    1
    91    12    13    1
    92   182   180   ar
    93   169   166    1
    94   181   179   ar
    95   167   166    1
    96   167   174   am
    97   166   165    1
    98    61    60    2
    99    62    59    1
   100   180   179   ar
   101    60    59    1
   102    13    14    2
   103   179   178    1
   104    29    27    1
   105   174   175    1
   106    59    58    1
   107   175   178    1
   108   175   176    1
   109    27    26    1
   110    57    56    1
   111   164   162    1
   112   176   177    2
   113   138   140   ar
   114   138   137   ar
   115   140   142   ar
   116   132   133    1
   117    47    49   ar
   118    47    45   ar
   119    56    55    1
   120    49    48   ar
   121   136   137    1
   122   136   133    1
   123   160   159    2
   124    26    28    1
   125    26    23    1
   126   146   145    2
   127   137   139   ar
   128   133   134    1
   129   142   141   ar
   130   162   163    1
   131   162   161    1
   132    45    44   ar
   133   158   161    1
   134   158   159    1
   135   158   157    1
   136    22    23    1
   137   149   151   ar
   138   149   148   ar
   139    55    54    1
   140    23    24    1
   141   151   152   ar
   142   145   157   am
   143   145   144    1
   144   139   141   ar
   145    48    46   ar
   146    53    52    2
   147   148   147    1
   148   148   150   ar
   149   134   135    2
   150    44    46   ar
   151    44    43    1
   152   147   144    1
   153    54    51    1
   154   144   143    1
   155    52    51    1
   156   152   150   ar
   157   152   154   ar
   158    24    25    2
   159    43    40    1
   160   150   153   ar
   161    51    50    1
   162   154   156   ar
   163    50    41   am
   164    41    40    1
   165    41    42    2
   166    40    39    1
   167   153   155   ar
   168   156   155   ar
   169    39    32   am
   170    32    33    2
   171    32    31    1
   172    30    31    1
   173    31    34    1
   174    34    35    1
   175    37    36    2
   176    36    35    1
   177    36    38   am
