@<TRIPOS>MOLECULE
tmp/3pmqA06.pdb
 210 203 0 0 0
SMALL
GASTEIGER

@<TRIPOS>ATOM
      1  N         21.7040   63.8090  -81.4190 N.3   321  TYR321     -0.1241
      2  CA        20.3310   64.1630  -81.0990 C.3   321  TYR321      0.1605
      3  C         19.7090   64.8140  -82.3180 C.2   321  TYR321      0.2264
      4  O         20.3920   65.5020  -83.0740 O.2   321  TYR321     -0.2867
      5  CB        20.2810   65.1090  -79.9000 C.3   321  TYR321      0.0534
      6  CG        20.5080   64.4190  -78.5760 C.ar  321  TYR321     -0.0201
      7  CD1       19.4970   64.3400  -77.6310 C.ar  321  TYR321     -0.0009
      8  CD2       21.7300   63.8350  -78.2760 C.ar  321  TYR321     -0.0009
      9  CE1       19.6990   63.7050  -76.4220 C.ar  321  TYR321      0.0417
     10  CE2       21.9410   63.1980  -77.0680 C.ar  321  TYR321      0.0417
     11  CZ        20.9220   63.1360  -76.1460 C.ar  321  TYR321      0.1957
     12  OH        21.1260   62.5020  -74.9440 O.3   321  TYR321     -0.2866
     13  N          9.6050   68.6440  -77.6060 N.3   333  ARG333     -0.1231
     14  CA        10.5290   69.2320  -76.6390 C.3   333  ARG333      0.1694
     15  C         11.6650   68.2670  -76.3090 C.2   333  ARG333      0.2593
     16  O         12.6710   68.6620  -75.7130 O.2   333  ARG333     -0.2718
     17  CB         9.7990   69.6300  -75.3510 C.3   333  ARG333      0.0321
     18  CG         9.1820   68.4520  -74.6190 C.3   333  ARG333      0.0489
     19  CD         8.6930   68.8250  -73.2320 C.3   333  ARG333      0.2205
     20  NE         7.8650   67.7630  -72.6650 N.pl3 333  ARG333     -0.0865
     21  CZ         8.3460   66.6650  -72.0900 C.cat 333  ARG333      0.5346
     22  NH1        9.6560   66.4810  -72.0020 N.pl3 333  ARG333      0.1354
     23  NH2        7.5170   65.7510  -71.6040 N.pl3 333  ARG333      0.1354
     24  N         11.5000   67.0010  -76.6840 N.am  334  SER334     -0.1938
     25  CA        12.5320   66.0020  -76.4280 C.3   334  SER334      0.2055
     26  C         13.0240   65.3680  -77.7190 C.2   334  SER334      0.2642
     27  O         12.3010   64.6130  -78.3680 O.2   334  SER334     -0.2714
     28  CB        12.0210   64.9230  -75.4730 C.3   334  SER334      0.2130
     29  OG        10.9150   64.2410  -76.0270 O.3   334  SER334     -0.2179
     30  N         14.2610   65.6810  -78.0830 N.am  335  ALA335     -0.1977
     31  CA        14.8650   65.1310  -79.2860 C.3   335  ALA335      0.1597
     32  C         15.1810   63.6460  -79.1190 C.2   335  ALA335      0.2287
     33  O         15.4840   63.1840  -78.0190 O.2   335  ALA335     -0.2864
     34  CB        16.1210   65.9120  -79.6450 C.3   335  ALA335      0.0319
     35  N         31.2860   76.7880  -72.1980 N.3   434  LEU434     -0.1245
     36  CA        30.0830   76.6020  -71.3910 C.3   434  LEU434      0.1561
     37  C         29.4260   75.2550  -71.6910 C.2   434  LEU434      0.2260
     38  O         28.9000   75.0430  -72.7820 O.2   434  LEU434     -0.2867
     39  CB        29.0910   77.7480  -71.6150 C.3   434  LEU434      0.0270
     40  CG        27.7540   77.6480  -70.8740 C.3   434  LEU434      0.0019
     41  CD1       27.9600   77.4380  -69.3870 C.3   434  LEU434      0.0001
     42  CD2       26.9170   78.8840  -71.1230 C.3   434  LEU434      0.0001
     43  N         26.5260   72.5330  -70.5300 N.3   436  ILE436     -0.1231
     44  CA        25.3530   72.1610  -69.7510 C.3   436  ILE436      0.1692
     45  C         25.0050   70.7050  -70.0210 C.2   436  ILE436      0.2592
     46  O         25.3280   70.1700  -71.0820 O.2   436  ILE436     -0.2718
     47  CB        24.1430   73.0430  -70.0840 C.3   436  ILE436      0.0266
     48  CG1       24.5670   74.5080  -70.1910 C.3   436  ILE436      0.0019
     49  CG2       23.0570   72.8720  -69.0330 C.3   436  ILE436      0.0020
     50  CD1       25.1940   75.0570  -68.9290 C.3   436  ILE436      0.0001
     51  N         24.3540   70.0650  -69.0560 N.am  437  HIS437     -0.1976
     52  CA        23.9710   68.6680  -69.2000 C.3   437  HIS437      0.1656
     53  C         25.1850   67.7840  -69.4740 C.2   437  HIS437      0.2291
     54  O         25.0640   66.7100  -70.0560 O.2   437  HIS437     -0.2864
     55  CB        22.9310   68.5060  -70.3090 C.3   437  HIS437      0.0771
     56  CG        21.7240   69.3760  -70.1380 C.ar  437  HIS437      0.0820
     57  ND1       20.9330   69.3360  -69.0110 N.ar  437  HIS437     -0.2267
     58  CD2       21.1680   70.3030  -70.9540 C.ar  437  HIS437      0.1154
     59  CE1       19.9440   70.2040  -69.1380 C.ar  437  HIS437      0.1986
     60  NE2       20.0650   70.8040  -70.3080 N.ar  437  HIS437     -0.2212
     61  N         26.8380   69.0590  -73.5980 N.3   440  ARG440     -0.1231
     62  CA        26.2080   69.9580  -74.5580 C.3   440  ARG440      0.1694
     63  C         26.7790   71.3740  -74.4530 C.2   440  ARG440      0.2592
     64  O         26.7700   71.9760  -73.3800 O.2   440  ARG440     -0.2718
     65  CB        24.6900   69.9600  -74.3600 C.3   440  ARG440      0.0321
     66  CG        24.0500   68.5900  -74.5460 C.3   440  ARG440      0.0489
     67  CD        22.5530   68.6360  -74.2920 C.3   440  ARG440      0.2205
     68  NE        21.9080   67.3570  -74.5800 N.pl3 440  ARG440     -0.0865
     69  CZ        21.5760   66.4580  -73.6580 C.cat 440  ARG440      0.5346
     70  NH1       20.9930   65.3220  -74.0140 N.pl3 440  ARG440      0.1354
     71  NH2       21.8250   66.6930  -72.3790 N.pl3 440  ARG440      0.1354
     72  N         27.2630   71.9070  -75.5720 N.am  441  ASN441     -0.1960
     73  CA        27.9160   73.2130  -75.5710 C.3   441  ASN441      0.1819
     74  C         27.7600   74.0100  -76.8690 C.2   441  ASN441      0.2621
     75  O         28.3460   75.0820  -77.0160 O.2   441  ASN441     -0.2715
     76  CB        29.3980   73.0680  -75.2170 C.3   441  ASN441      0.1195
     77  CG        30.1160   72.0670  -76.0990 C.2   441  ASN441      0.2630
     78  OD1       29.9050   72.0240  -77.3080 O.2   441  ASN441     -0.2716
     79  ND2       30.9690   71.2500  -75.4940 N.am  441  ASN441     -0.0877
     80  N         26.9810   73.4840  -77.8080 N.am  442  ASP442     -0.1957
     81  CA        26.6700   74.2130  -79.0340 C.3   442  ASP442      0.1840
     82  C         25.4590   75.1110  -78.8070 C.2   442  ASP442      0.2621
     83  O         24.4340   74.6660  -78.2930 O.2   442  ASP442     -0.2715
     84  CB        26.3970   73.2470  -80.1860 C.3   442  ASP442      0.1450
     85  CG        26.3520   73.9430  -81.5310 C.2   442  ASP442      0.3671
     86  OD1       26.2900   75.1880  -81.5580 O.co2 442  ASP442     -0.2456
     87  OD2       26.3750   73.2410  -82.5640 O.co2 442  ASP442     -0.2456
     88  N         25.5810   76.3750  -79.1960 N.am  443  LEU443     -0.1977
     89  CA        24.5160   77.3450  -78.9760 C.3   443  LEU443      0.1596
     90  C         23.9230   77.8240  -80.2990 C.2   443  LEU443      0.2287
     91  O         22.8100   78.3440  -80.3360 O.2   443  LEU443     -0.2864
     92  CB        25.0370   78.5330  -78.1650 C.3   443  LEU443      0.0297
     93  CG        25.9270   78.1890  -76.9660 C.3   443  LEU443      0.0022
     94  CD1       26.3040   79.4450  -76.1930 C.3   443  LEU443      0.0001
     95  CD2       25.2460   77.1820  -76.0520 C.3   443  LEU443      0.0001
     96  N         21.4690   72.7680  -81.4840 N.3   446  GLN446     -0.1231
     97  CA        21.4910   71.7720  -80.4120 C.3   446  GLN446      0.1698
     98  C         20.5530   72.1050  -79.2550 C.2   446  GLN446      0.2592
     99  O         19.6240   71.3530  -78.9670 O.2   446  GLN446     -0.2718
    100  CB        22.9150   71.5620  -79.8810 C.3   446  GLN446      0.0381
    101  CG        22.9530   70.8420  -78.5400 C.3   446  GLN446      0.0905
    102  CD        24.2490   70.0890  -78.2980 C.2   446  GLN446      0.2608
    103  OE1       25.2680   70.6810  -77.9440 O.2   446  GLN446     -0.2717
    104  NE2       24.2120   68.7710  -78.4800 N.am  446  GLN446     -0.0878
    105  N         20.8030   73.2270  -78.5900 N.am  447  CYS447     -0.1970
    106  CA        19.9890   73.6380  -77.4540 C.3   447  CYS447      0.1712
    107  C         18.5210   73.7020  -77.8390 C.2   447  CYS447      0.2296
    108  O         17.6510   73.2840  -77.0770 O.2   447  CYS447     -0.2864
    109  CB        20.4390   75.0050  -76.9330 C.3   447  CYS447      0.0983
    110  SG        22.0520   75.0290  -76.1210 S.3   447  CYS447     -0.0798
    111  N         17.0410   72.0520  -80.0920 N.3   449  LEU449     -0.1231
    112  CA        16.5090   70.7330  -80.4120 C.3   449  LEU449      0.1693
    113  C         15.5890   70.2670  -79.2930 C.2   449  LEU449      0.2592
    114  O         14.7330   69.4090  -79.4920 O.2   449  LEU449     -0.2718
    115  CB        17.6410   69.7240  -80.6060 C.3   449  LEU449      0.0284
    116  CG        18.2350   69.5550  -82.0060 C.3   449  LEU449      0.0019
    117  CD1       18.3640   70.8860  -82.7270 C.3   449  LEU449      0.0001
    118  CD2       19.5790   68.8480  -81.9170 C.3   449  LEU449      0.0001
    119  N         15.7790   70.8400  -78.1120 N.am  450  CYS450     -0.1956
    120  CA        14.9530   70.5100  -76.9610 C.3   450  CYS450      0.1843
    121  C         14.2900   71.7600  -76.3920 C.2   450  CYS450      0.2625
    122  O         13.1060   71.7470  -76.0570 O.2   450  CYS450     -0.2714
    123  CB        15.7860   69.8120  -75.8860 C.3   450  CYS450      0.0997
    124  SG        16.2720   68.1230  -76.2990 S.3   450  CYS450     -0.0797
    125  N         15.0590   72.8390  -76.2920 N.am  451  HIS451     -0.1973
    126  CA        14.5370   74.1090  -75.7990 C.3   451  HIS451      0.1656
    127  C         13.7820   74.8620  -76.8860 C.2   451  HIS451      0.2291
    128  O         14.2420   75.8870  -77.3820 O.2   451  HIS451     -0.2864
    129  CB        15.6660   74.9740  -75.2380 C.3   451  HIS451      0.0771
    130  CG        16.3570   74.3650  -74.0600 C.ar  451  HIS451      0.0820
    131  ND1       15.8770   74.4810  -72.7730 N.ar  451  HIS451     -0.2267
    132  CD2       17.4860   73.6240  -73.9740 C.ar  451  HIS451      0.1154
    133  CE1       16.6830   73.8430  -71.9450 C.ar  451  HIS451      0.1986
    134  NE2       17.6680   73.3140  -72.6480 N.ar  451  HIS451     -0.2212
    135  N          8.2100   73.4640  -75.2040 N.3   455  MET455     -0.1245
    136  CA         8.4490   73.5470  -73.7680 C.3   455  MET455      0.1570
    137  C          7.3200   74.3110  -73.0900 C.2   455  MET455      0.2261
    138  O          7.1100   75.4910  -73.3650 O.2   455  MET455     -0.2867
    139  CB         9.7810   74.2460  -73.4920 C.3   455  MET455      0.0387
    140  CG        11.0110   73.4130  -73.7960 C.3   455  MET455      0.0595
    141  SD        11.2250   72.0620  -72.6240 S.3   455  MET455     -0.1393
    142  CE        12.8900   71.5390  -73.0150 C.3   455  MET455      0.0692
    143  N         10.9100   76.6880  -70.7390 N.3   469  PHE469     -0.1241
    144  CA        12.2860   76.3150  -71.0270 C.3   469  PHE469      0.1605
    145  C         12.6200   76.5320  -72.4990 C.2   469  PHE469      0.2264
    146  O         13.6170   76.0190  -73.0040 O.2   469  PHE469     -0.2867
    147  CB        12.5720   74.8760  -70.5930 C.3   469  PHE469      0.0534
    148  CG        12.9120   74.7450  -69.1350 C.ar  469  PHE469     -0.0203
    149  CD1       14.1850   75.0450  -68.6820 C.ar  469  PHE469     -0.0042
    150  CD2       11.9620   74.3260  -68.2190 C.ar  469  PHE469     -0.0042
    151  CE1       14.5040   74.9300  -67.3450 C.ar  469  PHE469     -0.0003
    152  CE2       12.2770   74.2080  -66.8790 C.ar  469  PHE469     -0.0003
    153  CZ        13.5490   74.5110  -66.4420 C.ar  469  PHE469     -0.0000
    154  N         14.2560   78.3250  -75.4720 N.3   471  PHE471     -0.1241
    155  CA        15.5960   78.8930  -75.4030 C.3   471  PHE471      0.1605
    156  C         15.5440   80.4030  -75.1820 C.2   471  PHE471      0.2264
    157  O         16.2000   80.9250  -74.2830 O.2   471  PHE471     -0.2867
    158  CB        16.4100   78.5460  -76.6530 C.3   471  PHE471      0.0534
    159  CG        17.8960   78.5390  -76.4230 C.ar  471  PHE471     -0.0203
    160  CD1       18.4450   77.7920  -75.3950 C.ar  471  PHE471     -0.0042
    161  CD2       18.7440   79.2670  -77.2390 C.ar  471  PHE471     -0.0042
    162  CE1       19.8120   77.7780  -75.1770 C.ar  471  PHE471     -0.0003
    163  CE2       20.1130   79.2550  -77.0280 C.ar  471  PHE471     -0.0003
    164  CZ        20.6470   78.5080  -75.9940 C.ar  471  PHE471     -0.0000
    165  N         14.2750   81.0090  -71.5730 N.3   474  LEU474     -0.1231
    166  CA        15.2840   80.5760  -70.6180 C.3   474  LEU474      0.1693
    167  C         16.4330   81.5730  -70.5570 C.2   474  LEU474      0.2591
    168  O         16.7580   82.0980  -69.4920 O.2   474  LEU474     -0.2718
    169  CB        15.8150   79.1920  -70.9990 C.3   474  LEU474      0.0284
    170  CG        16.8690   78.5840  -70.0730 C.3   474  LEU474      0.0019
    171  CD1       16.3360   78.4690  -68.6560 C.3   474  LEU474      0.0001
    172  CD2       17.3070   77.2260  -70.5920 C.3   474  LEU474      0.0001
    173  N         17.0320   81.8410  -71.7120 N.am  475  ILE475     -0.1980
    174  CA        18.2040   82.7030  -71.7940 C.3   475  ILE475      0.1595
    175  C         17.9340   84.0960  -71.2430 C.2   475  ILE475      0.2287
    176  O         18.5710   84.5180  -70.2790 O.2   475  ILE475     -0.2864
    177  CB        18.7200   82.8090  -73.2380 C.3   475  ILE475      0.0276
    178  CG1       19.2110   81.4430  -73.7160 C.3   475  ILE475      0.0022
    179  CG2       19.8310   83.8360  -73.3350 C.3   475  ILE475      0.0022
    180  CD1       20.2840   80.8510  -72.8370 C.3   475  ILE475      0.0001
    181  N         17.2000   83.9340  -67.3090 N.3   478  LEU478     -0.1245
    182  CA        18.2520   83.6450  -66.3350 C.3   478  LEU478      0.1561
    183  C         19.3530   84.7000  -66.3330 C.2   478  LEU478      0.2260
    184  O         19.8970   85.0260  -65.2830 O.2   478  LEU478     -0.2867
    185  CB        18.8290   82.2390  -66.5320 C.3   478  LEU478      0.0270
    186  CG        19.5510   81.9090  -67.8370 C.3   478  LEU478      0.0019
    187  CD1       21.0270   82.1980  -67.7050 C.3   478  LEU478      0.0001
    188  CD2       19.3370   80.4490  -68.1980 C.3   478  LEU478      0.0001
    189  N         14.8880   84.1420  -63.7330 N.3   483  PHE483     -0.1241
    190  CA        14.4500   82.7680  -63.9580 C.3   483  PHE483      0.1605
    191  C         14.5790   81.9390  -62.6840 C.2   483  PHE483      0.2264
    192  O         15.4750   82.1680  -61.8740 O.2   483  PHE483     -0.2867
    193  CB        15.2420   82.1140  -65.0930 C.3   483  PHE483      0.0534
    194  CG        14.6900   80.7830  -65.5300 C.ar  483  PHE483     -0.0203
    195  CD1       13.8080   80.7000  -66.5950 C.ar  483  PHE483     -0.0042
    196  CD2       15.0480   79.6170  -64.8730 C.ar  483  PHE483     -0.0042
    197  CE1       13.2960   79.4800  -66.9990 C.ar  483  PHE483     -0.0003
    198  CE2       14.5370   78.3950  -65.2710 C.ar  483  PHE483     -0.0003
    199  CZ        13.6600   78.3270  -66.3360 C.ar  483  PHE483     -0.0000
    200  N         17.6860   80.7570  -60.5350 N.3   486  PHE486     -0.1241
    201  CA        18.7680   81.6100  -61.0190 C.3   486  PHE486      0.1605
    202  C         18.7520   83.0080  -60.4080 C.2   486  PHE486      0.2264
    203  O         19.3280   83.9410  -60.9690 O.2   486  PHE486     -0.2867
    204  CB        18.7440   81.7020  -62.5470 C.3   486  PHE486      0.0534
    205  CG        19.4500   80.5690  -63.2310 C.ar  486  PHE486     -0.0203
    206  CD1       20.6340   80.7870  -63.9150 C.ar  486  PHE486     -0.0042
    207  CD2       18.9370   79.2830  -63.1820 C.ar  486  PHE486     -0.0042
    208  CE1       21.2900   79.7440  -64.5430 C.ar  486  PHE486     -0.0003
    209  CE2       19.5880   78.2370  -63.8060 C.ar  486  PHE486     -0.0003
    210  CZ        20.7670   78.4680  -64.4880 C.ar  486  PHE486     -0.0000
@<TRIPOS>BOND
     1     4     3    2
     2   117   116    1
     3    87    85   ar
     4     3     2    1
     5   116   118    1
     6   116   115    1
     7    86    85   ar
     8    85    84    1
     9    96    97    1
    10     1     2    1
    11     2     5    1
    12   115   112    1
    13   112   111    1
    14   112   113    1
    15    97   100    1
    16    97    98    1
    17    91    90    2
    18    90    89    1
    19    84    81    1
    20     5     6    1
    21   100   101    1
    22    34    31    1
    23   114   113    2
    24   113   119   am
    25    31    32    1
    26    31    30    1
    27    98    99    2
    28    98   105   am
    29    88    89    1
    30    88    82   am
    31    32    33    2
    32    81    82    1
    33    81    80    1
    34    89    92    1
    35    82    83    2
    36   105   106    1
    37     6     8   ar
    38     6     7   ar
    39   101   102    1
    40   104   102   am
    41    27    26    2
    42   102   103    2
    43     8    10   ar
    44    92    93    1
    45   119   120    1
    46    30    26   am
    47   107   106    1
    48   107   108    2
    49    80    74   am
    50    26    25    1
    51     7     9   ar
    52    13    14    1
    53   106   109    1
    54   128   127    2
    55    78    77    2
    56   161   163   ar
    57   161   159   ar
    58    10    11   ar
    59   163   164   ar
    60    75    74    2
    61    93    94    1
    62    93    95    1
    63   120   121    1
    64   120   123    1
    65   109   110    1
    66   127   126    1
    67    74    73    1
    68    24    25    1
    69    24    15   am
    70   158   159    1
    71   158   155    1
    72    14    15    1
    73    14    17    1
    74    25    28    1
    75   159   160   ar
    76     9    11   ar
    77   121   125   am
    78   121   122    2
    79    15    16    2
    80   124   123    1
    81   125   126    1
    82    11    12    1
    83    77    79   am
    84    77    76    1
    85    29    28    1
    86   164   162   ar
    87   126   129    1
    88    72    73    1
    89    72    63   am
    90    73    76    1
    91   154   155    1
    92   155   156    1
    93   160   162   ar
    94    17    18    1
    95   129   130    1
    96   135   136    1
    97   156   157    2
    98    18    19    1
    99    68    67    1
   100    68    69    2
   101    62    63    1
   102    62    65    1
   103    62    61    1
   104    66    65    1
   105    66    67    1
   106    63    64    2
   107   130   132   ar
   108   130   131   ar
   109    70    69    1
   110   132   134   ar
   111   140   139    1
   112   140   141    1
   113   136   139    1
   114   136   137    1
   115   178   177    1
   116   178   180    1
   117    69    71    1
   118   138   137    2
   119   179   177    1
   120   177   174    1
   121    19    20    1
   122   142   141    1
   123   146   145    2
   124    38    37    2
   125   131   133   ar
   126    20    21    2
   127   134   133   ar
   128   145   144    1
   129    35    36    1
   130    21    22    1
   131    21    23    1
   132   174   173    1
   133   174   175    1
   134   173   167   am
   135    37    36    1
   136    39    36    1
   137    39    40    1
   138   165   166    1
   139   175   176    2
   140    42    40    1
   141    46    45    2
   142   144   143    1
   143   144   147    1
   144   169   166    1
   145   169   170    1
   146    58    60   ar
   147    58    56   ar
   148    40    41    1
   149   166   167    1
   150   147   148    1
   151   172   170    1
   152   167   168    2
   153    43    44    1
   154    55    56    1
   155    55    52    1
   156    60    59   ar
   157    48    47    1
   158    48    50    1
   159    56    57   ar
   160    47    44    1
   161    47    49    1
   162   170   171    1
   163    54    53    2
   164    45    44    1
   165    45    51   am
   166    53    52    1
   167    52    51    1
   168    59    57   ar
   169   148   149   ar
   170   148   150   ar
   171   149   151   ar
   172   150   152   ar
   173   188   186    1
   174   186   187    1
   175   186   185    1
   176   151   153   ar
   177   181   182    1
   178   197   195   ar
   179   197   199   ar
   180   152   153   ar
   181   195   194   ar
   182   185   182    1
   183   199   198   ar
   184   182   183    1
   185   183   184    2
   186   194   193    1
   187   194   196   ar
   188   198   196   ar
   189   193   190    1
   190   208   210   ar
   191   208   206   ar
   192   210   209   ar
   193   190   189    1
   194   190   191    1
   195   206   205   ar
   196   209   207   ar
   197   205   207   ar
   198   205   204    1
   199   191   192    2
   200   204   201    1
   201   201   200    1
   202   201   202    1
   203   203   202    2
