@<TRIPOS>MOLECULE
tmp/3pmqA08.pdb
 129 122 0 0 0
SMALL
GASTEIGER

@<TRIPOS>ATOM
      1  N         16.9870   84.8040  -71.8500 N.3   476  HIS476     -0.1241
      2  CA        16.6270   86.1360  -71.3810 C.3   476  HIS476      0.1621
      3  C         16.3450   86.1100  -69.8800 C.2   476  HIS476      0.2264
      4  O         16.8030   86.9750  -69.1360 O.2   476  HIS476     -0.2867
      5  CB        15.4010   86.6650  -72.1330 C.3   476  HIS476      0.0745
      6  CG        15.6780   87.0750  -73.5490 C.ar  476  HIS476      0.0817
      7  ND1       14.6730   87.3060  -74.4650 N.ar  476  HIS476     -0.2268
      8  CD2       16.8410   87.3050  -74.2030 C.ar  476  HIS476      0.1154
      9  CE1       15.2040   87.6560  -75.6220 C.ar  476  HIS476      0.1986
     10  NE2       16.5190   87.6620  -75.4910 N.ar  476  HIS476     -0.2212
     11  N         22.0890   94.3140  -69.6770 N.3   495  ILE495     -0.1231
     12  CA        21.0550   93.3440  -70.0130 C.3   495  ILE495      0.1692
     13  C         20.3410   93.7750  -71.2870 C.2   495  ILE495      0.2592
     14  O         19.9470   92.9400  -72.1030 O.2   495  ILE495     -0.2718
     15  CB        20.0140   93.1880  -68.8830 C.3   495  ILE495      0.0266
     16  CG1       20.6970   92.8730  -67.5480 C.3   495  ILE495      0.0019
     17  CG2       19.0030   92.1050  -69.2370 C.3   495  ILE495      0.0020
     18  CD1       21.2790   94.0840  -66.8410 C.3   495  ILE495      0.0001
     19  N         20.1930   95.0870  -71.4500 N.am  496  GLY496     -0.1957
     20  CA        19.4960   95.6560  -72.5890 C.3   496  GLY496      0.1869
     21  C         20.3200   95.7340  -73.8600 C.2   496  GLY496      0.2309
     22  O         19.7990   96.0780  -74.9200 O.2   496  GLY496     -0.2863
     23  N         21.4900   94.3430  -76.8380 N.3   498  CYS498     -0.1235
     24  CA        21.1530   93.2190  -77.7060 C.3   498  CYS498      0.1677
     25  C         22.3450   92.7390  -78.5280 C.2   498  CYS498      0.2270
     26  O         22.4130   91.5730  -78.9190 O.2   498  CYS498     -0.2867
     27  CB        20.0120   93.6040  -78.6530 C.3   498  CYS498      0.0956
     28  SG        18.6040   94.4150  -77.8610 S.3   498  CYS498     -0.0801
     29  N         22.8470   88.8620  -79.9360 N.3   502  HIS502     -0.1241
     30  CA        22.2520   88.8020  -81.2690 C.3   502  HIS502      0.1621
     31  C         23.2350   89.0980  -82.4050 C.2   502  HIS502      0.2264
     32  O         24.3970   89.4200  -82.1650 O.2   502  HIS502     -0.2867
     33  CB        21.0140   89.6970  -81.3480 C.3   502  HIS502      0.0745
     34  CG        19.8690   89.2080  -80.5140 C.ar  502  HIS502      0.0817
     35  ND1       18.9330   88.3140  -80.9860 N.ar  502  HIS502     -0.2268
     36  CD2       19.5180   89.4790  -79.2340 C.ar  502  HIS502      0.1154
     37  CE1       18.0510   88.0590  -80.0350 C.ar  502  HIS502      0.1986
     38  NE2       18.3830   88.7540  -78.9630 N.ar  502  HIS502     -0.2212
     39  N         16.9840   90.8870  -84.0780 N.3   511  THR511     -0.1218
     40  CA        15.7630   91.2830  -83.3910 C.3   511  THR511      0.1862
     41  C         14.9000   92.1270  -84.3230 C.2   511  THR511      0.2287
     42  O         14.2440   93.0820  -83.8990 O.2   511  THR511     -0.2866
     43  CB        16.0460   92.0590  -82.1010 C.3   511  THR511      0.1770
     44  OG1       17.0670   91.3900  -81.3510 O.3   511  THR511     -0.2211
     45  CG2       14.7820   92.1450  -81.2620 C.3   511  THR511      0.0375
     46  N         12.2060   93.8940  -86.1080 N.3   513  ALA513     -0.1245
     47  CA        10.9420   94.2730  -85.4850 C.3   513  ALA513      0.1562
     48  C          9.8180   93.3260  -85.8700 C.2   513  ALA513      0.2260
     49  O          8.7860   93.2760  -85.2020 O.2   513  ALA513     -0.2867
     50  CB        10.5760   95.6960  -85.8520 C.3   513  ALA513      0.0290
     51  N          4.7200   88.3380  -80.5950 N.3   534  ILE534     -0.1245
     52  CA         5.6120   89.4180  -80.1930 C.3   534  ILE534      0.1561
     53  C          5.4730   89.7480  -78.7090 C.2   534  ILE534      0.2260
     54  O          6.4510   90.0920  -78.0470 O.2   534  ILE534     -0.2867
     55  CB         5.3880   90.6750  -81.0480 C.3   534  ILE534      0.0252
     56  CG1        5.5040   90.3180  -82.5320 C.3   534  ILE534      0.0019
     57  CG2        6.3850   91.7580  -80.6730 C.3   534  ILE534      0.0019
     58  CD1        5.1720   91.4530  -83.4720 C.3   534  ILE534      0.0001
     59  N          7.7000   87.3910  -76.2430 N.3   537  VAL537     -0.1231
     60  CA         9.0910   87.6820  -75.9180 C.3   537  VAL537      0.1692
     61  C          9.2650   88.9080  -75.0240 C.2   537  VAL537      0.2592
     62  O         10.1130   88.9200  -74.1350 O.2   537  VAL537     -0.2718
     63  CB         9.9340   87.8640  -77.1940 C.3   537  VAL537      0.0266
     64  CG1        9.9140   86.5890  -78.0200 C.3   537  VAL537      0.0020
     65  CG2        9.4150   89.0320  -78.0120 C.3   537  VAL537      0.0020
     66  N          8.4560   89.9340  -75.2590 N.am  538  CYS538     -0.1970
     67  CA         8.6190   91.2010  -74.5580 C.3   538  CYS538      0.1712
     68  C          8.1640   91.1520  -73.1000 C.2   538  CYS538      0.2296
     69  O          8.4430   92.0700  -72.3300 O.2   538  CYS538     -0.2864
     70  CB         7.9020   92.3230  -75.3130 C.3   538  CYS538      0.0983
     71  SG         8.5630   92.6420  -76.9720 S.3   538  CYS538     -0.0798
     72  N         11.4170   90.9890  -70.3180 N.3   541  CYS541     -0.1221
     73  CA        12.2280   92.1720  -70.0790 C.3   541  CYS541      0.1808
     74  C         11.3390   93.4040  -69.9360 C.2   541  CYS541      0.2601
     75  O         11.8160   94.5360  -69.8920 O.2   541  CYS541     -0.2717
     76  CB        13.2490   92.3490  -71.1980 C.3   541  CYS541      0.0970
     77  SG        14.4710   91.0200  -71.2780 S.3   541  CYS541     -0.0800
     78  N         10.0370   93.1560  -69.8640 N.am  542  HIS542     -0.1975
     79  CA         9.0420   94.1850  -69.6030 C.3   542  HIS542      0.1656
     80  C          7.8960   93.4400  -68.9300 C.2   542  HIS542      0.2291
     81  O          6.8330   93.2320  -69.5110 O.2   542  HIS542     -0.2864
     82  CB         8.6070   94.8520  -70.9090 C.3   542  HIS542      0.0771
     83  CG         9.7450   95.4150  -71.7100 C.ar  542  HIS542      0.0820
     84  ND1       10.4250   96.5550  -71.3380 N.ar  542  HIS542     -0.2267
     85  CD2       10.3230   94.9940  -72.8610 C.ar  542  HIS542      0.1154
     86  CE1       11.3710   96.8130  -72.2240 C.ar  542  HIS542      0.1986
     87  NE2       11.3310   95.8810  -73.1590 N.ar  542  HIS542     -0.2212
     88  N          6.3320   99.7300  -83.2020 N.3   576  HIS576     -0.1241
     89  CA         7.6980   99.4540  -82.7750 C.3   576  HIS576      0.1621
     90  C          8.4810   98.8220  -83.9350 C.2   576  HIS576      0.2264
     91  O          9.2070   97.8470  -83.7400 O.2   576  HIS576     -0.2867
     92  CB         7.7020   98.5090  -81.5620 C.3   576  HIS576      0.0745
     93  CG         6.9180   99.0080  -80.3800 C.ar  576  HIS576      0.0817
     94  ND1        7.4760   99.7930  -79.3940 N.ar  576  HIS576     -0.2268
     95  CD2        5.6300   98.8050  -80.0100 C.ar  576  HIS576      0.1154
     96  CE1        6.5640  100.0660  -78.4770 C.ar  576  HIS576      0.1986
     97  NE2        5.4340   99.4760  -78.8240 N.ar  576  HIS576     -0.2212
     98  N         10.1660  103.6480  -82.4480 N.3   583  ASP583     -0.1225
     99  CA        10.7540  102.6960  -81.5060 C.3   583  ASP583      0.1805
    100  C         11.8650  101.8380  -82.1150 C.2   583  ASP583      0.2597
    101  O         13.0340  102.2230  -82.1100 O.2   583  ASP583     -0.2718
    102  CB         9.6680  101.7910  -80.9190 C.3   583  ASP583      0.1424
    103  CG        10.1850  100.9140  -79.7960 C.2   583  ASP583      0.3668
    104  OD1       10.0310  101.3040  -78.6200 O.co2 583  ASP583     -0.2456
    105  OD2       10.7460   99.8370  -80.0880 O.co2 583  ASP583     -0.2456
    106  N         11.4840  100.6670  -82.6190 N.am  584  VAL584     -0.1980
    107  CA        12.4090   99.7050  -83.2320 C.3   584  VAL584      0.1595
    108  C         13.6980   99.4140  -82.4470 C.2   584  VAL584      0.2287
    109  O         13.6840   98.6420  -81.4870 O.2   584  VAL584     -0.2864
    110  CB        12.7210  100.0450  -84.7200 C.3   584  VAL584      0.0276
    111  CG1       13.2110  101.4780  -84.8830 C.3   584  VAL584      0.0022
    112  CG2       13.7090   99.0470  -85.3060 C.3   584  VAL584      0.0022
    113  N         15.2270  102.4710  -79.4690 N.3   587  VAL587     -0.1231
    114  CA        14.7270  102.3320  -78.1070 C.3   587  VAL587      0.1692
    115  C         15.6550  101.5020  -77.2180 C.2   587  VAL587      0.2592
    116  O         15.5770  101.5790  -75.9920 O.2   587  VAL587     -0.2718
    117  CB        13.3100  101.7210  -78.0910 C.3   587  VAL587      0.0266
    118  CG1       13.3690  100.2380  -78.4110 C.3   587  VAL587      0.0020
    119  CG2       12.6490  101.9520  -76.7460 C.3   587  VAL587      0.0020
    120  N         16.5280  100.7090  -77.8340 N.am  588  HIS588     -0.1976
    121  CA        17.4700   99.8810  -77.0820 C.3   588  HIS588      0.1656
    122  C         18.9170  100.2970  -77.3310 C.2   588  HIS588      0.2291
    123  O         19.2860  100.6340  -78.4560 O.2   588  HIS588     -0.2864
    124  CB        17.2940   98.3960  -77.4270 C.3   588  HIS588      0.0771
    125  CG        16.0090   97.8010  -76.9350 C.ar  588  HIS588      0.0820
    126  ND1       14.9350   97.5620  -77.7640 N.ar  588  HIS588     -0.2267
    127  CD2       15.6310   97.3890  -75.7010 C.ar  588  HIS588      0.1154
    128  CE1       13.9490   97.0320  -77.0630 C.ar  588  HIS588      0.1986
    129  NE2       14.3450   96.9170  -75.8080 N.ar  588  HIS588     -0.2212
@<TRIPOS>BOND
     1    46    47    1
     2    48    47    1
     3    48    49    2
     4    50    47    1
     5   112   110    1
     6   111   110    1
     7   110   107    1
     8    41    42    2
     9    41    40    1
    10    39    40    1
    11    90    91    2
    12    90    89    1
    13    58    56    1
    14    40    43    1
    15   107   106    1
    16   107   108    1
    17    88    89    1
    18    89    92    1
    19   106   100   am
    20    56    55    1
    21    98    99    1
    22   108   109    2
    23    31    32    2
    24    31    30    1
    25   100   101    2
    26   100    99    1
    27    43    44    1
    28    43    45    1
    29    92    93    1
    30    99   102    1
    31    33    30    1
    32    33    34    1
    33    30    29    1
    34    55    57    1
    35    55    52    1
    36    35    34   ar
    37    35    37   ar
    38   102   103    1
    39    51    52    1
    40    34    36   ar
    41    93    95   ar
    42    93    94   ar
    43    52    53    1
    44   105   103   ar
    45    37    38   ar
    46    95    97   ar
    47   103   104   ar
    48   113   114    1
    49    94    96   ar
    50    36    38   ar
    51    26    25    2
    52    97    96   ar
    53    53    54    2
    54    27    28    1
    55    27    24    1
    56    25    24    1
    57   123   122    2
    58   118   117    1
    59   114   117    1
    60   114   115    1
    61   117   119    1
    62    64    63    1
    63    65    63    1
    64   120   115   am
    65   120   121    1
    66   126   128   ar
    67   126   125   ar
    68    24    23    1
    69   124   121    1
    70   124   125    1
    71   122   121    1
    72   115   116    2
    73    63    60    1
    74   128   129   ar
    75    71    70    1
    76   125   127   ar
    77    59    60    1
    78    60    61    1
    79   129   127   ar
    80     9    10   ar
    81     9     7   ar
    82    10     8   ar
    83    70    67    1
    84    66    61   am
    85    66    67    1
    86    61    62    2
    87    22    21    2
    88    67    68    1
    89     7     6   ar
    90     8     6   ar
    91    21    20    1
    92     6     5    1
    93    87    85   ar
    94    87    86   ar
    95    68    69    2
    96    85    83   ar
    97    20    19    1
    98    86    84   ar
    99     5     2    1
   100    14    13    2
   101     1     2    1
   102    83    84   ar
   103    83    82    1
   104    19    13   am
   105     2     3    1
   106    13    12    1
   107    77    76    1
   108    76    73    1
   109    82    79    1
   110    72    73    1
   111    73    74    1
   112    12    11    1
   113    12    15    1
   114    74    75    2
   115    74    78   am
   116     3     4    2
   117    78    79    1
   118    79    80    1
   119    81    80    2
   120    17    15    1
   121    15    16    1
   122    16    18    1
