@<TRIPOS>MOLECULE
tmp/3pmqA05.pdb
 213 207 0 0 0
SMALL
GASTEIGER

@<TRIPOS>ATOM
      1  N         34.2860   93.3980  -72.8970 N.3   148  SER148     -0.1202
      2  CA        33.6860   92.2640  -73.5790 C.3   148  SER148      0.2020
      3  C         32.5640   91.6790  -72.7260 C.2   148  SER148      0.2619
      4  O         31.4920   91.3540  -73.2340 O.2   148  SER148     -0.2717
      5  CB        34.7360   91.2070  -73.8990 C.3   148  SER148      0.2103
      6  OG        35.6630   91.7050  -74.8460 O.3   148  SER148     -0.2182
      7  N         32.8110   91.5680  -71.4250 N.am  149  CYS149     -0.1969
      8  CA        31.8090   91.0530  -70.4970 C.3   149  CYS149      0.1712
      9  C         30.9840   92.1710  -69.8490 C.2   149  CYS149      0.2296
     10  O         29.9380   91.9120  -69.2510 O.2   149  CYS149     -0.2864
     11  CB        32.4700   90.1970  -69.4110 C.3   149  CYS149      0.0983
     12  SG        33.4420   88.7990  -70.0180 S.3   149  CYS149     -0.0798
     13  N         31.5170   83.5640  -59.9310 N.3   193  GLY193     -0.1210
     14  CA        30.5160   84.2190  -60.7520 C.3   193  GLY193      0.1956
     15  C         31.0210   84.4260  -62.1650 C.2   193  GLY193      0.2612
     16  O         30.2590   84.7400  -63.0780 O.2   193  GLY193     -0.2717
     17  N         32.3240   84.2460  -62.3370 N.am  194  PHE194     -0.1962
     18  CA        32.9580   84.3400  -63.6420 C.3   194  PHE194      0.1756
     19  C         32.3420   83.3060  -64.5810 C.2   194  PHE194      0.2461
     20  O         32.2250   82.1310  -64.2250 O.2   194  PHE194     -0.2730
     21  CB        34.4590   84.0800  -63.4900 C.3   194  PHE194      0.0574
     22  CG        35.3180   84.8310  -64.4680 C.ar  194  PHE194     -0.0200
     23  CD1       35.4220   86.2100  -64.4010 C.ar  194  PHE194     -0.0042
     24  CD2       36.0520   84.1540  -65.4300 C.ar  194  PHE194     -0.0042
     25  CE1       36.2250   86.9040  -65.2880 C.ar  194  PHE194     -0.0003
     26  CE2       36.8570   84.8410  -66.3200 C.ar  194  PHE194     -0.0003
     27  CZ        36.9460   86.2190  -66.2470 C.ar  194  PHE194     -0.0000
     28  N         31.9360   83.7400  -65.7850 N.am  195  PRO195     -0.2727
     29  CA        31.4210   82.8120  -66.7990 C.3   195  PRO195      0.1402
     30  C         32.4240   81.7040  -67.1030 C.2   195  PRO195      0.2269
     31  O         32.1980   80.5490  -66.7510 O.2   195  PRO195     -0.2865
     32  CB        31.2490   83.7020  -68.0320 C.3   195  PRO195      0.0296
     33  CG        31.0480   85.0710  -67.4850 C.3   195  PRO195      0.0237
     34  CD        31.8620   85.1450  -66.2250 C.3   195  PRO195      0.0939
     35  N         21.4980   83.7360  -83.0730 N.3   420  ILE420     -0.1245
     36  CA        22.7150   84.1380  -82.3790 C.3   420  ILE420      0.1561
     37  C         23.9080   83.3910  -82.9550 C.2   420  ILE420      0.2260
     38  O         23.8150   82.7800  -84.0200 O.2   420  ILE420     -0.2867
     39  CB        22.6430   83.8420  -80.8710 C.3   420  ILE420      0.0252
     40  CG1       22.3970   82.3510  -80.6360 C.3   420  ILE420      0.0019
     41  CG2       21.5670   84.6880  -80.2060 C.3   420  ILE420      0.0019
     42  CD1       22.4560   81.9450  -79.1840 C.3   420  ILE420      0.0001
     43  N         29.2150   85.3490  -80.5110 N.3   424  LYS424     -0.1231
     44  CA        28.6620   86.3640  -79.6200 C.3   424  LYS424      0.1693
     45  C         28.6200   85.9170  -78.1590 C.2   424  LYS424      0.2592
     46  O         28.8170   86.7240  -77.2540 O.2   424  LYS424     -0.2718
     47  CB        27.2620   86.7720  -80.0840 C.3   424  LYS424      0.0285
     48  CG        27.2290   87.5840  -81.3730 C.3   424  LYS424      0.0035
     49  CD        27.8830   88.9440  -81.1950 C.3   424  LYS424      0.0206
     50  CE        27.8440   89.7550  -82.4810 C.3   424  LYS424      0.1093
     51  NZ        28.6090   91.0310  -82.3600 N.3   424  LYS424     -0.1314
     52  N         28.3540   84.6350  -77.9310 N.am  425  CYS425     -0.1970
     53  CA        28.2580   84.1130  -76.5720 C.3   425  CYS425      0.1712
     54  C         29.6310   83.9340  -75.9410 C.2   425  CYS425      0.2296
     55  O         29.7800   84.0270  -74.7240 O.2   425  CYS425     -0.2864
     56  CB        27.5080   82.7790  -76.5530 C.3   425  CYS425      0.0983
     57  SG        25.7650   82.8760  -77.0070 S.3   425  CYS425     -0.0798
     58  N         32.1100   85.8140  -76.0650 N.3   427  SER427     -0.1202
     59  CA        32.6260   87.0780  -75.5470 C.3   427  SER427      0.2020
     60  C         32.4620   87.1760  -74.0320 C.2   427  SER427      0.2619
     61  O         32.9550   88.1100  -73.4030 O.2   427  SER427     -0.2717
     62  CB        31.9580   88.2650  -76.2440 C.3   427  SER427      0.2103
     63  OG        30.5500   88.1960  -76.1300 O.3   427  SER427     -0.2182
     64  N         31.7650   86.2030  -73.4550 N.am  428  CYS428     -0.1955
     65  CA        31.6640   86.0780  -72.0080 C.3   428  CYS428      0.1843
     66  C         31.9740   84.6490  -71.5830 C.2   428  CYS428      0.2625
     67  O         32.6910   84.4220  -70.6090 O.2   428  CYS428     -0.2714
     68  CB        30.2650   86.4650  -71.5220 C.3   428  CYS428      0.0997
     69  SG        29.9760   88.2340  -71.3420 S.3   428  CYS428     -0.0797
     70  N         31.4350   83.6880  -72.3280 N.am  429  HIS429     -0.1973
     71  CA        31.5450   82.2780  -71.9690 C.3   429  HIS429      0.1656
     72  C         32.7570   81.5730  -72.5700 C.2   429  HIS429      0.2291
     73  O         33.3040   80.6510  -71.9700 O.2   429  HIS429     -0.2864
     74  CB        30.2730   81.5310  -72.3700 C.3   429  HIS429      0.0771
     75  CG        29.1110   81.7920  -71.4650 C.ar  429  HIS429      0.0820
     76  ND1       29.1100   81.4310  -70.1350 N.ar  429  HIS429     -0.2267
     77  CD2       27.9120   82.3720  -71.6990 C.ar  429  HIS429      0.1154
     78  CE1       27.9600   81.7800  -69.5880 C.ar  429  HIS429      0.1986
     79  NE2       27.2150   82.3490  -70.5170 N.ar  429  HIS429     -0.2212
     80  N         31.2860   76.7880  -72.1980 N.3   434  LEU434     -0.1245
     81  CA        30.0830   76.6020  -71.3910 C.3   434  LEU434      0.1561
     82  C         29.4260   75.2550  -71.6910 C.2   434  LEU434      0.2260
     83  O         28.9000   75.0430  -72.7820 O.2   434  LEU434     -0.2867
     84  CB        29.0910   77.7480  -71.6150 C.3   434  LEU434      0.0270
     85  CG        27.7540   77.6480  -70.8740 C.3   434  LEU434      0.0019
     86  CD1       27.9600   77.4380  -69.3870 C.3   434  LEU434      0.0001
     87  CD2       26.9170   78.8840  -71.1230 C.3   434  LEU434      0.0001
     88  N         26.5260   72.5330  -70.5300 N.3   436  ILE436     -0.1245
     89  CA        25.3530   72.1610  -69.7510 C.3   436  ILE436      0.1561
     90  C         25.0050   70.7050  -70.0210 C.2   436  ILE436      0.2260
     91  O         25.3280   70.1700  -71.0820 O.2   436  ILE436     -0.2867
     92  CB        24.1430   73.0430  -70.0840 C.3   436  ILE436      0.0252
     93  CG1       24.5670   74.5080  -70.1910 C.3   436  ILE436      0.0019
     94  CG2       23.0570   72.8720  -69.0330 C.3   436  ILE436      0.0019
     95  CD1       25.1940   75.0570  -68.9290 C.3   436  ILE436      0.0001
     96  N         25.5810   76.3750  -79.1960 N.3   443  LEU443     -0.1245
     97  CA        24.5160   77.3450  -78.9760 C.3   443  LEU443      0.1561
     98  C         23.9230   77.8240  -80.2990 C.2   443  LEU443      0.2260
     99  O         22.8100   78.3440  -80.3360 O.2   443  LEU443     -0.2867
    100  CB        25.0370   78.5330  -78.1650 C.3   443  LEU443      0.0270
    101  CG        25.9270   78.1890  -76.9660 C.3   443  LEU443      0.0019
    102  CD1       26.3040   79.4450  -76.1930 C.3   443  LEU443      0.0001
    103  CD2       25.2460   77.1820  -76.0520 C.3   443  LEU443      0.0001
    104  N         14.2560   78.3250  -75.4720 N.3   471  PHE471     -0.1241
    105  CA        15.5960   78.8930  -75.4030 C.3   471  PHE471      0.1605
    106  C         15.5440   80.4030  -75.1820 C.2   471  PHE471      0.2264
    107  O         16.2000   80.9250  -74.2830 O.2   471  PHE471     -0.2867
    108  CB        16.4100   78.5460  -76.6530 C.3   471  PHE471      0.0534
    109  CG        17.8960   78.5390  -76.4230 C.ar  471  PHE471     -0.0203
    110  CD1       18.4450   77.7920  -75.3950 C.ar  471  PHE471     -0.0042
    111  CD2       18.7440   79.2670  -77.2390 C.ar  471  PHE471     -0.0042
    112  CE1       19.8120   77.7780  -75.1770 C.ar  471  PHE471     -0.0003
    113  CE2       20.1130   79.2550  -77.0280 C.ar  471  PHE471     -0.0003
    114  CZ        20.6470   78.5080  -75.9940 C.ar  471  PHE471     -0.0000
    115  N         14.2750   81.0090  -71.5730 N.3   474  LEU474     -0.1231
    116  CA        15.2840   80.5760  -70.6180 C.3   474  LEU474      0.1693
    117  C         16.4330   81.5730  -70.5570 C.2   474  LEU474      0.2591
    118  O         16.7580   82.0980  -69.4920 O.2   474  LEU474     -0.2718
    119  CB        15.8150   79.1920  -70.9990 C.3   474  LEU474      0.0284
    120  CG        16.8690   78.5840  -70.0730 C.3   474  LEU474      0.0019
    121  CD1       16.3360   78.4690  -68.6560 C.3   474  LEU474      0.0001
    122  CD2       17.3070   77.2260  -70.5920 C.3   474  LEU474      0.0001
    123  N         17.0320   81.8410  -71.7120 N.am  475  ILE475     -0.1980
    124  CA        18.2040   82.7030  -71.7940 C.3   475  ILE475      0.1595
    125  C         17.9340   84.0960  -71.2430 C.2   475  ILE475      0.2287
    126  O         18.5710   84.5180  -70.2790 O.2   475  ILE475     -0.2864
    127  CB        18.7200   82.8090  -73.2380 C.3   475  ILE475      0.0276
    128  CG1       19.2110   81.4430  -73.7160 C.3   475  ILE475      0.0022
    129  CG2       19.8310   83.8360  -73.3350 C.3   475  ILE475      0.0022
    130  CD1       20.2840   80.8510  -72.8370 C.3   475  ILE475      0.0001
    131  N         17.2000   83.9340  -67.3090 N.3   478  LEU478     -0.1231
    132  CA        18.2520   83.6450  -66.3350 C.3   478  LEU478      0.1693
    133  C         19.3530   84.7000  -66.3330 C.2   478  LEU478      0.2592
    134  O         19.8970   85.0260  -65.2830 O.2   478  LEU478     -0.2718
    135  CB        18.8290   82.2390  -66.5320 C.3   478  LEU478      0.0284
    136  CG        19.5510   81.9090  -67.8370 C.3   478  LEU478      0.0019
    137  CD1       21.0270   82.1980  -67.7050 C.3   478  LEU478      0.0001
    138  CD2       19.3370   80.4490  -68.1980 C.3   478  LEU478      0.0001
    139  N         19.6760   85.2370  -67.5050 N.am  479  HIS479     -0.1976
    140  CA        20.6520   86.3190  -67.5900 C.3   479  HIS479      0.1656
    141  C         20.0670   87.6170  -67.0460 C.2   479  HIS479      0.2291
    142  O         20.6660   88.6840  -67.1710 O.2   479  HIS479     -0.2864
    143  CB        21.1510   86.5080  -69.0240 C.3   479  HIS479      0.0771
    144  CG        22.1180   85.4550  -69.4690 C.ar  479  HIS479      0.0820
    145  ND1       22.5910   85.3760  -70.7600 N.ar  479  HIS479     -0.2267
    146  CD2       22.7060   84.4420  -68.7920 C.ar  479  HIS479      0.1154
    147  CE1       23.4230   84.3550  -70.8620 C.ar  479  HIS479      0.1986
    148  NE2       23.5090   83.7700  -69.6820 N.ar  479  HIS479     -0.2212
    149  N         17.6860   80.7570  -60.5350 N.3   486  PHE486     -0.1241
    150  CA        18.7680   81.6100  -61.0190 C.3   486  PHE486      0.1605
    151  C         18.7520   83.0080  -60.4080 C.2   486  PHE486      0.2264
    152  O         19.3280   83.9410  -60.9690 O.2   486  PHE486     -0.2867
    153  CB        18.7440   81.7020  -62.5470 C.3   486  PHE486      0.0534
    154  CG        19.4500   80.5690  -63.2310 C.ar  486  PHE486     -0.0203
    155  CD1       20.6340   80.7870  -63.9150 C.ar  486  PHE486     -0.0042
    156  CD2       18.9370   79.2830  -63.1820 C.ar  486  PHE486     -0.0042
    157  CE1       21.2900   79.7440  -64.5430 C.ar  486  PHE486     -0.0003
    158  CE2       19.5880   78.2370  -63.8060 C.ar  486  PHE486     -0.0003
    159  CZ        20.7670   78.4680  -64.4880 C.ar  486  PHE486     -0.0000
    160  N         22.1100   86.0390  -59.3860 N.3   489  LEU489     -0.1231
    161  CA        23.2250   85.7780  -60.2940 C.3   489  LEU489      0.1693
    162  C         23.6030   87.0280  -61.0830 C.2   489  LEU489      0.2592
    163  O         22.9290   87.4010  -62.0440 O.2   489  LEU489     -0.2718
    164  CB        22.9160   84.6110  -61.2370 C.3   489  LEU489      0.0284
    165  CG        23.1190   83.2230  -60.6220 C.3   489  LEU489      0.0019
    166  CD1       22.9990   82.1390  -61.6800 C.3   489  LEU489      0.0001
    167  CD2       24.4730   83.1400  -59.9270 C.3   489  LEU489      0.0001
    168  N         24.7020   87.6550  -60.6730 N.am  490  ASN490     -0.1960
    169  CA        25.1060   88.9640  -61.1800 C.3   490  ASN490      0.1819
    170  C         25.5600   88.9850  -62.6380 C.2   490  ASN490      0.2621
    171  O         26.5650   88.3720  -62.9960 O.2   490  ASN490     -0.2715
    172  CB        26.2020   89.5400  -60.2840 C.3   490  ASN490      0.1195
    173  CG        25.8580   89.4320  -58.8130 C.2   490  ASN490      0.2630
    174  OD1       25.8930   88.3450  -58.2370 O.2   490  ASN490     -0.2716
    175  ND2       25.5190   90.5600  -58.1970 N.am  490  ASN490     -0.0877
    176  N         24.8190   89.7140  -63.4660 N.am  491  TYR491     -0.1960
    177  CA        25.1150   89.8210  -64.8900 C.3   491  TYR491      0.1756
    178  C         25.8950   91.0990  -65.2010 C.2   491  TYR491      0.2461
    179  O         25.3830   92.2050  -65.0280 O.2   491  TYR491     -0.2730
    180  CB        23.8130   89.7760  -65.6900 C.3   491  TYR491      0.0574
    181  CG        23.9830   89.8290  -67.1910 C.ar  491  TYR491     -0.0198
    182  CD1       24.2840   88.6840  -67.9170 C.ar  491  TYR491     -0.0009
    183  CD2       23.8180   91.0190  -67.8850 C.ar  491  TYR491     -0.0009
    184  CE1       24.4290   88.7280  -69.2930 C.ar  491  TYR491      0.0417
    185  CE2       23.9600   91.0740  -69.2590 C.ar  491  TYR491      0.0417
    186  CZ        24.2670   89.9260  -69.9590 C.ar  491  TYR491      0.1957
    187  OH        24.4080   89.9790  -71.3280 O.3   491  TYR491     -0.2866
    188  N         27.1370   90.9410  -65.6840 N.am  492  PRO492     -0.2716
    189  CA        28.1190   92.0120  -65.9070 C.3   492  PRO492      0.1536
    190  C         27.6700   93.0920  -66.8900 C.2   492  PRO492      0.2599
    191  O         27.5250   94.2510  -66.5040 O.2   492  PRO492     -0.2715
    192  CB        29.3220   91.2640  -66.4920 C.3   492  PRO492      0.0310
    193  CG        29.1460   89.8550  -66.0670 C.3   492  PRO492      0.0237
    194  CD        27.6750   89.6210  -66.0470 C.3   492  PRO492      0.0939
    195  N         27.4690   92.7130  -68.1470 N.am  493  GLY493     -0.1955
    196  CA        27.1450   93.6680  -69.1940 C.3   493  GLY493      0.1869
    197  C         25.7900   94.3370  -69.0450 C.2   493  GLY493      0.2309
    198  O         25.1280   94.2020  -68.0160 O.2   493  GLY493     -0.2863
    199  N         25.3740   92.0620  -77.8990 N.3   500  GLN500     -0.1231
    200  CA        26.2180   91.0260  -77.3200 C.3   500  GLN500      0.1698
    201  C         25.8310   89.6420  -77.8220 C.2   500  GLN500      0.2592
    202  O         26.6600   88.9120  -78.3560 O.2   500  GLN500     -0.2718
    203  CB        26.1390   91.0690  -75.7960 C.3   500  GLN500      0.0381
    204  CG        26.7550   92.3140  -75.1900 C.3   500  GLN500      0.0905
    205  CD        26.4570   92.4470  -73.7130 C.2   500  GLN500      0.2608
    206  OE1       27.3450   92.7440  -72.9110 O.2   500  GLN500     -0.2717
    207  NE2       25.1970   92.2350  -73.3440 N.am  500  GLN500     -0.0878
    208  N         24.5630   89.2890  -77.6530 N.am  501  CYS501     -0.1970
    209  CA        24.0880   87.9700  -78.0380 C.3   501  CYS501      0.1712
    210  C         23.6470   87.8940  -79.5000 C.2   501  CYS501      0.2296
    211  O         24.0290   86.9730  -80.2210 O.2   501  CYS501     -0.2864
    212  CB        22.9480   87.5300  -77.1190 C.3   501  CYS501      0.0983
    213  SG        23.4190   87.3440  -75.3840 S.3   501  CYS501     -0.0798
@<TRIPOS>BOND
     1    38    37    2
     2    35    36    1
     3    37    36    1
     4    50    51    1
     5    50    49    1
     6    36    39    1
     7    48    49    1
     8    48    47    1
     9    39    40    1
    10    39    41    1
    11    40    42    1
    12    43    44    1
    13    99    98    2
    14    98    97    1
    15   211   210    2
    16    47    44    1
    17    44    45    1
    18   210   209    1
    19    96    97    1
    20    97   100    1
    21   202   201    2
    22   100   101    1
    23    45    52   am
    24    45    46    2
    25   209   208    1
    26   209   212    1
    27    52    53    1
    28   199   200    1
    29   201   208   am
    30   201   200    1
    31   200   203    1
    32   111   113   ar
    33   111   109   ar
    34   212   213    1
    35   113   114   ar
    36    57    56    1
    37   101   102    1
    38   101   103    1
    39   108   109    1
    40   108   105    1
    41    53    56    1
    42    53    54    1
    43   109   110   ar
    44    62    63    1
    45    62    59    1
    46    58    59    1
    47   114   112   ar
    48    54    55    2
    49   203   204    1
    50    59    60    1
    51   104   105    1
    52   105   106    1
    53   110   112   ar
    54   204   205    1
    55   106   107    2
    56     6     5    1
    57    60    64   am
    58    60    61    2
    59     5     2    1
    60   128   127    1
    61   128   130    1
    62   205   207   am
    63   205   206    2
    64     2     1    1
    65     2     3    1
    66    64    65    1
    67   129   127    1
    68   127   124    1
    69     4     3    2
    70    83    82    2
    71     3     7   am
    72    72    73    2
    73    72    71    1
    74    74    71    1
    75    74    75    1
    76    70    71    1
    77    70    66   am
    78    80    81    1
    79    65    66    1
    80    65    68    1
    81   124   123    1
    82   124   125    1
    83   123   117   am
    84    77    75   ar
    85    77    79   ar
    86    82    81    1
    87    84    81    1
    88    84    85    1
    89    66    67    2
    90   115   116    1
    91    68    69    1
    92    75    76   ar
    93     7     8    1
    94   187   186    1
    95   125   126    2
    96    87    85    1
    97    91    90    2
    98   119   116    1
    99   119   120    1
   100    85    86    1
   101   147   145   ar
   102   147   148   ar
   103   145   144   ar
   104   116   117    1
   105   122   120    1
   106   117   118    2
   107    88    89    1
   108    79    78   ar
   109     8     9    1
   110     8    11    1
   111    93    92    1
   112    93    95    1
   113    76    78   ar
   114    92    89    1
   115    92    94    1
   116   120   121    1
   117    90    89    1
   118    12    11    1
   119   186   184   ar
   120   186   185   ar
   121     9    10    2
   122   148   146   ar
   123   144   143    1
   124   144   146   ar
   125   184   182   ar
   126   185   183   ar
   127   196   197    1
   128   196   195    1
   129   197   198    2
   130   143   140    1
   131   138   136    1
   132   195   190   am
   133    32    33    1
   134    32    29    1
   135   182   181   ar
   136   183   181   ar
   137   136   137    1
   138   136   135    1
   139   140   139    1
   140   140   141    1
   141   139   133   am
   142    33    34    1
   143   131   132    1
   144   181   180    1
   145   142   141    2
   146    30    29    1
   147    30    31    2
   148   190   191    2
   149   190   189    1
   150    29    28    1
   151   135   132    1
   152   192   193    1
   153   192   189    1
   154   132   133    1
   155   133   134    2
   156    26    27   ar
   157    26    24   ar
   158    27    25   ar
   159    34    28    1
   160   193   194    1
   161   194   188    1
   162   189   188    1
   163    28    19   am
   164   180   177    1
   165   188   178   am
   166    24    22   ar
   167    25    23   ar
   168   178   179    2
   169   178   177    1
   170   177   176    1
   171    19    20    2
   172    19    18    1
   173   157   159   ar
   174   157   155   ar
   175   159   158   ar
   176    22    23   ar
   177    22    21    1
   178   155   154   ar
   179   158   156   ar
   180    18    21    1
   181    18    17    1
   182   176   170   am
   183   154   156   ar
   184   154   153    1
   185    16    15    2
   186   171   170    2
   187   170   169    1
   188   153   150    1
   189    17    15   am
   190    15    14    1
   191   163   162    2
   192   166   165    1
   193   164   165    1
   194   164   161    1
   195   169   168    1
   196   169   172    1
   197   162   168   am
   198   162   161    1
   199   150   149    1
   200   150   151    1
   201   152   151    2
   202    14    13    1
   203   165   167    1
   204   161   160    1
   205   172   173    1
   206   173   174    2
   207   173   175   am
