@<TRIPOS>MOLECULE
tmp/3pmqA04.pdb
 151 147 0 0 0
SMALL
GASTEIGER

@<TRIPOS>ATOM
      1  N         55.5170   86.7150  -60.2410 N.3   221  PRO221     -0.2102
      2  CA        54.7990   86.0650  -59.1420 C.3   221  PRO221      0.1504
      3  C         54.8850   86.9020  -57.8720 C.2   221  PRO221      0.2576
      4  O         55.9720   87.3580  -57.5260 O.2   221  PRO221     -0.2718
      5  CB        55.5690   84.7540  -58.9490 C.3   221  PRO221      0.0282
      6  CG        56.2570   84.5190  -60.2460 C.3   221  PRO221      0.0208
      7  CD        56.6110   85.8780  -60.7570 C.3   221  PRO221      0.0893
      8  N         53.7590   87.0970  -57.1910 N.am  222  THR222     -0.1939
      9  CA        53.7220   87.8830  -55.9590 C.3   222  THR222      0.2028
     10  C         52.6290   87.3630  -55.0270 C.2   222  THR222      0.2642
     11  O         51.5850   86.9090  -55.4900 O.2   222  THR222     -0.2714
     12  CB        53.4410   89.3730  -56.2490 C.3   222  THR222      0.1808
     13  OG1       52.0980   89.5270  -56.7180 O.3   222  THR222     -0.2208
     14  CG2       54.3920   89.9150  -57.3020 C.3   222  THR222      0.0379
     15  N         52.8630   87.4310  -53.7190 N.am  223  MET223     -0.1976
     16  CA        51.8550   87.0050  -52.7510 C.3   223  MET223      0.1605
     17  C         50.5010   87.6100  -53.0840 C.2   223  MET223      0.2287
     18  O         49.5620   86.9050  -53.4540 O.2   223  MET223     -0.2864
     19  CB        52.2330   87.4510  -51.3380 C.3   223  MET223      0.0413
     20  CG        53.2080   86.5590  -50.6000 C.3   223  MET223      0.0598
     21  SD        53.4200   87.1330  -48.9050 S.3   223  MET223     -0.1393
     22  CE        51.7510   86.9670  -48.2800 C.3   223  MET223      0.0692
     23  N         48.8180   86.5350  -56.6100 N.3   226  CYS226     -0.1235
     24  CA        48.5180   85.1160  -56.7510 C.3   226  CYS226      0.1677
     25  C         47.5880   84.6280  -55.6450 C.2   226  CYS226      0.2270
     26  O         46.7330   83.7710  -55.8740 O.2   226  CYS226     -0.2867
     27  CB        49.8090   84.3030  -56.7410 C.3   226  CYS226      0.0956
     28  SG        51.0620   84.9360  -57.8600 S.3   226  CYS226     -0.0801
     29  N         44.2610   82.0430  -55.0130 N.3   230  HIS230     -0.1241
     30  CA        44.7180   80.9850  -54.1200 C.3   230  HIS230      0.1621
     31  C         44.5790   81.4240  -52.6660 C.2   230  HIS230      0.2264
     32  O         45.5270   81.9150  -52.0530 O.2   230  HIS230     -0.2867
     33  CB        46.1610   80.6030  -54.4500 C.3   230  HIS230      0.0745
     34  CG        46.3640   80.2120  -55.8820 C.ar  230  HIS230      0.0817
     35  ND1       46.2430   78.9120  -56.3260 N.ar  230  HIS230     -0.2268
     36  CD2       46.6620   80.9540  -56.9750 C.ar  230  HIS230      0.1154
     37  CE1       46.4660   78.8690  -57.6270 C.ar  230  HIS230      0.1986
     38  NE2       46.7220   80.0950  -58.0460 N.ar  230  HIS230     -0.2212
     39  N         45.7780   79.5300  -48.9630 N.3   233  ILE233     -0.1245
     40  CA        47.2050   79.6140  -48.6760 C.3   233  ILE233      0.1561
     41  C         47.5940   80.8650  -47.8890 C.2   233  ILE233      0.2260
     42  O         47.4240   81.9850  -48.3690 O.2   233  ILE233     -0.2867
     43  CB        48.0250   79.5630  -49.9760 C.3   233  ILE233      0.0252
     44  CG1       47.9000   78.1790  -50.6130 C.3   233  ILE233      0.0019
     45  CG2       49.4820   79.9100  -49.7090 C.3   233  ILE233      0.0019
     46  CD1       48.5910   78.0590  -51.9320 C.3   233  ILE233      0.0001
     47  N         50.8040   82.5290  -46.7450 N.3   235  PHE235     -0.1241
     48  CA        52.2170   82.3810  -47.0700 C.3   235  PHE235      0.1605
     49  C         53.1610   82.5060  -45.8720 C.2   235  PHE235      0.2264
     50  O         53.8990   81.5690  -45.5610 O.2   235  PHE235     -0.2867
     51  CB        52.6170   83.3150  -48.2190 C.3   235  PHE235      0.0534
     52  CG        52.1480   82.8400  -49.5610 C.ar  235  PHE235     -0.0203
     53  CD1       52.8900   81.9200  -50.2770 C.ar  235  PHE235     -0.0042
     54  CD2       50.9540   83.2900  -50.0950 C.ar  235  PHE235     -0.0042
     55  CE1       52.4570   81.4660  -51.5060 C.ar  235  PHE235     -0.0003
     56  CE2       50.5150   82.8410  -51.3260 C.ar  235  PHE235     -0.0003
     57  CZ        51.2670   81.9280  -52.0320 C.ar  235  PHE235     -0.0000
     58  N         49.5980   75.5760  -46.2100 N.3   240  GLY240     -0.1210
     59  CA        49.2870   75.1410  -47.5630 C.3   240  GLY240      0.1956
     60  C         50.3680   75.3920  -48.5990 C.2   240  GLY240      0.2612
     61  O         50.1720   75.1380  -49.7860 O.2   240  GLY240     -0.2717
     62  N         51.5140   75.8830  -48.1410 N.am  241  HIS241     -0.1962
     63  CA        52.6290   76.2440  -49.0100 C.3   241  HIS241      0.1772
     64  C         53.7950   76.5970  -48.0920 C.2   241  HIS241      0.2462
     65  O         53.5790   77.0410  -46.9660 O.2   241  HIS241     -0.2730
     66  CB        52.2390   77.4390  -49.8920 C.3   241  HIS241      0.0785
     67  CG        53.3090   77.8890  -50.8430 C.ar  241  HIS241      0.0821
     68  ND1       54.3510   78.7080  -50.4630 N.ar  241  HIS241     -0.2267
     69  CD2       53.4740   77.6630  -52.1680 C.ar  241  HIS241      0.1154
     70  CE1       55.1220   78.9520  -51.5090 C.ar  241  HIS241      0.1986
     71  NE2       54.6110   78.3310  -52.5560 N.ar  241  HIS241     -0.2212
     72  N         55.0340   76.3780  -48.5550 N.am  242  PRO242     -0.2727
     73  CA        56.1960   76.7270  -47.7340 C.3   242  PRO242      0.1402
     74  C         56.1690   78.1960  -47.3180 C.2   242  PRO242      0.2269
     75  O         55.9270   79.0670  -48.1520 O.2   242  PRO242     -0.2865
     76  CB        57.3710   76.4640  -48.6740 C.3   242  PRO242      0.0296
     77  CG        56.8780   75.3960  -49.5780 C.3   242  PRO242      0.0237
     78  CD        55.4230   75.6960  -49.8000 C.3   242  PRO242      0.0939
     79  N         56.6060   81.9950  -46.5010 N.3   244  GLN244     -0.1245
     80  CA        57.2820   83.0690  -47.2190 C.3   244  GLN244      0.1566
     81  C         56.8240   84.4280  -46.6920 C.2   244  GLN244      0.2260
     82  O         55.6510   84.7780  -46.8020 O.2   244  GLN244     -0.2867
     83  CB        56.9830   82.9720  -48.7130 C.3   244  GLN244      0.0367
     84  CG        57.4050   81.6610  -49.3530 C.3   244  GLN244      0.0905
     85  CD        58.8210   81.6950  -49.8820 C.2   244  GLN244      0.2608
     86  OE1       59.1020   82.3410  -50.8910 O.2   244  GLN244     -0.2717
     87  NE2       59.7230   81.0000  -49.2050 N.am  244  GLN244     -0.0878
     88  N         58.0680   87.4190  -47.6640 N.3   246  ASP246     -0.1239
     89  CA        58.0890   88.3870  -48.7450 C.3   246  ASP246      0.1674
     90  C         57.7960   87.6730  -50.0450 C.2   246  ASP246      0.2266
     91  O         57.3630   86.5210  -50.0480 O.2   246  ASP246     -0.2867
     92  CB        59.4690   89.0370  -48.8200 C.3   246  ASP246      0.1410
     93  CG        59.9310   89.5530  -47.4810 C.2   246  ASP246      0.3668
     94  OD1       61.1550   89.6080  -47.2460 O.co2 246  ASP246     -0.2456
     95  OD2       59.0590   89.9000  -46.6590 O.co2 246  ASP246     -0.2456
     96  N         61.6410   85.4970  -53.2470 N.3   249  ASN249     -0.1225
     97  CA        62.0480   84.2030  -53.7890 C.3   249  ASN249      0.1785
     98  C         61.0140   83.5530  -54.7040 C.2   249  ASN249      0.2597
     99  O         61.2760   82.5070  -55.2980 O.2   249  ASN249     -0.2718
    100  CB        62.4140   83.2370  -52.6640 C.3   249  ASN249      0.1169
    101  CG        63.5340   83.7550  -51.8030 C.2   249  ASN249      0.2627
    102  OD1       63.5770   83.5010  -50.6010 O.2   249  ASN249     -0.2716
    103  ND2       64.4470   84.5010  -52.4110 N.am  249  ASN249     -0.0877
    104  N         59.8420   84.1710  -54.8110 N.am  250  CYS250     -0.1970
    105  CA        58.7710   83.6370  -55.6430 C.3   250  CYS250      0.1712
    106  C         59.2800   83.1330  -56.9860 C.2   250  CYS250      0.2296
    107  O         59.0830   81.9700  -57.3360 O.2   250  CYS250     -0.2864
    108  CB        57.6990   84.7010  -55.8830 C.3   250  CYS250      0.0983
    109  SG        56.5290   84.9060  -54.5390 S.3   250  CYS250     -0.0798
    110  N         62.2720   82.5330  -58.3490 N.3   252  ALA252     -0.1231
    111  CA        63.3070   81.5090  -58.4200 C.3   252  ALA252      0.1694
    112  C         62.6770   80.1440  -58.6450 C.2   252  ALA252      0.2592
    113  O         63.1600   79.3520  -59.4520 O.2   252  ALA252     -0.2718
    114  CB        64.1330   81.5070  -57.1540 C.3   252  ALA252      0.0304
    115  N         61.5920   79.8790  -57.9260 N.am  253  CYS253     -0.1956
    116  CA        60.8330   78.6500  -58.1050 C.3   253  CYS253      0.1843
    117  C         59.8150   78.7820  -59.2360 C.2   253  CYS253      0.2625
    118  O         59.8000   77.9780  -60.1660 O.2   253  CYS253     -0.2714
    119  CB        60.1280   78.2580  -56.8050 C.3   253  CYS253      0.0997
    120  SG        61.2420   77.8020  -55.4550 S.3   253  CYS253     -0.0797
    121  N         58.9640   79.7980  -59.1530 N.am  254  HIS254     -0.1973
    122  CA        57.9270   80.0010  -60.1620 C.3   254  HIS254      0.1656
    123  C         58.4400   80.7460  -61.3950 C.2   254  HIS254      0.2291
    124  O         58.2320   81.9500  -61.5410 O.2   254  HIS254     -0.2864
    125  CB        56.7050   80.7130  -59.5650 C.3   254  HIS254      0.0771
    126  CG        56.0100   79.9300  -58.4920 C.ar  254  HIS254      0.0820
    127  ND1       55.0030   79.0270  -58.7610 N.ar  254  HIS254     -0.2267
    128  CD2       56.1750   79.9170  -57.1470 C.ar  254  HIS254      0.1154
    129  CE1       54.5810   78.4890  -57.6300 C.ar  254  HIS254      0.1986
    130  NE2       55.2750   79.0130  -56.6360 N.ar  254  HIS254     -0.2212
    131  N         56.4540   77.9060  -66.1430 N.3   258  TRP258     -0.1241
    132  CA        55.6860   77.1190  -65.1850 C.3   258  TRP258      0.1605
    133  C         54.3210   77.7350  -64.9090 C.2   258  TRP258      0.2264
    134  O         53.2900   77.0750  -65.0560 O.2   258  TRP258     -0.2867
    135  CB        56.4540   76.9470  -63.8710 C.3   258  TRP258      0.0550
    136  CG        55.7160   76.1040  -62.8670 C.ar  258  TRP258      0.0003
    137  CD1       54.6500   75.2850  -63.1090 C.ar  258  TRP258      0.0946
    138  CD2       55.9850   76.0060  -61.4620 C.ar  258  TRP258      0.0152
    139  NE1       54.2410   74.6830  -61.9450 N.ar  258  TRP258     -0.2442
    140  CE2       55.0430   75.1090  -60.9200 C.ar  258  TRP258      0.0810
    141  CE3       56.9280   76.5890  -60.6120 C.ar  258  TRP258      0.0012
    142  CZ2       55.0190   74.7800  -59.5650 C.ar  258  TRP258      0.0191
    143  CZ3       56.9010   76.2610  -59.2660 C.ar  258  TRP258      0.0001
    144  CH2       55.9540   75.3650  -58.7570 C.ar  258  TRP258      0.0015
    145  N         50.6820   76.0370  -65.9870 N.3   262  VAL262     -0.1245
    146  CA        49.7490   75.5210  -64.9860 C.3   262  VAL262      0.1561
    147  C         48.3230   76.0180  -65.1930 C.2   262  VAL262      0.2260
    148  O         47.3660   75.3580  -64.7900 O.2   262  VAL262     -0.2867
    149  CB        50.1890   75.8710  -63.5480 C.3   262  VAL262      0.0252
    150  CG1       51.3600   75.0120  -63.1260 C.3   262  VAL262      0.0019
    151  CG2       50.5350   77.3410  -63.4440 C.3   262  VAL262      0.0019
@<TRIPOS>BOND
     1   131   132    1
     2   145   146    1
     3   147   146    1
     4   147   148    2
     5   132   133    1
     6   132   135    1
     7   134   133    2
     8   146   149    1
     9   135   136    1
    10   149   151    1
    11   149   150    1
    12   137   136   ar
    13   137   139   ar
    14   136   138   ar
    15   139   140   ar
    16   124   123    2
    17   138   140   ar
    18   138   141   ar
    19   123   122    1
    20   140   142   ar
    21     7     6    1
    22     7     1    1
    23   141   143   ar
    24     6     5    1
    25     1     2    1
    26   118   117    2
    27   122   125    1
    28   122   121    1
    29   125   126    1
    30   142   144   ar
    31   113   112    2
    32   143   144   ar
    33   117   121   am
    34   117   116    1
    35     2     5    1
    36     2     3    1
    37   127   126   ar
    38   127   129   ar
    39   112   111    1
    40   112   115   am
    41   126   128   ar
    42   111   110    1
    43   111   114    1
    44   116   115    1
    45   116   119    1
    46    38    37   ar
    47    38    36   ar
    48     3     4    2
    49     3     8   am
    50    28    27    1
    51   129   130   ar
    52    37    35   ar
    53   107   106    2
    54    14    12    1
    55     8     9    1
    56   128   130   ar
    57   106   105    1
    58    36    34   ar
    59   119   120    1
    60    24    27    1
    61    24    23    1
    62    24    25    1
    63    13    12    1
    64    35    34   ar
    65    12     9    1
    66     9    10    1
    67   108   105    1
    68   108   109    1
    69    34    33    1
    70    26    25    2
    71   105   104    1
    72    11    10    2
    73    99    98    2
    74    10    15   am
    75    29    30    1
    76   104    98   am
    77    98    97    1
    78    33    30    1
    79    30    31    1
    80    97    96    1
    81    97   100    1
    82    15    16    1
    83    18    17    2
    84    17    16    1
    85    16    19    1
    86    31    32    2
    87   100   101    1
    88    71    69   ar
    89    71    70   ar
    90   103   101   am
    91    69    67   ar
    92    57    55   ar
    93    57    56   ar
    94    46    44    1
    95   101   102    2
    96    70    68   ar
    97    55    53   ar
    98    19    20    1
    99    56    54   ar
   100    86    85    2
   101    67    68   ar
   102    67    66    1
   103    44    43    1
   104    20    21    1
   105    53    52   ar
   106    54    52   ar
   107    91    90    2
   108    90    89    1
   109    43    45    1
   110    43    40    1
   111    66    63    1
   112    85    84    1
   113    85    87   am
   114    78    77    1
   115    78    72    1
   116    61    60    2
   117    77    76    1
   118    52    51    1
   119    84    83    1
   120    63    62    1
   121    63    64    1
   122    39    40    1
   123    21    22    1
   124    92    89    1
   125    92    93    1
   126    89    88    1
   127    83    80    1
   128    40    41    1
   129    76    73    1
   130    60    62   am
   131    60    59    1
   132    72    64   am
   133    72    73    1
   134    42    41    2
   135    51    48    1
   136    75    74    2
   137    64    65    2
   138    73    74    1
   139    59    58    1
   140    93    94   ar
   141    93    95   ar
   142    80    81    1
   143    80    79    1
   144    48    47    1
   145    48    49    1
   146    82    81    2
   147    49    50    2
