@<TRIPOS>MOLECULE
tmp/3pmqA00.pdb
 193 185 0 0 0
SMALL
GASTEIGER

@<TRIPOS>ATOM
      1  N         46.9100   96.1560  -68.4210 N.3   141  VAL141     -0.1245
      2  CA        45.7420   95.7880  -69.2110 C.3   141  VAL141      0.1561
      3  C         44.7490   96.9210  -69.4850 C.2   141  VAL141      0.2260
      4  O         44.3930   97.6940  -68.5950 O.2   141  VAL141     -0.2867
      5  CB        45.0110   94.5990  -68.5760 C.3   141  VAL141      0.0252
      6  CG1       44.3190   95.0270  -67.3010 C.3   141  VAL141      0.0019
      7  CG2       44.0200   94.0150  -69.5590 C.3   141  VAL141      0.0019
      8  N         41.0280   98.5670  -70.7750 N.3   143  ILE143     -0.1245
      9  CA        39.6680   98.3380  -70.3030 C.3   143  ILE143      0.1561
     10  C         38.7590   97.6660  -71.3290 C.2   143  ILE143      0.2260
     11  O         37.7470   97.0720  -70.9650 O.2   143  ILE143     -0.2867
     12  CB        39.0020   99.6510  -69.8590 C.3   143  ILE143      0.0252
     13  CG1       37.7020   99.3610  -69.1110 C.3   143  ILE143      0.0019
     14  CG2       38.7380  100.5380  -71.0600 C.3   143  ILE143      0.0019
     15  CD1       36.8770  100.5920  -68.8310 C.3   143  ILE143      0.0001
     16  N         39.0700   94.9950  -73.2900 N.3   145  THR145     -0.1203
     17  CA        38.9360   93.5540  -73.1210 C.3   145  THR145      0.1994
     18  C         38.0610   93.2550  -71.9070 C.2   145  THR145      0.2618
     19  O         37.4100   92.2150  -71.8430 O.2   145  THR145     -0.2717
     20  CB        40.3010   92.8520  -72.9720 C.3   145  THR145      0.1784
     21  OG1       40.8920   93.2060  -71.7170 O.3   145  THR145     -0.2211
     22  CG2       41.2330   93.2480  -74.1080 C.3   145  THR145      0.0376
     23  N         38.0490   94.1730  -70.9460 N.am  146  CYS146     -0.1969
     24  CA        37.1290   94.0790  -69.8200 C.3   146  CYS146      0.1712
     25  C         35.7070   94.2370  -70.3300 C.2   146  CYS146      0.2296
     26  O         34.7960   93.5280  -69.9070 O.2   146  CYS146     -0.2864
     27  CB        37.3970   95.1850  -68.7970 C.3   146  CYS146      0.0983
     28  SG        39.1140   95.4180  -68.3350 S.3   146  CYS146     -0.0798
     29  N         34.2860   93.3980  -72.8970 N.3   148  SER148     -0.1202
     30  CA        33.6860   92.2640  -73.5790 C.3   148  SER148      0.2020
     31  C         32.5640   91.6790  -72.7260 C.2   148  SER148      0.2619
     32  O         31.4920   91.3540  -73.2340 O.2   148  SER148     -0.2717
     33  CB        34.7360   91.2070  -73.8990 C.3   148  SER148      0.2103
     34  OG        35.6630   91.7050  -74.8460 O.3   148  SER148     -0.2182
     35  N         32.8110   91.5680  -71.4250 N.am  149  CYS149     -0.1955
     36  CA        31.8090   91.0530  -70.4970 C.3   149  CYS149      0.1843
     37  C         30.9840   92.1710  -69.8490 C.2   149  CYS149      0.2625
     38  O         29.9380   91.9120  -69.2510 O.2   149  CYS149     -0.2714
     39  CB        32.4700   90.1970  -69.4110 C.3   149  CYS149      0.0997
     40  SG        33.4420   88.7990  -70.0180 S.3   149  CYS149     -0.0797
     41  N         31.4550   93.4100  -69.9690 N.am  150  HIS150     -0.1973
     42  CA        30.8060   94.5400  -69.3080 C.3   150  HIS150      0.1656
     43  C         30.2180   95.5490  -70.2990 C.2   150  HIS150      0.2291
     44  O         29.4060   96.3960  -69.9220 O.2   150  HIS150     -0.2864
     45  CB        31.7900   95.2470  -68.3670 C.3   150  HIS150      0.0771
     46  CG        32.1860   94.4360  -67.1700 C.ar  150  HIS150      0.0820
     47  ND1       31.3570   94.2560  -66.0840 N.ar  150  HIS150     -0.2267
     48  CD2       33.3350   93.7810  -66.8780 C.ar  150  HIS150      0.1154
     49  CE1       31.9720   93.5140  -65.1800 C.ar  150  HIS150      0.1986
     50  NE2       33.1750   93.2120  -65.6360 N.ar  150  HIS150     -0.2212
     51  N         32.2260  100.1810  -68.7930 N.3   153  LEU153     -0.1245
     52  CA        32.6270  100.0450  -67.4030 C.3   153  LEU153      0.1561
     53  C         32.8450  101.4150  -66.7720 C.2   153  LEU153      0.2260
     54  O         33.5480  102.2610  -67.3230 O.2   153  LEU153     -0.2867
     55  CB        33.8840   99.1810  -67.2980 C.3   153  LEU153      0.0270
     56  CG        34.3100   98.7400  -65.8970 C.3   153  LEU153      0.0019
     57  CD1       33.3100   97.7600  -65.3030 C.3   153  LEU153      0.0001
     58  CD2       35.6970   98.1290  -65.9440 C.3   153  LEU153      0.0001
     59  N         32.7270  102.6190  -62.5870 N.3   155  PHE155     -0.1241
     60  CA        32.4190  102.4740  -61.1680 C.3   155  PHE155      0.1605
     61  C         32.2400  103.8170  -60.4580 C.2   155  PHE155      0.2264
     62  O         32.5480  104.8720  -61.0130 O.2   155  PHE155     -0.2867
     63  CB        33.5230  101.6740  -60.4790 C.3   155  PHE155      0.0534
     64  CG        33.0320  100.8130  -59.3590 C.ar  155  PHE155     -0.0203
     65  CD1       33.1250  101.2390  -58.0440 C.ar  155  PHE155     -0.0042
     66  CD2       32.4700   99.5770  -59.6240 C.ar  155  PHE155     -0.0042
     67  CE1       32.6690  100.4420  -57.0130 C.ar  155  PHE155     -0.0003
     68  CE2       32.0120   98.7770  -58.5990 C.ar  155  PHE155     -0.0003
     69  CZ        32.1110   99.2090  -57.2920 C.ar  155  PHE155     -0.0000
     70  N         42.3080  103.0570  -63.0970 N.3   166  CYS166     -0.1235
     71  CA        41.9650  103.1570  -61.6870 C.3   166  CYS166      0.1677
     72  C         43.1650  102.8100  -60.8050 C.2   166  CYS166      0.2270
     73  O         43.0830  102.8630  -59.5750 O.2   166  CYS166     -0.2867
     74  CB        40.7940  102.2230  -61.3870 C.3   166  CYS166      0.0956
     75  SG        40.0090  101.5920  -62.8960 S.3   166  CYS166     -0.0801
     76  N         44.5640   97.2370  -57.2130 N.3   182  PHE182     -0.1241
     77  CA        43.9190   96.7430  -58.4310 C.3   182  PHE182      0.1605
     78  C         44.0650   95.2400  -58.7020 C.2   182  PHE182      0.2264
     79  O         43.0600   94.5350  -58.8070 O.2   182  PHE182     -0.2867
     80  CB        44.3220   97.5740  -59.6550 C.3   182  PHE182      0.0534
     81  CG        43.2460   97.6610  -60.6980 C.ar  182  PHE182     -0.0203
     82  CD1       43.4410   97.1430  -61.9660 C.ar  182  PHE182     -0.0042
     83  CD2       42.0270   98.2430  -60.3970 C.ar  182  PHE182     -0.0042
     84  CE1       42.4430   97.2180  -62.9200 C.ar  182  PHE182     -0.0003
     85  CE2       41.0260   98.3190  -61.3470 C.ar  182  PHE182     -0.0003
     86  CZ        41.2350   97.8060  -62.6090 C.ar  182  PHE182     -0.0000
     87  N         42.5790   93.2360  -55.9450 N.3   185  MET185     -0.1230
     88  CA        41.1340   93.4110  -55.8890 C.3   185  MET185      0.1702
     89  C         40.3860   92.6600  -56.9840 C.2   185  MET185      0.2592
     90  O         39.6620   91.7050  -56.7040 O.2   185  MET185     -0.2718
     91  CB        40.7790   94.9000  -55.9430 C.3   185  MET185      0.0401
     92  CG        39.2920   95.1900  -55.8190 C.3   185  MET185      0.0596
     93  SD        38.9210   96.9510  -55.8840 S.3   185  MET185     -0.1393
     94  CE        39.6350   97.3890  -57.4670 C.3   185  MET185      0.0692
     95  N         40.5600   93.0940  -58.2290 N.am  186  ILE186     -0.1980
     96  CA        39.7350   92.5880  -59.3240 C.3   186  ILE186      0.1595
     97  C         39.8550   91.0750  -59.5200 C.2   186  ILE186      0.2287
     98  O         38.9530   90.4450  -60.0740 O.2   186  ILE186     -0.2864
     99  CB        39.9860   93.3490  -60.6530 C.3   186  ILE186      0.0276
    100  CG1       41.3780   93.0480  -61.2040 C.3   186  ILE186      0.0022
    101  CG2       39.7800   94.8440  -60.4630 C.3   186  ILE186      0.0022
    102  CD1       41.4150   91.8450  -62.1080 C.3   186  ILE186      0.0001
    103  N         37.3960   89.7380  -56.9350 N.3   189  LYS189     -0.1231
    104  CA        36.0240   89.9690  -57.3710 C.3   189  LYS189      0.1693
    105  C         35.5730   88.9290  -58.3920 C.2   189  LYS189      0.2592
    106  O         34.4820   88.3720  -58.2810 O.2   189  LYS189     -0.2718
    107  CB        35.8600   91.3860  -57.9280 C.3   189  LYS189      0.0285
    108  CG        35.9820   92.4760  -56.8720 C.3   189  LYS189      0.0035
    109  CD        35.1450   92.1340  -55.6470 C.3   189  LYS189      0.0206
    110  CE        35.2470   93.2030  -54.5730 C.3   189  LYS189      0.1093
    111  NZ        34.5920   94.4600  -55.0060 N.3   189  LYS189     -0.1314
    112  N         36.4200   88.6660  -59.3820 N.am  190  HIS190     -0.1976
    113  CA        36.1080   87.6830  -60.4170 C.3   190  HIS190      0.1656
    114  C         36.3860   86.2460  -59.9770 C.2   190  HIS190      0.2291
    115  O         36.3370   85.3280  -60.7950 O.2   190  HIS190     -0.2864
    116  CB        36.8900   87.9810  -61.6980 C.3   190  HIS190      0.0771
    117  CG        36.5490   89.2950  -62.3260 C.ar  190  HIS190      0.0820
    118  ND1       36.7360   90.4990  -61.6820 N.ar  190  HIS190     -0.2267
    119  CD2       36.0400   89.5940  -63.5440 C.ar  190  HIS190      0.1154
    120  CE1       36.3540   91.4830  -62.4760 C.ar  190  HIS190      0.1986
    121  NE2       35.9280   90.9610  -63.6120 N.ar  190  HIS190     -0.2212
    122  N         34.6480   84.2660  -58.2720 N.3   192  THR192     -0.1203
    123  CA        33.4490   83.4550  -58.4620 C.3   192  THR192      0.1994
    124  C         32.3890   84.2600  -59.2110 C.2   192  THR192      0.2618
    125  O         32.3580   85.4870  -59.1320 O.2   192  THR192     -0.2717
    126  CB        32.8620   82.9700  -57.1220 C.3   192  THR192      0.1784
    127  OG1       32.1310   84.0350  -56.5030 O.3   192  THR192     -0.2211
    128  CG2       33.9670   82.4920  -56.1850 C.3   192  THR192      0.0376
    129  N         31.5170   83.5640  -59.9310 N.am  193  GLY193     -0.1942
    130  CA        30.5160   84.2190  -60.7520 C.3   193  GLY193      0.2014
    131  C         31.0210   84.4260  -62.1650 C.2   193  GLY193      0.2639
    132  O         30.2590   84.7400  -63.0780 O.2   193  GLY193     -0.2714
    133  N         32.3240   84.2460  -62.3370 N.am  194  PHE194     -0.1960
    134  CA        32.9580   84.3400  -63.6420 C.3   194  PHE194      0.1756
    135  C         32.3420   83.3060  -64.5810 C.2   194  PHE194      0.2461
    136  O         32.2250   82.1310  -64.2250 O.2   194  PHE194     -0.2730
    137  CB        34.4590   84.0800  -63.4900 C.3   194  PHE194      0.0574
    138  CG        35.3180   84.8310  -64.4680 C.ar  194  PHE194     -0.0200
    139  CD1       35.4220   86.2100  -64.4010 C.ar  194  PHE194     -0.0042
    140  CD2       36.0520   84.1540  -65.4300 C.ar  194  PHE194     -0.0042
    141  CE1       36.2250   86.9040  -65.2880 C.ar  194  PHE194     -0.0003
    142  CE2       36.8570   84.8410  -66.3200 C.ar  194  PHE194     -0.0003
    143  CZ        36.9460   86.2190  -66.2470 C.ar  194  PHE194     -0.0000
    144  N         31.9360   83.7400  -65.7850 N.am  195  PRO195     -0.2716
    145  CA        31.4210   82.8120  -66.7990 C.3   195  PRO195      0.1536
    146  C         32.4240   81.7040  -67.1030 C.2   195  PRO195      0.2598
    147  O         32.1980   80.5490  -66.7510 O.2   195  PRO195     -0.2715
    148  CB        31.2490   83.7020  -68.0320 C.3   195  PRO195      0.0310
    149  CG        31.0480   85.0710  -67.4850 C.3   195  PRO195      0.0237
    150  CD        31.8620   85.1450  -66.2250 C.3   195  PRO195      0.0939
    151  N         33.5280   82.0630  -67.7470 N.am  196  GLN196     -0.1978
    152  CA        34.5580   81.0950  -68.0960 C.3   196  GLN196      0.1601
    153  C         35.2600   80.5600  -66.8570 C.2   196  GLN196      0.2287
    154  O         34.9830   80.9870  -65.7360 O.2   196  GLN196     -0.2864
    155  CB        35.6050   81.7290  -69.0100 C.3   196  GLN196      0.0394
    156  CG        35.0530   82.4880  -70.1880 C.3   196  GLN196      0.0908
    157  CD        36.1540   83.0990  -71.0300 C.2   196  GLN196      0.2608
    158  OE1       37.3150   82.6970  -70.9350 O.2   196  GLN196     -0.2717
    159  NE2       35.7980   84.0790  -71.8540 N.am  196  GLN196     -0.0878
    160  N         41.7060   86.1640  -71.1440 N.3   203  THR203     -0.1203
    161  CA        40.3820   86.7710  -71.2050 C.3   203  THR203      0.1994
    162  C         40.4310   88.1840  -70.6160 C.2   203  THR203      0.2618
    163  O         39.6260   89.0460  -70.9680 O.2   203  THR203     -0.2717
    164  CB        39.3150   85.9160  -70.4890 C.3   203  THR203      0.1784
    165  OG1       38.0890   86.6520  -70.4010 O.3   203  THR203     -0.2211
    166  CG2       39.7680   85.5550  -69.0950 C.3   203  THR203      0.0376
    167  N         41.3880   88.4100  -69.7200 N.am  204  CYS204     -0.1969
    168  CA        41.6590   89.7400  -69.1870 C.3   204  CYS204      0.1712
    169  C         43.0670   90.1730  -69.5730 C.2   204  CYS204      0.2296
    170  O         43.2700   91.2620  -70.1050 O.2   204  CYS204     -0.2864
    171  CB        41.5190   89.7580  -67.6660 C.3   204  CYS204      0.0983
    172  SG        39.8350   89.6260  -67.0570 S.3   204  CYS204     -0.0798
    173  N         31.7650   86.2030  -73.4550 N.3   428  CYS428     -0.1235
    174  CA        31.6640   86.0780  -72.0080 C.3   428  CYS428      0.1677
    175  C         31.9740   84.6490  -71.5830 C.2   428  CYS428      0.2270
    176  O         32.6910   84.4220  -70.6090 O.2   428  CYS428     -0.2867
    177  CB        30.2650   86.4650  -71.5220 C.3   428  CYS428      0.0956
    178  SG        29.9760   88.2340  -71.3420 S.3   428  CYS428     -0.0801
    179  N         24.7020   87.6550  -60.6730 N.3   490  ASN490     -0.1240
    180  CA        25.1060   88.9640  -61.1800 C.3   490  ASN490      0.1653
    181  C         25.5600   88.9850  -62.6380 C.2   490  ASN490      0.2266
    182  O         26.5650   88.3720  -62.9960 O.2   490  ASN490     -0.2867
    183  CB        26.2020   89.5400  -60.2840 C.3   490  ASN490      0.1155
    184  CG        25.8580   89.4320  -58.8130 C.2   490  ASN490      0.2627
    185  OD1       25.8930   88.3450  -58.2370 O.2   490  ASN490     -0.2716
    186  ND2       25.5190   90.5600  -58.1970 N.am  490  ASN490     -0.0877
    187  N         27.1370   90.9410  -65.6840 N.3   492  PRO492     -0.2116
    188  CA        28.1190   92.0120  -65.9070 C.3   492  PRO492      0.1372
    189  C         27.6700   93.0920  -66.8900 C.2   492  PRO492      0.2244
    190  O         27.5250   94.2510  -66.5040 O.2   492  PRO492     -0.2868
    191  CB        29.3220   91.2640  -66.4920 C.3   492  PRO492      0.0268
    192  CG        29.1460   89.8550  -66.0670 C.3   492  PRO492      0.0207
    193  CD        27.6750   89.6210  -66.0470 C.3   492  PRO492      0.0892
@<TRIPOS>BOND
     1    34    33    1
     2    22    20    1
     3    33    30    1
     4    30    29    1
     5    30    31    1
     6   173   174    1
     7    16    17    1
     8    32    31    2
     9    17    20    1
    10    17    18    1
    11    20    21    1
    12    31    35   am
    13   174   175    1
    14   174   177    1
    15    18    19    2
    16    18    23   am
    17   159   157   am
    18   175   176    2
    19   177   178    1
    20    35    36    1
    21    10    11    2
    22    10     9    1
    23   161   160    1
    24   161   162    1
    25   161   164    1
    26    14    12    1
    27   157   158    2
    28   157   156    1
    29   163   162    2
    30    23    24    1
    31     8     9    1
    32   162   167   am
    33    36    37    1
    34    36    39    1
    35   164   165    1
    36   164   166    1
    37    25    26    2
    38    25    24    1
    39     9    12    1
    40    43    44    2
    41    43    42    1
    42   156   155    1
    43   170   169    2
    44    40    39    1
    45    41    37   am
    46    41    42    1
    47    12    13    1
    48    37    38    2
    49    24    27    1
    50   167   168    1
    51   169   168    1
    52     7     5    1
    53     3     2    1
    54     3     4    2
    55    42    45    1
    56     2     5    1
    57     2     1    1
    58   168   171    1
    59    13    15    1
    60   155   152    1
    61    27    28    1
    62    51    52    1
    63     5     6    1
    64    45    46    1
    65   152   151    1
    66   152   153    1
    67   148   149    1
    68   148   145    1
    69   151   146   am
    70   171   172    1
    71   149   150    1
    72    52    55    1
    73    52    53    1
    74    54    53    2
    75    55    56    1
    76    46    48   ar
    77    46    47   ar
    78   146   145    1
    79   146   147    2
    80   189   190    2
    81   189   188    1
    82    48    50   ar
    83   153   154    2
    84   145   144    1
    85   191   192    1
    86   191   188    1
    87   142   143   ar
    88   142   140   ar
    89   143   141   ar
    90   150   144    1
    91    47    49   ar
    92   192   193    1
    93   193   187    1
    94    58    56    1
    95   188   187    1
    96    56    57    1
    97   144   135   am
    98    50    49   ar
    99   140   138   ar
   100   141   139   ar
   101   135   136    2
   102   135   134    1
   103   138   139   ar
   104   138   137    1
   105   134   137    1
   106   134   133    1
   107   121   119   ar
   108   121   120   ar
   109   119   117   ar
   110    70    71    1
   111   132   131    2
   112   182   181    2
   113    84    86   ar
   114    84    82   ar
   115    75    74    1
   116   181   180    1
   117    86    85   ar
   118    59    60    1
   119   120   118   ar
   120   133   131   am
   121   117   116    1
   122   117   118   ar
   123   131   130    1
   124   102   100    1
   125    82    81   ar
   126   116   113    1
   127    71    74    1
   128    71    72    1
   129    85    83   ar
   130   100    99    1
   131   180   179    1
   132   180   183    1
   133    60    63    1
   134    60    61    1
   135    62    61    2
   136    72    73    2
   137   115   114    2
   138   130   129    1
   139    81    83   ar
   140    81    80    1
   141    99   101    1
   142    99    96    1
   143    63    64    1
   144   113   114    1
   145   113   112    1
   146   183   184    1
   147    98    97    2
   148   129   124   am
   149    80    77    1
   150    66    64   ar
   151    66    68   ar
   152    97    96    1
   153   112   105   am
   154    64    65   ar
   155    96    95    1
   156   124   125    2
   157   124   123    1
   158   184   185    2
   159   184   186   am
   160    79    78    2
   161    78    77    1
   162    68    69   ar
   163   123   122    1
   164   123   126    1
   165    77    76    1
   166   105   106    2
   167   105   104    1
   168    95    89   am
   169    65    67   ar
   170   107   104    1
   171   107   108    1
   172    94    93    1
   173   104   103    1
   174    69    67   ar
   175   126   127    1
   176   126   128    1
   177    89    90    2
   178    89    88    1
   179   108   109    1
   180    87    88    1
   181    91    88    1
   182    91    92    1
   183    93    92    1
   184   109   110    1
   185   111   110    1
