@<TRIPOS>MOLECULE
tmp/3pmqA03.pdb
 174 174 0 0 0
SMALL
GASTEIGER

@<TRIPOS>ATOM
      1  N         40.9630   90.4920  -59.0690 N.3   187  HIS187     -0.1241
      2  CA        41.0810   89.0370  -59.0510 C.3   187  HIS187      0.1621
      3  C         40.0480   88.4830  -58.0850 C.2   187  HIS187      0.2264
      4  O         39.2340   87.6350  -58.4470 O.2   187  HIS187     -0.2867
      5  CB        42.4830   88.5910  -58.6220 C.3   187  HIS187      0.0745
      6  CG        43.4980   88.6320  -59.7220 C.ar  187  HIS187      0.0817
      7  ND1       44.8360   88.3810  -59.5100 N.ar  187  HIS187     -0.2268
      8  CD2       43.3690   88.8930  -61.0440 C.ar  187  HIS187      0.1154
      9  CE1       45.4890   88.4890  -60.6540 C.ar  187  HIS187      0.1986
     10  NE2       44.6220   88.7970  -61.6010 N.ar  187  HIS187     -0.2212
     11  N         36.1770   79.6240  -67.0710 N.3   197  SER197     -0.1202
     12  CA        37.0510   79.1530  -66.0070 C.3   197  SER197      0.2020
     13  C         37.9980   80.2520  -65.5630 C.2   197  SER197      0.2619
     14  O         38.5450   80.9840  -66.3870 O.2   197  SER197     -0.2717
     15  CB        37.8770   77.9630  -66.4780 C.3   197  SER197      0.2103
     16  OG        39.0560   77.8560  -65.7020 O.3   197  SER197     -0.2182
     17  N         38.2050   80.3490  -64.2560 N.am  198  ILE198     -0.1965
     18  CA        39.0930   81.3580  -63.6980 C.3   198  ILE198      0.1727
     19  C         40.5010   81.2390  -64.2890 C.2   198  ILE198      0.2617
     20  O         41.1990   82.2340  -64.4470 O.2   198  ILE198     -0.2715
     21  CB        39.1680   81.2560  -62.1600 C.3   198  ILE198      0.0290
     22  CG1       37.7700   81.1130  -61.5470 C.3   198  ILE198      0.0022
     23  CG2       39.8430   82.4660  -61.5900 C.3   198  ILE198      0.0023
     24  CD1       37.2030   79.6920  -61.5610 C.3   198  ILE198      0.0001
     25  N         40.9100   80.0200  -64.6290 N.am  199  SER199     -0.1936
     26  CA        42.2710   79.7870  -65.1090 C.3   199  SER199      0.2055
     27  C         42.5110   80.3460  -66.5130 C.2   199  SER199      0.2643
     28  O         43.6200   80.2700  -67.0430 O.2   199  SER199     -0.2714
     29  CB        42.6160   78.2980  -65.0710 C.3   199  SER199      0.2130
     30  OG        42.2960   77.6790  -66.3050 O.3   199  SER199     -0.2179
     31  N         41.4650   80.8930  -67.1190 N.am  200  ASN200     -0.1957
     32  CA        41.6120   81.5850  -68.3900 C.3   200  ASN200      0.1819
     33  C         42.1630   82.9750  -68.1330 C.2   200  ASN200      0.2621
     34  O         41.4550   83.8430  -67.6310 O.2   200  ASN200     -0.2715
     35  CB        40.2700   81.6730  -69.1150 C.3   200  ASN200      0.1195
     36  CG        39.7750   80.3220  -69.5870 C.2   200  ASN200      0.2630
     37  OD1       40.2080   79.2820  -69.0910 O.2   200  ASN200     -0.2716
     38  ND2       38.8650   80.3310  -70.5550 N.am  200  ASN200     -0.0877
     39  N         43.4310   83.1840  -68.4600 N.am  201  CYS201     -0.1968
     40  CA        44.0880   84.4470  -68.1420 C.3   201  CYS201      0.1712
     41  C         43.9010   85.5020  -69.2300 C.2   201  CYS201      0.2296
     42  O         43.5060   86.6290  -68.9410 O.2   201  CYS201     -0.2864
     43  CB        45.5720   84.2130  -67.8550 C.3   201  CYS201      0.0983
     44  SG        45.8590   82.9850  -66.5620 S.3   201  CYS201     -0.0798
     45  N         51.6570   88.7020  -66.2040 N.3   217  TRP217     -0.1227
     46  CA        50.8160   87.8170  -65.3940 C.3   217  TRP217      0.1737
     47  C         51.5420   86.5230  -65.0120 C.2   217  TRP217      0.2595
     48  O         51.0850   85.7760  -64.1470 O.2   217  TRP217     -0.2718
     49  CB        49.4950   87.5020  -66.1090 C.3   217  TRP217      0.0564
     50  CG        49.6570   86.9450  -67.5020 C.ar  217  TRP217      0.0003
     51  CD1       49.9790   87.6410  -68.6360 C.ar  217  TRP217      0.0946
     52  CD2       49.4900   85.5800  -67.9060 C.ar  217  TRP217      0.0152
     53  NE1       50.0320   86.7900  -69.7160 N.ar  217  TRP217     -0.2442
     54  CE2       49.7330   85.5230  -69.2960 C.ar  217  TRP217      0.0810
     55  CE3       49.1600   84.4020  -67.2290 C.ar  217  TRP217      0.0012
     56  CZ2       49.6580   84.3330  -70.0150 C.ar  217  TRP217      0.0191
     57  CZ3       49.0870   83.2250  -67.9460 C.ar  217  TRP217      0.0001
     58  CH2       49.3340   83.1990  -69.3250 C.ar  217  TRP217      0.0015
     59  N         52.6750   86.2650  -65.6560 N.am  218  TYR218     -0.1976
     60  CA        53.4760   85.0900  -65.3410 C.3   218  TYR218      0.1639
     61  C         54.9580   85.4380  -65.2020 C.2   218  TYR218      0.2290
     62  O         55.7830   84.5740  -64.9150 O.2   218  TYR218     -0.2864
     63  CB        53.2630   83.9780  -66.3790 C.3   218  TYR218      0.0560
     64  CG        53.6350   84.3430  -67.8030 C.ar  218  TYR218     -0.0198
     65  CD1       54.9070   84.0860  -68.3020 C.ar  218  TYR218     -0.0009
     66  CD2       52.7080   84.9250  -68.6560 C.ar  218  TYR218     -0.0009
     67  CE1       55.2460   84.4160  -69.6120 C.ar  218  TYR218      0.0417
     68  CE2       53.0380   85.2590  -69.9620 C.ar  218  TYR218      0.0417
     69  CZ        54.3050   85.0060  -70.4340 C.ar  218  TYR218      0.1957
     70  OH        54.6140   85.3370  -71.7340 O.3   218  TYR218     -0.2866
     71  N         55.8950   87.9950  -63.1070 N.3   220  VAL220     -0.1231
     72  CA        56.0520   88.5520  -61.7680 C.3   220  VAL220      0.1678
     73  C         55.1510   87.9200  -60.6990 C.2   220  VAL220      0.2434
     74  O         54.1550   88.5160  -60.2770 O.2   220  VAL220     -0.2733
     75  CB        55.8450   90.0800  -61.7790 C.3   220  VAL220      0.0265
     76  CG1       56.9500   90.7530  -62.5760 C.3   220  VAL220      0.0020
     77  CG2       54.4920   90.4250  -62.3620 C.3   220  VAL220      0.0020
     78  N         55.5170   86.7150  -60.2410 N.am  221  PRO221     -0.2729
     79  CA        54.7990   86.0650  -59.1420 C.3   221  PRO221      0.1401
     80  C         54.8850   86.9020  -57.8720 C.2   221  PRO221      0.2269
     81  O         55.9720   87.3580  -57.5260 O.2   221  PRO221     -0.2865
     82  CB        55.5690   84.7540  -58.9490 C.3   221  PRO221      0.0296
     83  CG        56.2570   84.5190  -60.2460 C.3   221  PRO221      0.0237
     84  CD        56.6110   85.8780  -60.7570 C.3   221  PRO221      0.0939
     85  N         49.0230   89.1760  -55.4480 N.3   225  ALA225     -0.1231
     86  CA        48.3410   88.9090  -56.7130 C.3   225  ALA225      0.1694
     87  C         47.8950   87.4590  -56.8430 C.2   225  ALA225      0.2592
     88  O         46.7380   87.1810  -57.1540 O.2   225  ALA225     -0.2718
     89  CB        49.2220   89.2980  -57.8880 C.3   225  ALA225      0.0304
     90  N         48.8180   86.5350  -56.6100 N.am  226  CYS226     -0.1970
     91  CA        48.5180   85.1160  -56.7510 C.3   226  CYS226      0.1712
     92  C         47.5880   84.6280  -55.6450 C.2   226  CYS226      0.2296
     93  O         46.7330   83.7710  -55.8740 O.2   226  CYS226     -0.2864
     94  CB        49.8090   84.3030  -56.7410 C.3   226  CYS226      0.0983
     95  SG        51.0620   84.9360  -57.8600 S.3   226  CYS226     -0.0798
     96  N         43.3580   84.5750  -55.8010 N.3   229  CYS229     -0.1221
     97  CA        42.6410   83.3790  -56.2200 C.3   229  CYS229      0.1808
     98  C         42.9760   82.2100  -55.3040 C.2   229  CYS229      0.2601
     99  O         42.0910   81.4790  -54.8660 O.2   229  CYS229     -0.2717
    100  CB        42.9620   83.0350  -57.6760 C.3   229  CYS229      0.0970
    101  SG        42.2090   84.1540  -58.8860 S.3   229  CYS229     -0.0800
    102  N         44.2610   82.0430  -55.0130 N.am  230  HIS230     -0.1975
    103  CA        44.7180   80.9850  -54.1200 C.3   230  HIS230      0.1656
    104  C         44.5790   81.4240  -52.6660 C.2   230  HIS230      0.2291
    105  O         45.5270   81.9150  -52.0530 O.2   230  HIS230     -0.2864
    106  CB        46.1610   80.6030  -54.4500 C.3   230  HIS230      0.0771
    107  CG        46.3640   80.2120  -55.8820 C.ar  230  HIS230      0.0820
    108  ND1       46.2430   78.9120  -56.3260 N.ar  230  HIS230     -0.2267
    109  CD2       46.6620   80.9540  -56.9750 C.ar  230  HIS230      0.1154
    110  CE1       46.4660   78.8690  -57.6270 C.ar  230  HIS230      0.1986
    111  NE2       46.7220   80.0950  -58.0460 N.ar  230  HIS230     -0.2212
    112  N         58.9640   79.7980  -59.1530 N.3   254  HIS254     -0.1241
    113  CA        57.9270   80.0010  -60.1620 C.3   254  HIS254      0.1621
    114  C         58.4400   80.7460  -61.3950 C.2   254  HIS254      0.2264
    115  O         58.2320   81.9500  -61.5410 O.2   254  HIS254     -0.2867
    116  CB        56.7050   80.7130  -59.5650 C.3   254  HIS254      0.0745
    117  CG        56.0100   79.9300  -58.4920 C.ar  254  HIS254      0.0817
    118  ND1       55.0030   79.0270  -58.7610 N.ar  254  HIS254     -0.2268
    119  CD2       56.1750   79.9170  -57.1470 C.ar  254  HIS254      0.1154
    120  CE1       54.5810   78.4890  -57.6300 C.ar  254  HIS254      0.1986
    121  NE2       55.2750   79.0130  -56.6360 N.ar  254  HIS254     -0.2212
    122  N         56.4540   77.9060  -66.1430 N.3   258  TRP258     -0.1227
    123  CA        55.6860   77.1190  -65.1850 C.3   258  TRP258      0.1737
    124  C         54.3210   77.7350  -64.9090 C.2   258  TRP258      0.2596
    125  O         53.2900   77.0750  -65.0560 O.2   258  TRP258     -0.2718
    126  CB        56.4540   76.9470  -63.8710 C.3   258  TRP258      0.0564
    127  CG        55.7160   76.1040  -62.8670 C.ar  258  TRP258      0.0003
    128  CD1       54.6500   75.2850  -63.1090 C.ar  258  TRP258      0.0946
    129  CD2       55.9850   76.0060  -61.4620 C.ar  258  TRP258      0.0152
    130  NE1       54.2410   74.6830  -61.9450 N.ar  258  TRP258     -0.2442
    131  CE2       55.0430   75.1090  -60.9200 C.ar  258  TRP258      0.0810
    132  CE3       56.9280   76.5890  -60.6120 C.ar  258  TRP258      0.0012
    133  CZ2       55.0190   74.7800  -59.5650 C.ar  258  TRP258      0.0191
    134  CZ3       56.9010   76.2610  -59.2660 C.ar  258  TRP258      0.0001
    135  CH2       55.9540   75.3650  -58.7570 C.ar  258  TRP258      0.0015
    136  N         54.3200   79.0000  -64.5040 N.am  259  THR259     -0.1953
    137  CA        53.0800   79.6810  -64.1520 C.3   259  THR259      0.1897
    138  C         52.1880   79.9300  -65.3760 C.2   259  THR259      0.2313
    139  O         50.9680   80.0260  -65.2560 O.2   259  THR259     -0.2863
    140  CB        53.3510   80.9870  -63.3680 C.3   259  THR259      0.1794
    141  OG1       52.1420   81.7460  -63.2460 O.3   259  THR259     -0.2208
    142  CG2       54.3990   81.8220  -64.0670 C.3   259  THR259      0.0378
    143  N         50.6820   76.0370  -65.9870 N.3   262  VAL262     -0.1231
    144  CA        49.7490   75.5210  -64.9860 C.3   262  VAL262      0.1692
    145  C         48.3230   76.0180  -65.1930 C.2   262  VAL262      0.2592
    146  O         47.3660   75.3580  -64.7900 O.2   262  VAL262     -0.2718
    147  CB        50.1890   75.8710  -63.5480 C.3   262  VAL262      0.0266
    148  CG1       51.3600   75.0120  -63.1260 C.3   262  VAL262      0.0020
    149  CG2       50.5350   77.3410  -63.4440 C.3   262  VAL262      0.0020
    150  N         48.1870   77.1850  -65.8140 N.am  263  HIS263     -0.1962
    151  CA        46.8760   77.7750  -66.0520 C.3   263  HIS263      0.1787
    152  C         46.4230   77.5490  -67.4900 C.2   263  HIS263      0.2620
    153  O         45.2500   77.7240  -67.8180 O.2   263  HIS263     -0.2715
    154  CB        46.8900   79.2670  -65.7110 C.3   263  HIS263      0.0785
    155  CG        47.2770   79.5570  -64.2940 C.ar  263  HIS263      0.0821
    156  ND1       48.3050   80.4120  -63.9630 N.ar  263  HIS263     -0.2267
    157  CD2       46.7730   79.1030  -63.1210 C.ar  263  HIS263      0.1154
    158  CE1       48.4190   80.4730  -62.6480 C.ar  263  HIS263      0.1986
    159  NE2       47.5010   79.6880  -62.1140 N.ar  263  HIS263     -0.2212
    160  N         47.3660   77.1620  -68.3410 N.am  264  SER264     -0.1950
    161  CA        47.0680   76.8260  -69.7270 C.3   264  SER264      0.1924
    162  C         46.2420   75.5470  -69.8100 C.2   264  SER264      0.2314
    163  O         46.1070   74.8190  -68.8270 O.2   264  SER264     -0.2863
    164  CB        48.3650   76.6660  -70.5220 C.3   264  SER264      0.2116
    165  OG        48.1060   76.2140  -71.8380 O.3   264  SER264     -0.2180
    166  N         44.8670   69.7130  -72.9350 N.3   268  GLN268     -0.1245
    167  CA        43.4820   69.3540  -73.1990 C.3   268  GLN268      0.1566
    168  C         43.1300   69.5560  -74.6690 C.2   268  GLN268      0.2260
    169  O         42.5370   68.6800  -75.2980 O.2   268  GLN268     -0.2867
    170  CB        42.5300   70.1730  -72.3190 C.3   268  GLN268      0.0367
    171  CG        42.4070   69.6950  -70.8760 C.3   268  GLN268      0.0905
    172  CD        43.6200   70.0340  -70.0250 C.2   268  GLN268      0.2608
    173  OE1       44.5170   70.7600  -70.4560 O.2   268  GLN268     -0.2717
    174  NE2       43.6490   69.5070  -68.8060 N.am  268  GLN268     -0.0878
@<TRIPOS>BOND
     1   169   168    2
     2   168   167    1
     3   167   166    1
     4   167   170    1
     5   170   171    1
     6   165   164    1
     7    70    69    1
     8   171   172    1
     9    38    36   am
    10   164   161    1
    11   173   172    2
    12    69    68   ar
    13    69    67   ar
    14   172   174   am
    15    56    58   ar
    16    56    54   ar
    17    68    66   ar
    18   162   161    1
    19   162   163    2
    20   161   160    1
    21    53    54   ar
    22    53    51   ar
    23    67    65   ar
    24    36    35    1
    25    36    37    2
    26    58    57   ar
    27    54    52   ar
    28    41    42    2
    29    41    40    1
    30    35    32    1
    31    66    64   ar
    32    51    50   ar
    33    39    40    1
    34    39    33   am
    35    32    33    1
    36    32    31    1
    37   160   152   am
    38    65    64   ar
    39    40    43    1
    40    33    34    2
    41    57    55   ar
    42    52    50   ar
    43    52    55   ar
    44    43    44    1
    45   153   152    2
    46    64    63    1
    47    50    49    1
    48   152   151    1
    49    31    27   am
    50    11    12    1
    51    28    27    2
    52    27    26    1
    53    15    12    1
    54    15    16    1
    55    14    13    2
    56    63    60    1
    57    30    29    1
    58    45    46    1
    59   122   123    1
    60    49    46    1
    61   151   150    1
    62   151   154    1
    63    12    13    1
    64   143   144    1
    65   150   145   am
    66   154   155    1
    67    59    60    1
    68    59    47   am
    69    13    17   am
    70    46    47    1
    71   138   139    2
    72   138   137    1
    73    60    61    1
    74    61    62    2
    75   145   144    1
    76   145   146    2
    77   123   124    1
    78   123   126    1
    79    26    29    1
    80    26    25    1
    81   125   124    2
    82    47    48    2
    83   144   147    1
    84   124   136   am
    85    25    19   am
    86   136   137    1
    87    20    19    2
    88   155   156   ar
    89   155   157   ar
    90    19    18    1
    91    17    18    1
    92   137   140    1
    93   142   140    1
    94   156   158   ar
    95   126   127    1
    96    18    21    1
    97   147   149    1
    98   147   148    1
    99   140   141    1
   100   157   159   ar
   101   128   127   ar
   102   128   130   ar
   103    71    72    1
   104   127   129   ar
   105   158   159   ar
   106    76    75    1
   107    77    75    1
   108    21    23    1
   109    21    22    1
   110   130   131   ar
   111    75    72    1
   112    72    73    1
   113    10     8   ar
   114    10     9   ar
   115    24    22    1
   116   115   114    2
   117   129   131   ar
   118   129   132   ar
   119   114   113    1
   120     8     6   ar
   121   131   133   ar
   122    84    83    1
   123    84    78    1
   124    73    74    2
   125    73    78   am
   126     9     7   ar
   127   132   134   ar
   128    83    82    1
   129    78    79    1
   130   113   116    1
   131   113   112    1
   132     6     7   ar
   133     6     5    1
   134   116   117    1
   135   133   135   ar
   136   134   135   ar
   137    79    82    1
   138    79    80    1
   139     1     2    1
   140     2     5    1
   141     2     3    1
   142   101   100    1
   143   118   117   ar
   144   118   120   ar
   145   117   119   ar
   146     4     3    2
   147   111   110   ar
   148   111   109   ar
   149    89    86    1
   150    80    81    2
   151    95    94    1
   152   100    97    1
   153   120   121   ar
   154   110   108   ar
   155    88    87    2
   156   119   121   ar
   157   109   107   ar
   158    87    86    1
   159    87    90   am
   160    91    94    1
   161    91    90    1
   162    91    92    1
   163    86    85    1
   164   108   107   ar
   165    97    96    1
   166    97    98    1
   167   107   106    1
   168    93    92    2
   169    98   102   am
   170    98    99    2
   171   102   103    1
   172   106   103    1
   173   103   104    1
   174   104   105    2
