@<TRIPOS>MOLECULE
tmp/3pmqA01.pdb
 194 186 0 0 0
SMALL
GASTEIGER

@<TRIPOS>ATOM
      1  N         43.9300  113.6730  -53.9180 N.3    60  SER60      -0.1202
      2  CA        42.8820  114.0520  -54.8550 C.3    60  SER60       0.2020
      3  C         41.5810  113.4410  -54.3320 C.2    60  SER60       0.2618
      4  O         41.4910  112.2260  -54.1550 O.2    60  SER60      -0.2717
      5  CB        43.1960  113.5230  -56.2550 C.3    60  SER60       0.2103
      6  OG        44.5950  113.4780  -56.4900 O.3    60  SER60      -0.2182
      7  N         40.5780  114.2790  -54.0790 N.am   61  GLU61      -0.1979
      8  CA        39.3760  113.8390  -53.3680 C.3    61  GLU61       0.1602
      9  C         38.2830  114.9140  -53.2910 C.2    61  GLU61       0.2287
     10  O         38.3420  115.9290  -53.9840 O.2    61  GLU61      -0.2864
     11  CB        39.7550  113.3690  -51.9570 C.3    61  GLU61       0.0415
     12  CG        38.6570  112.6360  -51.1960 C.3    61  GLU61       0.1163
     13  CD        38.1060  111.4490  -51.9590 C.2    61  GLU61       0.3649
     14  OE1       38.8130  110.9230  -52.8450 O.co2  61  GLU61      -0.2457
     15  OE2       36.9600  111.0440  -51.6740 O.co2  61  GLU61      -0.2457
     16  N         40.2890  116.9670  -56.2760 N.3    71  PHE71      -0.1241
     17  CA        39.2540  116.4910  -57.1760 C.3    71  PHE71       0.1605
     18  C         38.0710  117.4460  -57.2650 C.2    71  PHE71       0.2264
     19  O         37.2230  117.4820  -56.3740 O.2    71  PHE71      -0.2867
     20  CB        38.7780  115.0880  -56.7790 C.3    71  PHE71       0.0534
     21  CG        37.9220  114.4420  -57.8200 C.ar   71  PHE71      -0.0203
     22  CD1       36.8080  113.6950  -57.4860 C.ar   71  PHE71      -0.0042
     23  CD2       38.2240  114.6260  -59.1480 C.ar   71  PHE71      -0.0042
     24  CE1       36.0210  113.1300  -58.4810 C.ar   71  PHE71      -0.0003
     25  CE2       37.4710  114.0790  -60.1160 C.ar   71  PHE71      -0.0003
     26  CZ        36.3570  113.3230  -59.7950 C.ar   71  PHE71      -0.0000
     27  N         44.9590  112.3800  -65.2310 N.3   105  ILE105     -0.1245
     28  CA        43.6810  111.9510  -65.8040 C.3   105  ILE105      0.1561
     29  C         42.6410  113.0750  -65.7870 C.2   105  ILE105      0.2260
     30  O         42.8090  114.0740  -65.0870 O.2   105  ILE105     -0.2867
     31  CB        43.1010  110.7270  -65.0560 C.3   105  ILE105      0.0252
     32  CG1       43.0050  111.0140  -63.5560 C.3   105  ILE105      0.0019
     33  CG2       43.9410  109.4860  -65.3150 C.3   105  ILE105      0.0019
     34  CD1       42.3360  109.9090  -62.7700 C.3   105  ILE105      0.0001
     35  N         41.0280   98.5670  -70.7750 N.3   143  ILE143     -0.1245
     36  CA        39.6680   98.3380  -70.3030 C.3   143  ILE143      0.1561
     37  C         38.7590   97.6660  -71.3290 C.2   143  ILE143      0.2260
     38  O         37.7470   97.0720  -70.9650 O.2   143  ILE143     -0.2867
     39  CB        39.0020   99.6510  -69.8590 C.3   143  ILE143      0.0252
     40  CG1       37.7020   99.3610  -69.1110 C.3   143  ILE143      0.0019
     41  CG2       38.7380  100.5380  -71.0600 C.3   143  ILE143      0.0019
     42  CD1       36.8770  100.5920  -68.8310 C.3   143  ILE143      0.0001
     43  N         32.2260  100.1810  -68.7930 N.3   153  LEU153     -0.1245
     44  CA        32.6270  100.0450  -67.4030 C.3   153  LEU153      0.1561
     45  C         32.8450  101.4150  -66.7720 C.2   153  LEU153      0.2260
     46  O         33.5480  102.2610  -67.3230 O.2   153  LEU153     -0.2867
     47  CB        33.8840   99.1810  -67.2980 C.3   153  LEU153      0.0270
     48  CG        34.3100   98.7400  -65.8970 C.3   153  LEU153      0.0019
     49  CD1       33.3100   97.7600  -65.3030 C.3   153  LEU153      0.0001
     50  CD2       35.6970   98.1290  -65.9440 C.3   153  LEU153      0.0001
     51  N         32.7270  102.6190  -62.5870 N.3   155  PHE155     -0.1227
     52  CA        32.4190  102.4740  -61.1680 C.3   155  PHE155      0.1736
     53  C         32.2400  103.8170  -60.4580 C.2   155  PHE155      0.2595
     54  O         32.5480  104.8720  -61.0130 O.2   155  PHE155     -0.2718
     55  CB        33.5230  101.6740  -60.4790 C.3   155  PHE155      0.0547
     56  CG        33.0320  100.8130  -59.3590 C.ar  155  PHE155     -0.0202
     57  CD1       33.1250  101.2390  -58.0440 C.ar  155  PHE155     -0.0042
     58  CD2       32.4700   99.5770  -59.6240 C.ar  155  PHE155     -0.0042
     59  CE1       32.6690  100.4420  -57.0130 C.ar  155  PHE155     -0.0003
     60  CE2       32.0120   98.7770  -58.5990 C.ar  155  PHE155     -0.0003
     61  CZ        32.1110   99.2090  -57.2920 C.ar  155  PHE155     -0.0000
     62  N         31.7450  103.7630  -59.2240 N.am  156  HIS156     -0.1975
     63  CA        31.5770  104.9530  -58.3860 C.3   156  HIS156      0.1656
     64  C         30.6060  105.9590  -58.9790 C.2   156  HIS156      0.2291
     65  O         30.9850  107.0880  -59.2920 O.2   156  HIS156     -0.2864
     66  CB        32.9180  105.6390  -58.1390 C.3   156  HIS156      0.0771
     67  CG        33.9340  104.7560  -57.4920 C.ar  156  HIS156      0.0820
     68  ND1       33.6960  104.0890  -56.3100 N.ar  156  HIS156     -0.2267
     69  CD2       35.1940  104.4300  -57.8620 C.ar  156  HIS156      0.1154
     70  CE1       34.7660  103.3900  -55.9800 C.ar  156  HIS156      0.1986
     71  NE2       35.6900  103.5810  -56.9040 N.ar  156  HIS156     -0.2212
     72  N         34.0790  107.3040  -62.5250 N.3   160  TYR160     -0.1227
     73  CA        35.2600  106.6790  -63.0970 C.3   160  TYR160      0.1736
     74  C         34.8210  105.3370  -63.6750 C.2   160  TYR160      0.2595
     75  O         33.7670  104.8340  -63.2970 O.2   160  TYR160     -0.2718
     76  CB        36.3070  106.4670  -62.0020 C.3   160  TYR160      0.0548
     77  CG        36.7720  107.7400  -61.3290 C.ar  160  TYR160     -0.0200
     78  CD1       37.9350  108.3740  -61.7360 C.ar  160  TYR160     -0.0009
     79  CD2       36.0500  108.3040  -60.2830 C.ar  160  TYR160     -0.0009
     80  CE1       38.3670  109.5310  -61.1260 C.ar  160  TYR160      0.0417
     81  CE2       36.4730  109.4670  -59.6640 C.ar  160  TYR160      0.0417
     82  CZ        37.6330  110.0750  -60.0920 C.ar  160  TYR160      0.1957
     83  OH        38.0720  111.2270  -59.4860 O.3   160  TYR160     -0.2866
     84  N         35.5810  104.7650  -64.6080 N.am  161  ASN161     -0.1974
     85  CA        36.7240  105.4100  -65.2420 C.3   161  ASN161      0.1688
     86  C         36.8970  104.8270  -66.6400 C.2   161  ASN161      0.2292
     87  O         37.5430  103.7930  -66.8240 O.2   161  ASN161     -0.2864
     88  CB        38.0130  105.2270  -64.4230 C.3   161  ASN161      0.1181
     89  CG        38.8950  106.4790  -64.4200 C.2   161  ASN161      0.2629
     90  OD1       38.4260  107.5760  -64.7180 O.2   161  ASN161     -0.2716
     91  ND2       40.1710  106.3150  -64.0760 N.am  161  ASN161     -0.0877
     92  N         42.3080  103.0570  -63.0970 N.3   166  CYS166     -0.1235
     93  CA        41.9650  103.1570  -61.6870 C.3   166  CYS166      0.1677
     94  C         43.1650  102.8100  -60.8050 C.2   166  CYS166      0.2270
     95  O         43.0830  102.8630  -59.5750 O.2   166  CYS166     -0.2867
     96  CB        40.7940  102.2230  -61.3870 C.3   166  CYS166      0.0956
     97  SG        40.0090  101.5920  -62.8960 S.3   166  CYS166     -0.0801
     98  N         45.2010  104.4570  -60.0970 N.3   168  THR168     -0.1203
     99  CA        45.5100  105.7150  -59.4350 C.3   168  THR168      0.1994
    100  C         45.1190  105.7030  -57.9670 C.2   168  THR168      0.2618
    101  O         45.9710  105.7920  -57.0890 O.2   168  THR168     -0.2717
    102  CB        44.8190  106.8950  -60.1220 C.3   168  THR168      0.1784
    103  OG1       43.4450  106.9390  -59.7250 O.3   168  THR168     -0.2211
    104  CG2       44.9000  106.7480  -61.6370 C.3   168  THR168      0.0376
    105  N         43.8240  105.5870  -57.7000 N.am  169  CYS169     -0.1955
    106  CA        43.3350  105.5640  -56.3260 C.3   169  CYS169      0.1843
    107  C         43.5530  104.2140  -55.6520 C.2   169  CYS169      0.2625
    108  O         43.7980  104.1450  -54.4510 O.2   169  CYS169     -0.2714
    109  CB        41.8560  105.9540  -56.2630 C.3   169  CYS169      0.0997
    110  SG        41.5720  107.7310  -56.3300 S.3   169  CYS169     -0.0797
    111  N         43.4620  103.1360  -56.4190 N.am  170  HIS170     -0.1973
    112  CA        43.6130  101.8090  -55.8370 C.3   170  HIS170      0.1656
    113  C         45.0800  101.4510  -55.6140 C.2   170  HIS170      0.2291
    114  O         45.6200  100.5410  -56.2400 O.2   170  HIS170     -0.2864
    115  CB        42.8670  100.7720  -56.6730 C.3   170  HIS170      0.0771
    116  CG        41.3910  101.0050  -56.7080 C.ar  170  HIS170      0.0820
    117  ND1       40.5290  100.4420  -55.7920 N.ar  170  HIS170     -0.2267
    118  CD2       40.6290  101.7720  -57.5220 C.ar  170  HIS170      0.1154
    119  CE1       39.2960  100.8370  -56.0520 C.ar  170  HIS170      0.1986
    120  NE2       39.3290  101.6450  -57.0970 N.ar  170  HIS170     -0.2212
    121  N         46.1390  105.5520  -51.3610 N.3   174  LYS174     -0.1231
    122  CA        44.7890  106.1120  -51.3950 C.3   174  LYS174      0.1693
    123  C         43.7410  105.2520  -50.6810 C.2   174  LYS174      0.2592
    124  O         43.0310  105.7430  -49.8040 O.2   174  LYS174     -0.2718
    125  CB        44.3610  106.3910  -52.8390 C.3   174  LYS174      0.0285
    126  CG        42.9270  106.8810  -53.0030 C.3   174  LYS174      0.0035
    127  CD        42.6380  108.0770  -52.1100 C.3   174  LYS174      0.0206
    128  CE        41.4520  108.8730  -52.6200 C.3   174  LYS174      0.1093
    129  NZ        40.3610  107.9870  -53.1000 N.3   174  LYS174     -0.1314
    130  N         43.6410  103.9780  -51.0560 N.am  175  VAL175     -0.1966
    131  CA        42.6400  103.0850  -50.4640 C.3   175  VAL175      0.1727
    132  C         43.1810  102.3960  -49.1950 C.2   175  VAL175      0.2617
    133  O         44.3950  102.3660  -48.9840 O.2   175  VAL175     -0.2715
    134  CB        42.0780  102.0930  -51.5100 C.3   175  VAL175      0.0290
    135  CG1       43.1920  101.2770  -52.1380 C.3   175  VAL175      0.0023
    136  CG2       40.9980  101.2090  -50.9010 C.3   175  VAL175      0.0023
    137  N         42.2920  101.8370  -48.3690 N.am  176  SER176     -0.1936
    138  CA        42.5680  101.7250  -46.9280 C.3   176  SER176      0.2055
    139  C         42.6850  100.3850  -46.1520 C.2   176  SER176      0.2643
    140  O         42.8340  100.4420  -44.9310 O.2   176  SER176     -0.2714
    141  CB        41.5880  102.6330  -46.1660 C.3   176  SER176      0.2130
    142  OG        41.9190  102.7160  -44.7890 O.3   176  SER176     -0.2179
    143  N         42.6390   99.2010  -46.7700 N.am  177  ASN177     -0.1971
    144  CA        42.4700   98.9670  -48.1960 C.3   177  ASN177      0.1688
    145  C         41.0920   98.3130  -48.4230 C.2   177  ASN177      0.2292
    146  O         40.1200   99.0550  -48.5370 O.2   177  ASN177     -0.2864
    147  CB        43.6580   98.1610  -48.7510 C.3   177  ASN177      0.1181
    148  CG        43.6110   97.9950  -50.2520 C.2   177  ASN177      0.2629
    149  OD1       42.9220   98.7380  -50.9480 O.2   177  ASN177     -0.2716
    150  ND2       44.3560   97.0170  -50.7630 N.am  177  ASN177     -0.0877
    151  N         41.9220   96.4640  -51.9180 N.3   180  ASP180     -0.1239
    152  CA        41.3260   97.1620  -53.0500 C.3   180  ASP180      0.1674
    153  C         42.3890   97.6440  -54.0380 C.2   180  ASP180      0.2266
    154  O         42.0870   98.3800  -54.9750 O.2   180  ASP180     -0.2867
    155  CB        40.4720   98.3350  -52.5710 C.3   180  ASP180      0.1410
    156  CG        39.3940   97.9110  -51.5910 C.2   180  ASP180      0.3668
    157  OD1       39.0390   98.7210  -50.7110 O.co2 180  ASP180     -0.2456
    158  OD2       38.9020   96.7680  -51.6990 O.co2 180  ASP180     -0.2456
    159  N         44.5640   97.2370  -57.2130 N.3   182  PHE182     -0.1241
    160  CA        43.9190   96.7430  -58.4310 C.3   182  PHE182      0.1605
    161  C         44.0650   95.2400  -58.7020 C.2   182  PHE182      0.2264
    162  O         43.0600   94.5350  -58.8070 O.2   182  PHE182     -0.2867
    163  CB        44.3220   97.5740  -59.6550 C.3   182  PHE182      0.0534
    164  CG        43.2460   97.6610  -60.6980 C.ar  182  PHE182     -0.0203
    165  CD1       43.4410   97.1430  -61.9660 C.ar  182  PHE182     -0.0042
    166  CD2       42.0270   98.2430  -60.3970 C.ar  182  PHE182     -0.0042
    167  CE1       42.4430   97.2180  -62.9200 C.ar  182  PHE182     -0.0003
    168  CE2       41.0260   98.3190  -61.3470 C.ar  182  PHE182     -0.0003
    169  CZ        41.2350   97.8060  -62.6090 C.ar  182  PHE182     -0.0000
    170  N         42.5790   93.2360  -55.9450 N.3   185  MET185     -0.1230
    171  CA        41.1340   93.4110  -55.8890 C.3   185  MET185      0.1702
    172  C         40.3860   92.6600  -56.9840 C.2   185  MET185      0.2592
    173  O         39.6620   91.7050  -56.7040 O.2   185  MET185     -0.2718
    174  CB        40.7790   94.9000  -55.9430 C.3   185  MET185      0.0401
    175  CG        39.2920   95.1900  -55.8190 C.3   185  MET185      0.0596
    176  SD        38.9210   96.9510  -55.8840 S.3   185  MET185     -0.1393
    177  CE        39.6350   97.3890  -57.4670 C.3   185  MET185      0.0692
    178  N         40.5600   93.0940  -58.2290 N.am  186  ILE186     -0.1980
    179  CA        39.7350   92.5880  -59.3240 C.3   186  ILE186      0.1595
    180  C         39.8550   91.0750  -59.5200 C.2   186  ILE186      0.2287
    181  O         38.9530   90.4450  -60.0740 O.2   186  ILE186     -0.2864
    182  CB        39.9860   93.3490  -60.6530 C.3   186  ILE186      0.0276
    183  CG1       41.3780   93.0480  -61.2040 C.3   186  ILE186      0.0022
    184  CG2       39.7800   94.8440  -60.4630 C.3   186  ILE186      0.0022
    185  CD1       41.4150   91.8450  -62.1080 C.3   186  ILE186      0.0001
    186  N         37.3960   89.7380  -56.9350 N.3   189  LYS189     -0.1245
    187  CA        36.0240   89.9690  -57.3710 C.3   189  LYS189      0.1561
    188  C         35.5730   88.9290  -58.3920 C.2   189  LYS189      0.2260
    189  O         34.4820   88.3720  -58.2810 O.2   189  LYS189     -0.2867
    190  CB        35.8600   91.3860  -57.9280 C.3   189  LYS189      0.0271
    191  CG        35.9820   92.4760  -56.8720 C.3   189  LYS189      0.0035
    192  CD        35.1450   92.1340  -55.6470 C.3   189  LYS189      0.0206
    193  CE        35.2470   93.2030  -54.5730 C.3   189  LYS189      0.1093
    194  NZ        34.5920   94.4600  -55.0060 N.3   189  LYS189     -0.1314
@<TRIPOS>BOND
     1    37    38    2
     2    37    36    1
     3    41    39    1
     4    35    36    1
     5    36    39    1
     6    39    40    1
     7    40    42    1
     8    43    44    1
     9    44    47    1
    10    44    45    1
    11    46    45    2
    12    47    48    1
    13    87    86    2
    14    86    85    1
    15    50    48    1
    16    48    49    1
    17    28    29    1
    18    28    27    1
    19    28    31    1
    20    29    30    2
    21    33    31    1
    22    85    84    1
    23    85    88    1
    24    31    32    1
    25    90    89    2
    26    84    74   am
    27    88    89    1
    28    89    91   am
    29    74    75    2
    30    74    73    1
    31    32    34    1
    32    73    72    1
    33    73    76    1
    34    92    93    1
    35   167   169   ar
    36   167   165   ar
    37    97    96    1
    38   169   168   ar
    39    51    52    1
    40   185   183    1
    41    76    77    1
    42   165   164   ar
    43    78    77   ar
    44    78    80   ar
    45    93    96    1
    46    93    94    1
    47   104   102    1
    48   168   166   ar
    49    77    79   ar
    50   183   182    1
    51    52    55    1
    52    52    53    1
    53    80    82   ar
    54    54    53    2
    55    94    95    2
    56   164   166   ar
    57   164   163    1
    58   182   184    1
    59   182   179    1
    60    55    56    1
    61    53    62   am
    62    79    81   ar
    63   102   103    1
    64   102    99    1
    65    25    26   ar
    66    25    23   ar
    67    98    99    1
    68    82    81   ar
    69    82    83    1
    70   181   180    2
    71    26    24   ar
    72   163   160    1
    73    58    56   ar
    74    58    60   ar
    75   180   179    1
    76    99   100    1
    77    56    57   ar
    78   179   178    1
    79    65    64    2
    80    62    63    1
    81    23    21   ar
    82    64    63    1
    83   162   161    2
    84   161   160    1
    85    60    61   ar
    86    24    22   ar
    87   160   159    1
    88   188   189    2
    89   188   187    1
    90    63    66    1
    91   178   172   am
    92    66    67    1
    93    57    59   ar
    94   100   105   am
    95   100   101    2
    96   190   187    1
    97   190   191    1
    98    69    67   ar
    99    69    71   ar
   100    21    22   ar
   101    21    20    1
   102   105   106    1
   103   118   120   ar
   104   118   116   ar
   105    67    68   ar
   106   177   176    1
   107   187   186    1
   108    61    59   ar
   109    18    17    1
   110    18    19    2
   111    17    20    1
   112    17    16    1
   113   120   119   ar
   114   172   173    2
   115   172   171    1
   116    71    70   ar
   117   191   192    1
   118   116   115    1
   119   116   117   ar
   120   115   112    1
   121     6     5    1
   122   111   112    1
   123   111   107   am
   124   110   109    1
   125   106   109    1
   126   106   107    1
   127    68    70   ar
   128     5     2    1
   129   114   113    2
   130   119   117   ar
   131   170   171    1
   132   174   171    1
   133   174   175    1
   134   176   175    1
   135   112   113    1
   136   107   108    2
   137   192   193    1
   138   194   193    1
   139   154   153    2
   140     2     3    1
   141     2     1    1
   142     3     4    2
   143     3     7   am
   144     7     8    1
   145   153   152    1
   146    10     9    2
   147     8     9    1
   148     8    11    1
   149   129   128    1
   150   152   155    1
   151   152   151    1
   152   126   125    1
   153   126   127    1
   154    14    13   ar
   155   125   122    1
   156   128   127    1
   157   155   156    1
   158   135   134    1
   159    13    15   ar
   160    13    12    1
   161    11    12    1
   162   158   156   ar
   163   156   157   ar
   164   134   136    1
   165   134   131    1
   166   122   121    1
   167   122   123    1
   168   130   123   am
   169   130   131    1
   170   149   148    2
   171   150   148   am
   172   123   124    2
   173   131   132    1
   174   148   147    1
   175   132   133    2
   176   132   137   am
   177   147   144    1
   178   146   145    2
   179   145   144    1
   180   137   138    1
   181   144   143    1
   182   138   141    1
   183   138   139    1
   184   143   139   am
   185   141   142    1
   186   139   140    2
