@<TRIPOS>MOLECULE
tmp/3pmqA09.pdb
 146 139 0 0 0
SMALL
GASTEIGER

@<TRIPOS>ATOM
      1  N          4.7200   88.3380  -80.5950 N.3   534  ILE534     -0.1231
      2  CA         5.6120   89.4180  -80.1930 C.3   534  ILE534      0.1692
      3  C          5.4730   89.7480  -78.7090 C.2   534  ILE534      0.2591
      4  O          6.4510   90.0920  -78.0470 O.2   534  ILE534     -0.2718
      5  CB         5.3880   90.6750  -81.0480 C.3   534  ILE534      0.0266
      6  CG1        5.5040   90.3180  -82.5320 C.3   534  ILE534      0.0019
      7  CG2        6.3850   91.7580  -80.6730 C.3   534  ILE534      0.0020
      8  CD1        5.1720   91.4530  -83.4720 C.3   534  ILE534      0.0001
      9  N          4.2560   89.6370  -78.1880 N.am  535  ALA535     -0.1980
     10  CA         4.0250   89.8490  -76.7650 C.3   535  ALA535      0.1597
     11  C          4.7330   88.7710  -75.9550 C.2   535  ALA535      0.2287
     12  O          5.1500   89.0010  -74.8180 O.2   535  ALA535     -0.2864
     13  CB         2.5380   89.8500  -76.4630 C.3   535  ALA535      0.0319
     14  N          8.4560   89.9340  -75.2590 N.3   538  CYS538     -0.1221
     15  CA         8.6190   91.2010  -74.5580 C.3   538  CYS538      0.1808
     16  C          8.1640   91.1520  -73.1000 C.2   538  CYS538      0.2601
     17  O          8.4430   92.0700  -72.3300 O.2   538  CYS538     -0.2717
     18  CB         7.9020   92.3230  -75.3130 C.3   538  CYS538      0.0970
     19  SG         8.5630   92.6420  -76.9720 S.3   538  CYS538     -0.0800
     20  N          7.4720   90.0820  -72.7210 N.am  539  SER539     -0.1952
     21  CA         6.9280   89.9680  -71.3670 C.3   539  SER539      0.1924
     22  C          7.9330   89.5140  -70.3050 C.2   539  SER539      0.2314
     23  O          7.5640   89.3060  -69.1480 O.2   539  SER539     -0.2863
     24  CB         5.6910   89.0620  -71.3480 C.3   539  SER539      0.2116
     25  OG         4.5310   89.7720  -71.7470 O.3   539  SER539     -0.2180
     26  N         10.0370   93.1560  -69.8640 N.3   542  HIS542     -0.1241
     27  CA         9.0420   94.1850  -69.6030 C.3   542  HIS542      0.1621
     28  C          7.8960   93.4400  -68.9300 C.2   542  HIS542      0.2264
     29  O          6.8330   93.2320  -69.5110 O.2   542  HIS542     -0.2867
     30  CB         8.6070   94.8520  -70.9090 C.3   542  HIS542      0.0745
     31  CG         9.7450   95.4150  -71.7100 C.ar  542  HIS542      0.0817
     32  ND1       10.4250   96.5550  -71.3380 N.ar  542  HIS542     -0.2268
     33  CD2       10.3230   94.9940  -72.8610 C.ar  542  HIS542      0.1154
     34  CE1       11.3710   96.8130  -72.2240 C.ar  542  HIS542      0.1986
     35  NE2       11.3310   95.8810  -73.1590 N.ar  542  HIS542     -0.2212
     36  N          1.9310   94.9800  -65.8760 N.3   546  ALA546     -0.1231
     37  CA         1.9660   95.7620  -67.0780 C.3   546  ALA546      0.1694
     38  C          2.5720   94.8730  -68.1440 C.2   546  ALA546      0.2592
     39  O          3.2130   93.8690  -67.8360 O.2   546  ALA546     -0.2718
     40  CB         2.8020   97.0070  -66.8730 C.3   546  ALA546      0.0304
     41  N          2.3540   95.2340  -69.3990 N.am  547  THR547     -0.1953
     42  CA         1.5980   96.4310  -69.7390 C.3   547  THR547      0.1897
     43  C          0.1260   96.3660  -69.2920 C.2   547  THR547      0.2313
     44  O         -0.2330   95.5810  -68.4110 O.2   547  THR547     -0.2863
     45  CB         1.7320   96.7190  -71.2310 C.3   547  THR547      0.1794
     46  OG1        1.7620   95.4730  -71.9360 O.3   547  THR547     -0.2208
     47  CG2        3.0380   97.4500  -71.4900 C.3   547  THR547      0.0378
     48  N         -2.8790   95.3580  -70.6240 N.3   549  ASN549     -0.1225
     49  CA        -1.5770   95.0950  -71.2200 C.3   549  ASN549      0.1785
     50  C         -1.1950   95.9350  -72.4340 C.2   549  ASN549      0.2597
     51  O         -0.5220   95.4220  -73.3300 O.2   549  ASN549     -0.2718
     52  CB        -1.4720   93.6150  -71.5900 C.3   549  ASN549      0.1169
     53  CG        -0.7500   92.7990  -70.5370 C.2   549  ASN549      0.2627
     54  OD1        0.1910   93.2760  -69.9010 O.2   549  ASN549     -0.2716
     55  ND2       -1.1780   91.5550  -70.3560 N.am  549  ASN549     -0.0877
     56  N         -1.6250   97.2000  -72.4810 N.am  550  HIS550     -0.1961
     57  CA        -1.2150   98.0960  -73.5650 C.3   550  HIS550      0.1787
     58  C         -1.3530   97.2500  -74.8200 C.2   550  HIS550      0.2620
     59  O         -0.6670   97.4420  -75.8250 O.2   550  HIS550     -0.2715
     60  CB         0.2190   98.5830  -73.2940 C.3   550  HIS550      0.0785
     61  CG         0.9680   99.0870  -74.4950 C.ar  550  HIS550      0.0821
     62  ND1        0.3970   99.8680  -75.4760 N.ar  550  HIS550     -0.2267
     63  CD2        2.2730   98.9500  -74.8370 C.ar  550  HIS550      0.1154
     64  CE1        1.3120  100.1700  -76.3840 C.ar  550  HIS550      0.1986
     65  NE2        2.4590   99.6270  -76.0190 N.ar  550  HIS550     -0.2212
     66  N         -2.2790   96.3000  -74.7240 N.am  551  MET551     -0.1963
     67  CA        -2.3870   95.1900  -75.6510 C.3   551  MET551      0.1736
     68  C         -3.2160   95.5610  -76.8630 C.2   551  MET551      0.2616
     69  O         -4.4460   95.5980  -76.8100 O.2   551  MET551     -0.2715
     70  CB        -2.9990   93.9780  -74.9450 C.3   551  MET551      0.0427
     71  CG        -4.2230   94.3070  -74.1040 C.3   551  MET551      0.0599
     72  SD        -5.0770   92.8450  -73.4870 S.3   551  MET551     -0.1393
     73  CE        -5.7080   92.1450  -75.0150 C.3   551  MET551      0.0692
     74  N         -2.5280   95.8460  -77.9570 N.am  552  ARG552     -0.1977
     75  CA        -3.1910   96.0850  -79.2210 C.3   552  ARG552      0.1597
     76  C         -3.3370   94.7570  -79.9500 C.2   552  ARG552      0.2287
     77  O         -2.9390   93.7150  -79.4300 O.2   552  ARG552     -0.2864
     78  CB        -2.4110   97.1070  -80.0450 C.3   552  ARG552      0.0334
     79  CG        -2.2660   98.4620  -79.3560 C.3   552  ARG552      0.0492
     80  CD        -3.6220   99.0760  -79.0190 C.3   552  ARG552      0.2205
     81  NE        -4.3180   98.3560  -77.9550 N.pl3 552  ARG552     -0.0865
     82  CZ        -4.2880   98.7010  -76.6720 C.cat 552  ARG552      0.5346
     83  NH1       -3.5980   99.7660  -76.2840 N.pl3 552  ARG552      0.1354
     84  NH2       -4.9520   97.9850  -75.7750 N.pl3 552  ARG552      0.1354
     85  N         -3.6270   91.2390  -81.8710 N.3   554  GLN554     -0.1231
     86  CA        -2.7700   90.0620  -81.6960 C.3   554  GLN554      0.1698
     87  C         -2.3380   89.8680  -80.2450 C.2   554  GLN554      0.2592
     88  O         -2.2520   88.7400  -79.7630 O.2   554  GLN554     -0.2718
     89  CB        -1.5480   90.0900  -82.6240 C.3   554  GLN554      0.0381
     90  CG        -0.2230   90.3720  -81.9310 C.3   554  GLN554      0.0905
     91  CD         0.9770   89.9950  -82.7830 C.2   554  GLN554      0.2608
     92  OE1        2.0660   89.7500  -82.2660 O.2   554  GLN554     -0.2717
     93  NE2        0.7810   89.9480  -84.0950 N.am  554  GLN554     -0.0878
     94  N         -2.0740   90.9690  -79.5510 N.am  555  GLY555     -0.1957
     95  CA        -1.6660   90.8990  -78.1620 C.3   555  GLY555      0.1869
     96  C         -2.7600   90.3250  -77.2850 C.2   555  GLY555      0.2309
     97  O         -3.8620   90.8700  -77.2250 O.2   555  GLY555     -0.2863
     98  N         -0.4970   95.8330  -85.8510 N.3   571  THR571     -0.1203
     99  CA         0.2140   97.0980  -85.7290 C.3   571  THR571      0.1994
    100  C          1.1940   97.1160  -84.5620 C.2   571  THR571      0.2618
    101  O          2.0170   98.0240  -84.4550 O.2   571  THR571     -0.2717
    102  CB        -0.7670   98.2720  -85.5640 C.3   571  THR571      0.1784
    103  OG1       -1.5510   98.0770  -84.3810 O.3   571  THR571     -0.2211
    104  CG2       -1.6900   98.3690  -86.7680 C.3   571  THR571      0.0376
    105  N          1.1020   96.1200  -83.6870 N.am  572  CYS572     -0.1969
    106  CA         2.0060   96.0400  -82.5450 C.3   572  CYS572      0.1712
    107  C          3.4480   96.1260  -83.0240 C.2   572  CYS572      0.2296
    108  O          4.3190   96.6410  -82.3230 O.2   572  CYS572     -0.2864
    109  CB         1.7830   94.7450  -81.7630 C.3   572  CYS572      0.0983
    110  SG         2.7210   94.6420  -80.2220 S.3   572  CYS572     -0.0798
    111  N          4.2490   99.8510  -85.2150 N.3   575  CYS575     -0.1221
    112  CA         4.5580  100.9590  -84.3180 C.3   575  CYS575      0.1808
    113  C          5.9980  100.8640  -83.8120 C.2   575  CYS575      0.2601
    114  O          6.7850  101.7980  -83.9640 O.2   575  CYS575     -0.2717
    115  CB         3.5780  100.9650  -83.1430 C.3   575  CYS575      0.0970
    116  SG         3.1680  102.5990  -82.5060 S.3   575  CYS575     -0.0800
    117  N          6.3320   99.7300  -83.2020 N.am  576  HIS576     -0.1975
    118  CA         7.6980   99.4540  -82.7750 C.3   576  HIS576      0.1656
    119  C          8.4810   98.8220  -83.9350 C.2   576  HIS576      0.2291
    120  O          9.2070   97.8470  -83.7400 O.2   576  HIS576     -0.2864
    121  CB         7.7020   98.5090  -81.5620 C.3   576  HIS576      0.0771
    122  CG         6.9180   99.0080  -80.3800 C.ar  576  HIS576      0.0820
    123  ND1        7.4760   99.7930  -79.3940 N.ar  576  HIS576     -0.2267
    124  CD2        5.6300   98.8050  -80.0100 C.ar  576  HIS576      0.1154
    125  CE1        6.5640  100.0660  -78.4770 C.ar  576  HIS576      0.1986
    126  NE2        5.4340   99.4760  -78.8240 N.ar  576  HIS576     -0.2212
    127  N          8.8320  105.0270  -84.4330 N.3   582  ALA582     -0.1231
    128  CA         8.7710  105.5580  -83.0780 C.3   582  ALA582      0.1694
    129  C          9.3460  104.6070  -82.0240 C.2   582  ALA582      0.2592
    130  O          9.0490  104.7460  -80.8370 O.2   582  ALA582     -0.2718
    131  CB         7.3380  105.9380  -82.7260 C.3   582  ALA582      0.0304
    132  N         10.1660  103.6480  -82.4480 N.am  583  ASP583     -0.1974
    133  CA        10.7540  102.6960  -81.5060 C.3   583  ASP583      0.1709
    134  C         11.8650  101.8380  -82.1150 C.2   583  ASP583      0.2293
    135  O         13.0340  102.2230  -82.1100 O.2   583  ASP583     -0.2864
    136  CB         9.6680  101.7910  -80.9190 C.3   583  ASP583      0.1436
    137  CG        10.1850  100.9140  -79.7960 C.2   583  ASP583      0.3671
    138  OD1       10.0310  101.3040  -78.6200 O.co2 583  ASP583     -0.2456
    139  OD2       10.7460   99.8370  -80.0880 O.co2 583  ASP583     -0.2456
    140  N         15.2270  102.4710  -79.4690 N.3   587  VAL587     -0.1245
    141  CA        14.7270  102.3320  -78.1070 C.3   587  VAL587      0.1561
    142  C         15.6550  101.5020  -77.2180 C.2   587  VAL587      0.2260
    143  O         15.5770  101.5790  -75.9920 O.2   587  VAL587     -0.2867
    144  CB        13.3100  101.7210  -78.0910 C.3   587  VAL587      0.0252
    145  CG1       13.3690  100.2380  -78.4110 C.3   587  VAL587      0.0019
    146  CG2       12.6490  101.9520  -76.7460 C.3   587  VAL587      0.0019
@<TRIPOS>BOND
     1   104   102    1
     2    98    99    1
     3    99   102    1
     4    99   100    1
     5   102   103    1
     6   111   112    1
     7   100   101    2
     8   100   105   am
     9   127   128    1
    10   112   113    1
    11   112   115    1
    12    93    91   am
    13   114   113    2
    14   119   120    2
    15   119   118    1
    16   113   117   am
    17   105   106    1
    18     8     6    1
    19   117   118    1
    20   115   116    1
    21   128   131    1
    22   128   129    1
    23   107   106    1
    24   107   108    2
    25    91    92    2
    26    91    90    1
    27   118   121    1
    28    89    90    1
    29    89    86    1
    30   106   109    1
    31     6     5    1
    32   132   129   am
    33   132   133    1
    34   134   135    2
    35   134   133    1
    36   129   130    2
    37    85    86    1
    38   109   110    1
    39    86    87    1
    40   121   122    1
    41   133   136    1
    42     5     7    1
    43     5     2    1
    44   136   137    1
    45     1     2    1
    46   122   124   ar
    47   122   123   ar
    48    87    88    2
    49    87    94   am
    50     2     3    1
    51   139   137   ar
    52    78    79    1
    53    78    75    1
    54   124   126   ar
    55    76    77    2
    56    76    75    1
    57   137   138   ar
    58    94    95    1
    59   140   141    1
    60   123   125   ar
    61    79    80    1
    62    75    74    1
    63    80    81    1
    64   126   125   ar
    65     3     9   am
    66     3     4    2
    67   145   144    1
    68     9    10    1
    69    95    96    1
    70   141   144    1
    71   141   142    1
    72   144   146    1
    73    74    68   am
    74    81    82    2
    75    96    97    2
    76   142   143    2
    77    19    18    1
    78    68    69    2
    79    68    67    1
    80    10    13    1
    81    10    11    1
    82    82    83    1
    83    82    84    1
    84    64    65   ar
    85    64    62   ar
    86    65    63   ar
    87    11    12    2
    88    59    58    2
    89    67    70    1
    90    67    66    1
    91    62    61   ar
    92    18    15    1
    93    14    15    1
    94    73    72    1
    95    70    71    1
    96    63    61   ar
    97    58    66   am
    98    58    57    1
    99    15    16    1
   100    61    60    1
   101    71    72    1
   102    57    60    1
   103    57    56    1
   104    51    50    2
   105    35    33   ar
   106    35    34   ar
   107    16    20   am
   108    16    17    2
   109    33    31   ar
   110    20    21    1
   111    56    50   am
   112    50    49    1
   113    34    32   ar
   114    46    45    1
   115    25    24    1
   116    31    32   ar
   117    31    30    1
   118    52    49    1
   119    52    53    1
   120    47    45    1
   121    21    24    1
   122    21    22    1
   123    45    42    1
   124    49    48    1
   125    30    27    1
   126    53    55   am
   127    53    54    2
   128    22    23    2
   129    26    27    1
   130    42    41    1
   131    42    43    1
   132    27    28    1
   133    29    28    2
   134    41    38   am
   135    43    44    2
   136    38    39    2
   137    38    37    1
   138    37    40    1
   139    37    36    1
