@<TRIPOS>MOLECULE
tmp/3pmuA00.pdb
 112 104 0 0 0
SMALL
GASTEIGER

@<TRIPOS>ATOM
      1  N          1.3890   -6.4900   11.2530 N.3    33  ASP33      -0.1239
      2  CA         1.4930   -5.5310   10.1700 C.3    33  ASP33       0.1674
      3  C          2.8220   -4.7930   10.3170 C.2    33  ASP33       0.2266
      4  O          2.9790   -3.9610   11.2170 O.2    33  ASP33      -0.2867
      5  CB         0.3100   -4.5560   10.2880 C.3    33  ASP33       0.1410
      6  CG         0.2220   -3.5710    9.1450 C.2    33  ASP33       0.3668
      7  OD1        1.1580   -3.4730    8.3330 O.co2  33  ASP33      -0.2456
      8  OD2       -0.8080   -2.8710    9.0790 O.co2  33  ASP33      -0.2456
      9  N          5.3260   -2.0460    9.7900 N.3    35  ASP35      -0.1239
     10  CA         4.9800   -0.6520    9.5240 C.3    35  ASP35       0.1674
     11  C          6.2110    0.2530    9.5950 C.2    35  ASP35       0.2266
     12  O          6.6590    0.6160   10.6860 O.2    35  ASP35      -0.2867
     13  CB         3.9130   -0.1970   10.5310 C.3    35  ASP35       0.1410
     14  CG         3.5050    1.2470   10.3510 C.2    35  ASP35       0.3668
     15  OD1        3.7910    1.8270    9.2850 O.co2  35  ASP35      -0.2456
     16  OD2        2.8630    1.7890   11.2770 O.co2  35  ASP35      -0.2456
     17  N         -2.2780    7.0370   15.4710 N.3    79  TYR79      -0.1227
     18  CA        -1.7710    7.0200   14.1040 C.3    79  TYR79       0.1736
     19  C         -2.4020    8.1230   13.2610 C.2    79  TYR79       0.2596
     20  O         -3.3970    8.7300   13.6610 O.2    79  TYR79      -0.2718
     21  CB        -2.0080    5.6480   13.4620 C.3    79  TYR79       0.0548
     22  CG        -1.2740    4.5150   14.1620 C.ar   79  TYR79      -0.0200
     23  CD1       -1.9330    3.6780   15.0540 C.ar   79  TYR79      -0.0009
     24  CD2        0.0800    4.2930   13.9290 C.ar   79  TYR79      -0.0009
     25  CE1       -1.2630    2.6440   15.6940 C.ar   79  TYR79       0.0417
     26  CE2        0.7630    3.2670   14.5700 C.ar   79  TYR79       0.0417
     27  CZ         0.0810    2.4440   15.4420 C.ar   79  TYR79       0.1957
     28  OH         0.7630    1.4230   16.0760 O.3    79  TYR79      -0.2866
     29  N         -1.8200    8.3700   12.0930 N.am   80  GLY80      -0.1942
     30  CA        -2.2820    9.4350   11.2180 C.3    80  GLY80       0.2014
     31  C         -3.7140    9.2950   10.7340 C.2    80  GLY80       0.2638
     32  O         -4.3530   10.2890   10.3890 O.2    80  GLY80      -0.2714
     33  N         -4.2230    8.0660   10.7060 N.am   81  ASP81      -0.1971
     34  CA        -5.5670    7.8070   10.1970 C.3    81  ASP81       0.1709
     35  C         -6.6280    7.8750   11.2920 C.2    81  ASP81       0.2293
     36  O         -7.7940    7.5730   11.0530 O.2    81  ASP81      -0.2864
     37  CB        -5.6280    6.4560    9.4770 C.3    81  ASP81       0.1436
     38  CG        -5.4020    5.2810   10.4110 C.2    81  ASP81       0.3671
     39  OD1       -5.0950    5.5090   11.6000 O.co2  81  ASP81      -0.2456
     40  OD2       -5.5180    4.1240    9.9540 O.co2  81  ASP81      -0.2456
     41  N         -6.6470    6.1100   14.1610 N.3    83  SER83      -0.1217
     42  CA        -6.7150    4.9170   15.0010 C.3    83  SER83       0.1889
     43  C         -5.7340    5.0330   16.1690 C.2    83  SER83       0.2288
     44  O         -4.8600    5.8990   16.1700 O.2    83  SER83      -0.2866
     45  CB        -6.4470    3.6510   14.1860 C.3    83  SER83       0.2089
     46  OG        -5.1420    3.6580   13.6400 O.3    83  SER83      -0.2183
     47  N         -9.0320   -1.3340   14.6880 N.3   116  PHE116     -0.1241
     48  CA        -8.2030   -2.5020   14.9630 C.3   116  PHE116      0.1605
     49  C         -9.0660   -3.7080   15.3210 C.2   116  PHE116      0.2264
     50  O         -8.8550   -4.8060   14.8040 O.2   116  PHE116     -0.2867
     51  CB        -7.1670   -2.2080   16.0610 C.3   116  PHE116      0.0534
     52  CG        -6.0770   -1.2730   15.6230 C.ar  116  PHE116     -0.0203
     53  CD1       -5.1850   -1.6510   14.6320 C.ar  116  PHE116     -0.0042
     54  CD2       -5.9430   -0.0180   16.1960 C.ar  116  PHE116     -0.0042
     55  CE1       -4.1850   -0.7980   14.2160 C.ar  116  PHE116     -0.0003
     56  CE2       -4.9380    0.8400   15.7910 C.ar  116  PHE116     -0.0003
     57  CZ        -4.0540    0.4490   14.7950 C.ar  116  PHE116     -0.0000
     58  N          1.0640   -4.6460   15.3580 N.3   125  LEU125     -0.1245
     59  CA         1.9760   -3.9480   14.4630 C.3   125  LEU125      0.1561
     60  C          3.4090   -4.1690   14.8910 C.2   125  LEU125      0.2260
     61  O          3.6910   -4.2960   16.0870 O.2   125  LEU125     -0.2867
     62  CB         1.6850   -2.4480   14.4650 C.3   125  LEU125      0.0270
     63  CG         0.6900   -1.9490   13.4150 C.3   125  LEU125      0.0019
     64  CD1       -0.6830   -2.5830   13.5930 C.3   125  LEU125      0.0001
     65  CD2        0.5940   -0.4290   13.4670 C.3   125  LEU125      0.0001
     66  N          6.4250    4.2800    3.6700 N.3   219  ASP219     -0.1239
     67  CA         5.5790    3.7770    4.7640 C.3   219  ASP219      0.1674
     68  C          4.8030    2.5120    4.4100 C.2   219  ASP219      0.2266
     69  O          3.7280    2.5710    3.8110 O.2   219  ASP219     -0.2867
     70  CB         4.6100    4.8690    5.2250 C.3   219  ASP219      0.1410
     71  CG         3.7940    4.4520    6.4220 C.2   219  ASP219      0.3668
     72  OD1        2.9240    5.2400    6.8390 O.co2 219  ASP219     -0.2456
     73  OD2        4.0300    3.3450    6.9550 O.co2 219  ASP219     -0.2456
     74  N          3.0990    0.7040    6.2250 N.3   221  GLY221     -0.1210
     75  CA         1.8580    0.5990    6.9690 C.3   221  GLY221      0.1956
     76  C          0.7320    1.4700    6.4470 C.2   221  GLY221      0.2612
     77  O         -0.3470    1.4780    7.0180 O.2   221  GLY221     -0.2717
     78  N          0.9950    2.2220    5.3830 N.am  222  THR222     -0.1952
     79  CA        -0.0370    3.0100    4.7230 C.3   222  THR222      0.1897
     80  C         -0.3750    2.3350    3.3960 C.2   222  THR222      0.2313
     81  O          0.5230    1.9610    2.6480 O.2   222  THR222     -0.2863
     82  CB         0.4310    4.4630    4.5020 C.3   222  THR222      0.1794
     83  OG1        0.5450    5.1090    5.7810 O.3   222  THR222     -0.2208
     84  CG2       -0.5620    5.2460    3.6360 C.3   222  THR222      0.0378
     85  N         -0.0440    8.9880   -1.1810 N.3   226  TYR226     -0.1241
     86  CA        -0.5390   10.3420   -0.9040 C.3   226  TYR226      0.1605
     87  C          0.4690   11.3750   -1.3770 C.2   226  TYR226      0.2264
     88  O          1.5980   11.4280   -0.8800 O.2   226  TYR226     -0.2867
     89  CB        -0.8270   10.5250    0.5970 C.3   226  TYR226      0.0534
     90  CG        -1.9490    9.6380    1.0820 C.ar  226  TYR226     -0.0201
     91  CD1       -3.2660   10.0680    1.0480 C.ar  226  TYR226     -0.0009
     92  CD2       -1.6840    8.3560    1.5610 C.ar  226  TYR226     -0.0009
     93  CE1       -4.3030    9.2410    1.4710 C.ar  226  TYR226      0.0417
     94  CE2       -2.6980    7.5310    1.9910 C.ar  226  TYR226      0.0417
     95  CZ        -4.0070    7.9770    1.9450 C.ar  226  TYR226      0.1957
     96  OH        -5.0190    7.1500    2.3660 O.3   226  TYR226     -0.2866
     97  N         -3.0370   15.9990    5.2280 N.3   300  ILE300     -0.1245
     98  CA        -2.1840   15.1670    6.0900 C.3   300  ILE300      0.1561
     99  C         -0.9630   15.8910    6.6500 C.2   300  ILE300      0.2260
    100  O         -0.5680   15.6590    7.7940 O.2   300  ILE300     -0.2867
    101  CB        -1.6600   13.9290    5.3310 C.3   300  ILE300      0.0252
    102  CG1       -2.8110   13.0890    4.7950 C.3   300  ILE300      0.0019
    103  CG2       -0.7560   13.0860    6.2270 C.3   300  ILE300      0.0019
    104  CD1       -2.3410   11.9310    3.9330 C.3   300  ILE300      0.0001
    105  N          3.1140   10.6000    1.4530 N.3   304  ILE304     -0.1245
    106  CA         3.3420    9.2300    1.9050 C.3   304  ILE304      0.1561
    107  C          3.4320    8.2750    0.7360 C.2   304  ILE304      0.2260
    108  O          2.4580    8.0740    0.0090 O.2   304  ILE304     -0.2867
    109  CB         2.2470    8.7560    2.8710 C.3   304  ILE304      0.0252
    110  CG1        2.0750    9.7510    4.0170 C.3   304  ILE304      0.0019
    111  CG2        2.5870    7.3630    3.4320 C.3   304  ILE304      0.0019
    112  CD1        0.8980    9.4360    4.9110 C.3   304  ILE304      0.0001
@<TRIPOS>BOND
     1    87    86    1
     2    87    88    2
     3    85    86    1
     4    86    89    1
     5   108   107    2
     6    89    90    1
     7   107   106    1
     8    91    90   ar
     9    91    93   ar
    10    90    92   ar
    11   105   106    1
    12    93    95   ar
    13    92    94   ar
    14   106   109    1
    15    95    94   ar
    16    95    96    1
    17    81    80    2
    18   109   111    1
    19   109   110    1
    20    80    79    1
    21    84    82    1
    22    66    67    1
    23    69    68    2
    24   104   102    1
    25   110   112    1
    26    68    67    1
    27    82    79    1
    28    82    83    1
    29    79    78    1
    30    67    70    1
    31   102   101    1
    32    70    71    1
    33    97    98    1
    34   101    98    1
    35   101   103    1
    36    78    76   am
    37    98    99    1
    38    74    75    1
    39    71    72   ar
    40    71    73   ar
    41    76    75    1
    42    76    77    2
    43    99   100    2
    44     7     6   ar
    45     8     6   ar
    46     6     5    1
    47    15    14   ar
    48    37    34    1
    49    37    38    1
    50    10    11    1
    51    10     9    1
    52    10    13    1
    53    11    12    2
    54    40    38   ar
    55     2     5    1
    56     2     3    1
    57     2     1    1
    58    34    33    1
    59    34    35    1
    60     3     4    2
    61    14    13    1
    62    14    16   ar
    63    32    31    2
    64    38    39   ar
    65    33    31   am
    66    31    30    1
    67    36    35    2
    68    30    29    1
    69    29    19   am
    70    19    20    2
    71    19    18    1
    72    63    65    1
    73    63    64    1
    74    63    62    1
    75    21    18    1
    76    21    22    1
    77    46    45    1
    78    24    22   ar
    79    24    26   ar
    80    18    17    1
    81    41    42    1
    82    22    23   ar
    83    45    42    1
    84    55    53   ar
    85    55    57   ar
    86    59    62    1
    87    59    60    1
    88    59    58    1
    89    26    27   ar
    90    53    52   ar
    91    47    48    1
    92    57    56   ar
    93    50    49    2
    94    60    61    2
    95    48    49    1
    96    48    51    1
    97    42    43    1
    98    23    25   ar
    99    27    25   ar
   100    27    28    1
   101    52    51    1
   102    52    54   ar
   103    56    54   ar
   104    43    44    2
