@<TRIPOS>MOLECULE
tmp/3pmvA01.pdb
 112 108 0 0 0
SMALL
GASTEIGER

@<TRIPOS>ATOM
      1  N          8.9040   -0.4020   20.3390 N.3    92  ILE92      -0.1231
      2  CA         8.3410   -1.2680   21.3620 C.3    92  ILE92       0.1692
      3  C          8.7810   -2.7200   21.1650 C.2    92  ILE92       0.2592
      4  O          8.4470   -3.3710   20.1620 O.2    92  ILE92      -0.2718
      5  CB         6.7790   -1.1200   21.4450 C.3    92  ILE92       0.0266
      6  CG1        6.3580    0.3320   21.6530 C.3    92  ILE92       0.0019
      7  CG2        6.2470   -2.0190   22.5720 C.3    92  ILE92       0.0020
      8  CD1        4.8820    0.5900   21.4970 C.3    92  ILE92       0.0001
      9  N          9.5520   -3.2370   22.1280 N.am   93  THR93      -0.1953
     10  CA        10.0200   -4.6050   22.0910 C.3    93  THR93       0.1897
     11  C          9.8220   -5.2250   23.4770 C.2    93  THR93       0.2313
     12  O          9.6840   -4.5160   24.4930 O.2    93  THR93      -0.2863
     13  CB        11.5270   -4.7780   21.6700 C.3    93  THR93       0.1794
     14  OG1       12.3910   -4.3950   22.7580 O.3    93  THR93      -0.2208
     15  CG2       11.8590   -3.9660   20.3500 C.3    93  THR93       0.0378
     16  N          1.0040    3.4660   24.3120 N.3   104  LYS104     -0.1231
     17  CA         0.4550    2.9440   23.0600 C.3   104  LYS104      0.1678
     18  C          1.2450    3.6380   21.9400 C.2   104  LYS104      0.2434
     19  O          1.6110    4.8090   22.0680 O.2   104  LYS104     -0.2733
     20  CB        -1.0380    3.2390   22.9160 C.3   104  LYS104      0.0284
     21  CG        -1.9310    2.6280   24.0570 C.3   104  LYS104      0.0035
     22  CD        -2.0280    1.1780   23.9030 C.3   104  LYS104      0.0206
     23  CE        -3.0900    0.5940   24.8470 C.3   104  LYS104      0.1093
     24  NZ        -2.5830    0.4100   26.2180 N.3   104  LYS104     -0.1314
     25  N          1.4530    2.9280   20.8250 N.am  105  PRO105     -0.2718
     26  CA         2.3160    3.4670   19.8100 C.3   105  PRO105      0.1535
     27  C          1.7310    4.7110   19.1680 C.2   105  PRO105      0.2599
     28  O          0.4990    4.7980   18.9120 O.2   105  PRO105     -0.2715
     29  CB         2.4850    2.3000   18.8110 C.3   105  PRO105      0.0310
     30  CG         1.4500    1.3050   19.1440 C.3   105  PRO105      0.0237
     31  CD         0.8820    1.6260   20.4490 C.3   105  PRO105      0.0939
     32  N          2.5960    5.6700   18.8720 N.am  106  PHE106     -0.1960
     33  CA         2.1780    6.8860   18.1790 C.3   106  PHE106      0.1771
     34  C          2.4280    6.8400   16.6630 C.2   106  PHE106      0.2619
     35  O          1.9440    7.7110   15.9350 O.2   106  PHE106     -0.2715
     36  CB         2.8740    8.1230   18.7630 C.3   106  PHE106      0.0574
     37  CG         4.4000    8.0770   18.6890 C.ar  106  PHE106     -0.0200
     38  CD1        5.0590    8.5400   17.5480 C.ar  106  PHE106     -0.0042
     39  CD2        5.1910    7.6230   19.7940 C.ar  106  PHE106     -0.0042
     40  CE1        6.4620    8.5100   17.4660 C.ar  106  PHE106     -0.0003
     41  CE2        6.5900    7.5960   19.7140 C.ar  106  PHE106     -0.0003
     42  CZ         7.2330    8.0320   18.5680 C.ar  106  PHE106     -0.0000
     43  N          3.1670    5.8320   16.2170 N.am  107  MET107     -0.1963
     44  CA         3.4650    5.6450   14.7930 C.3   107  MET107      0.1736
     45  C          3.7710    4.1780   14.5520 C.2   107  MET107      0.2617
     46  O          4.3910    3.5000   15.3820 O.2   107  MET107     -0.2715
     47  CB         4.6550    6.5200   14.3770 C.3   107  MET107      0.0427
     48  CG         4.9190    6.5940   12.8360 C.3   107  MET107      0.0599
     49  SD         6.2660    7.7300   12.4320 S.3   107  MET107     -0.1393
     50  CE         5.6390    9.2600   13.0590 C.3   107  MET107      0.0692
     51  N          3.3170    3.6740   13.4040 N.am  108  SER108     -0.1950
     52  CA         3.5740    2.3040   13.0290 C.3   108  SER108      0.1924
     53  C          4.7810    2.2990   12.0830 C.2   108  SER108      0.2314
     54  O          5.0890    3.3040   11.4300 O.2   108  SER108     -0.2863
     55  CB         2.3730    1.6740   12.3350 C.3   108  SER108      0.2116
     56  OG         2.0650    2.3770   11.1660 O.3   108  SER108     -0.2180
     57  N          5.6780   -5.9050   11.6890 N.3   217  SER217     -0.1202
     58  CA         4.6920   -4.9110   12.0190 C.3   217  SER217      0.2020
     59  C          4.8620   -4.5330   13.4780 C.2   217  SER217      0.2619
     60  O          4.7180   -5.3940   14.3790 O.2   217  SER217     -0.2717
     61  CB         3.3000   -5.4860   11.8210 C.3   217  SER217      0.2103
     62  OG         3.0570   -5.6540   10.4430 O.3   217  SER217     -0.2182
     63  N          5.2020   -3.2710   13.7000 N.am  218  LYS218     -0.1965
     64  CA         5.3650   -2.7880   15.0460 C.3   218  LYS218      0.1728
     65  C          5.1530   -1.2960   15.1570 C.2   218  LYS218      0.2616
     66  O          4.5720   -0.6650   14.2530 O.2   218  LYS218     -0.2715
     67  CB         6.6710   -3.2620   15.5780 C.3   218  LYS218      0.0311
     68  CG         7.8260   -2.7830   14.8210 C.3   218  LYS218      0.0038
     69  CD         8.8770   -3.8190   14.9260 C.3   218  LYS218      0.0206
     70  CE        10.2210   -3.3560   14.2830 C.3   218  LYS218      0.1093
     71  NZ        11.2460   -4.3840   14.3740 N.3   218  LYS218     -0.1314
     72  N          5.5620   -0.7270   16.2850 N.am  219  GLY219     -0.1955
     73  CA         5.2910    0.6570   16.5780 C.3   219  GLY219      0.1869
     74  C          6.3720    1.3260   17.4470 C.2   219  GLY219      0.2309
     75  O          7.1460    0.6240   18.1170 O.2   219  GLY219     -0.2863
     76  N         -1.1860   10.5110   24.0900 N.3   238  VAL238     -0.1231
     77  CA        -0.9340    9.9380   22.7530 C.3   238  VAL238      0.1692
     78  C         -2.2660    9.5710   22.1080 C.2   238  VAL238      0.2591
     79  O         -2.4740    9.8140   20.9320 O.2   238  VAL238     -0.2718
     80  CB         0.0290    8.7050   22.8000 C.3   238  VAL238      0.0266
     81  CG1        0.0260    7.8940   21.4460 C.3   238  VAL238      0.0020
     82  CG2        1.4210    9.1610   23.1720 C.3   238  VAL238      0.0020
     83  N         -3.1580    8.9750   22.8890 N.am  239  LEU239     -0.1980
     84  CA        -4.4960    8.5770   22.3420 C.3   239  LEU239      0.1596
     85  C         -5.3450    9.7830   21.9050 C.2   239  LEU239      0.2287
     86  O         -5.9690    9.7800   20.8300 O.2   239  LEU239     -0.2864
     87  CB        -5.2610    7.7510   23.3670 C.3   239  LEU239      0.0297
     88  CG        -4.8290    6.3180   23.6970 C.3   239  LEU239      0.0022
     89  CD1       -5.9040    5.6880   24.5690 C.3   239  LEU239      0.0001
     90  CD2       -4.5950    5.4250   22.4830 C.3   239  LEU239      0.0001
     91  N         -3.8220   11.2390   18.6990 N.3   242  SER242     -0.1217
     92  CA        -4.2570   10.3530   17.6450 C.3   242  SER242      0.1889
     93  C         -5.6880   10.6940   17.2230 C.2   242  SER242      0.2288
     94  O         -5.9540   10.9510   16.0520 O.2   242  SER242     -0.2866
     95  CB        -4.2400    8.8960   18.0960 C.3   242  SER242      0.2089
     96  OG        -4.7680    8.0070   17.1100 O.3   242  SER242     -0.2183
     97  N         -1.4090   13.5630   15.2250 N.3   247  LEU247     -0.1231
     98  CA        -0.3570   12.6500   14.7650 C.3   247  LEU247      0.1693
     99  C         -0.3350   12.5820   13.2200 C.2   247  LEU247      0.2592
    100  O          0.7210   12.5760   12.6140 O.2   247  LEU247     -0.2718
    101  CB        -0.4900   11.2600   15.3910 C.3   247  LEU247      0.0284
    102  CG        -0.4480   11.1630   16.9290 C.3   247  LEU247      0.0019
    103  CD1       -0.5020    9.6960   17.3810 C.3   247  LEU247      0.0001
    104  CD2        0.8040   11.8670   17.4600 C.3   247  LEU247      0.0001
    105  N         -1.5020   12.5610   12.6030 N.am  248  ASP248     -0.1974
    106  CA        -1.5510   12.5410   11.1440 C.3   248  ASP248      0.1709
    107  C         -1.0140   13.8620   10.5360 C.2   248  ASP248      0.2293
    108  O         -0.2460   13.8320    9.5470 O.2   248  ASP248     -0.2864
    109  CB        -2.9760   12.2200   10.6690 C.3   248  ASP248      0.1436
    110  CG        -3.4010   10.7810   10.9700 C.2   248  ASP248      0.3671
    111  OD1       -2.6130    9.8190   10.8130 O.co2 248  ASP248     -0.2456
    112  OD2       -4.5640   10.6070   11.3510 O.co2 248  ASP248     -0.2456
@<TRIPOS>BOND
     1   108   107    2
     2    62    61    1
     3   107   106    1
     4   109   110    1
     5   109   106    1
     6   111   110   ar
     7   110   112   ar
     8   106   105    1
     9    56    55    1
    10    54    53    2
    11    57    58    1
    12    61    58    1
    13    58    59    1
    14    53    52    1
    15    55    52    1
    16    49    48    1
    17    49    50    1
    18   105    99   am
    19   100    99    2
    20    48    47    1
    21    52    51    1
    22    99    98    1
    23    51    45   am
    24    59    63   am
    25    59    60    2
    26    63    64    1
    27    66    65    2
    28    70    71    1
    29    70    69    1
    30    47    44    1
    31    45    44    1
    32    45    46    2
    33    98    97    1
    34    98   101    1
    35    44    43    1
    36    68    69    1
    37    68    67    1
    38    64    65    1
    39    64    67    1
    40    65    72   am
    41   101   102    1
    42    35    34    2
    43    94    93    2
    44    43    34   am
    45    72    73    1
    46    73    74    1
    47    34    33    1
    48   102   103    1
    49   102   104    1
    50    96    95    1
    51    93    92    1
    52    74    75    2
    53    40    38   ar
    54    40    42   ar
    55    38    37   ar
    56    92    95    1
    57    92    91    1
    58    33    36    1
    59    33    32    1
    60    42    41   ar
    61    37    36    1
    62    37    39   ar
    63    29    30    1
    64    29    26    1
    65    32    27   am
    66    28    27    2
    67    30    31    1
    68    27    26    1
    69    41    39   ar
    70    26    25    1
    71     4     3    2
    72     1     2    1
    73    15    13    1
    74    31    25    1
    75    25    18   am
    76    86    85    2
    77    79    78    2
    78     3     2    1
    79     3     9   am
    80     2     5    1
    81     5     6    1
    82     5     7    1
    83    81    80    1
    84     8     6    1
    85    13    10    1
    86    13    14    1
    87    85    84    1
    88    18    19    2
    89    18    17    1
    90    10     9    1
    91    10    11    1
    92    78    77    1
    93    78    83   am
    94    84    83    1
    95    84    87    1
    96    90    88    1
    97    77    80    1
    98    77    76    1
    99    80    82    1
   100    20    17    1
   101    20    21    1
   102    17    16    1
   103    87    88    1
   104    11    12    2
   105    88    89    1
   106    22    21    1
   107    22    23    1
   108    23    24    1
