@<TRIPOS>MOLECULE
tmp/3pmwA01.pdb
 97 93 0 0 0
SMALL
GASTEIGER

@<TRIPOS>ATOM
      1  N          9.0620   -0.4110   20.2630 N.3    90  ILE90      -0.1245
      2  CA         8.4830   -1.1150   21.3760 C.3    90  ILE90       0.1561
      3  C          8.8640   -2.5610   21.2160 C.2    90  ILE90       0.2260
      4  O          8.4850   -3.1690   20.2090 O.2    90  ILE90      -0.2867
      5  CB         6.9150   -1.0430   21.3920 C.3    90  ILE90       0.0252
      6  CG1        6.3750    0.4040   21.4840 C.3    90  ILE90       0.0019
      7  CG2        6.3770   -1.8190   22.5810 C.3    90  ILE90       0.0019
      8  CD1        4.8210    0.4550   21.5800 C.3    90  ILE90       0.0001
      9  N          1.2240    3.3880   24.2660 N.3   102  LYS102     -0.1231
     10  CA         0.7140    2.8300   23.0210 C.3   102  LYS102      0.1678
     11  C          1.5130    3.4750   21.8510 C.2   102  LYS102      0.2439
     12  O          2.0430    4.5760   21.9830 O.2   102  LYS102     -0.2733
     13  CB        -0.7900    3.1410   22.8400 C.3   102  LYS102      0.0284
     14  CG        -1.7710    2.6330   23.9060 C.3   102  LYS102      0.0035
     15  CD        -1.8280    1.1340   23.9560 C.3   102  LYS102      0.0206
     16  CE        -2.9180    0.6270   24.9100 C.3   102  LYS102      0.1093
     17  NZ        -2.5950    0.8730   26.3570 N.3   102  LYS102     -0.1314
     18  N          1.5940    2.7840   20.6950 N.am  103  PRO103     -0.2643
     19  CA         2.3650    3.2890   19.5430 C.3   103  PRO103      0.1762
     20  C          1.8290    4.5690   18.9050 C.2   103  PRO103      0.2642
     21  O          0.6700    4.6230   18.5330 O.2   103  PRO103     -0.2712
     22  CB         2.3260    2.1380   18.5420 C.2   103  PRO103     -0.0003
     23  CG         1.3970    1.1250   19.0550 C.2   103  PRO103     -0.0071
     24  CD         0.9820    1.4680   20.4380 C.3   103  PRO103      0.1204
     25  N          2.6790    5.5950   18.7770 N.am  104  PHE104     -0.1957
     26  CA         2.2890    6.8710   18.1400 C.3   104  PHE104      0.1771
     27  C          2.4900    6.8640   16.6060 C.2   104  PHE104      0.2619
     28  O          1.9440    7.7220   15.8800 O.2   104  PHE104     -0.2715
     29  CB         2.9970    8.0920   18.8030 C.3   104  PHE104      0.0574
     30  CG         4.5220    8.1140   18.6590 C.ar  104  PHE104     -0.0200
     31  CD1        5.1250    8.5110   17.4790 C.ar  104  PHE104     -0.0042
     32  CD2        5.3470    7.7530   19.7330 C.ar  104  PHE104     -0.0042
     33  CE1        6.5230    8.5260   17.3490 C.ar  104  PHE104     -0.0003
     34  CE2        6.7640    7.7710   19.5950 C.ar  104  PHE104     -0.0003
     35  CZ         7.3320    8.1480   18.4120 C.ar  104  PHE104     -0.0000
     36  N          3.2680    5.8990   16.1220 N.am  105  MET105     -0.1963
     37  CA         3.5590    5.7470   14.7270 C.3   105  MET105      0.1736
     38  C          3.9200    4.2920   14.5100 C.2   105  MET105      0.2617
     39  O          4.4950    3.6430   15.3890 O.2   105  MET105     -0.2715
     40  CB         4.7340    6.6540   14.3330 C.3   105  MET105      0.0427
     41  CG         4.8170    6.9730   12.8320 C.3   105  MET105      0.0599
     42  SD         6.2790    7.8720   12.3180 S.3   105  MET105     -0.1393
     43  CE         5.9900    9.4940   12.9450 C.3   105  MET105      0.0692
     44  N          3.5800    3.7780   13.3330 N.am  106  SER106     -0.1950
     45  CA         3.8570    2.4040   12.9420 C.3   106  SER106      0.1924
     46  C          5.0370    2.3860   11.9590 C.2   106  SER106      0.2314
     47  O          5.3470    3.3840   11.3480 O.2   106  SER106     -0.2863
     48  CB         2.6180    1.7580   12.3260 C.3   106  SER106      0.2116
     49  OG         2.3710    2.2570   11.0170 O.3   106  SER106     -0.2180
     50  N          5.7280   -5.8140   11.8260 N.3   215  SER215     -0.1202
     51  CA         4.8050   -4.7070   12.1830 C.3   215  SER215      0.2020
     52  C          5.0120   -4.3340   13.6100 C.2   215  SER215      0.2619
     53  O          4.7350   -5.1190   14.5160 O.2   215  SER215     -0.2717
     54  CB         3.3500   -5.1100   12.0360 C.3   215  SER215      0.2103
     55  OG         3.1370   -5.5760   10.7400 O.3   215  SER215     -0.2182
     56  N          5.5540   -3.1490   13.8070 N.am  216  LYS216     -0.1965
     57  CA         5.9160   -2.6850   15.1060 C.3   216  LYS216      0.1728
     58  C          5.4940   -1.2200   15.1930 C.2   216  LYS216      0.2616
     59  O          4.8440   -0.6940   14.2800 O.2   216  LYS216     -0.2715
     60  CB         7.4170   -2.8780   15.3110 C.3   216  LYS216      0.0311
     61  CG         7.7930   -4.2930   15.7050 C.3   216  LYS216      0.0038
     62  CD         7.4870   -4.5390   17.2000 C.3   216  LYS216      0.0206
     63  CE         7.9540   -5.9150   17.7180 C.3   216  LYS216      0.1093
     64  NZ         8.7040   -5.7520   18.9890 N.3   216  LYS216     -0.1314
     65  N          5.8500   -0.5650   16.2850 N.am  217  GLY217     -0.1955
     66  CA         5.5640    0.8590   16.4290 C.3   217  GLY217      0.1869
     67  C          6.5240    1.5180   17.3620 C.2   217  GLY217      0.2309
     68  O          7.2050    0.8410   18.0970 O.2   217  GLY217     -0.2863
     69  N         -1.1630   10.4740   24.0760 N.3   236  VAL236     -0.1231
     70  CA        -0.9670    9.8700   22.7400 C.3   236  VAL236      0.1692
     71  C         -2.2930    9.4610   22.0970 C.2   236  VAL236      0.2591
     72  O         -2.5260    9.7350   20.9280 O.2   236  VAL236     -0.2718
     73  CB         0.0270    8.6370   22.8010 C.3   236  VAL236      0.0266
     74  CG1        0.0270    7.8060   21.4630 C.3   236  VAL236      0.0020
     75  CG2        1.4590    9.0920   23.1980 C.3   236  VAL236      0.0020
     76  N         -3.1410    8.7600   22.8530 N.am  237  LEU237     -0.1980
     77  CA        -4.5100    8.3900   22.4050 C.3   237  LEU237      0.1596
     78  C         -5.3370    9.5920   21.9630 C.2   237  LEU237      0.2287
     79  O         -6.0320    9.5390   20.9620 O.2   237  LEU237     -0.2864
     80  CB        -5.2740    7.6160   23.5120 C.3   237  LEU237      0.0297
     81  CG        -5.2400    6.0780   23.4540 C.3   237  LEU237      0.0022
     82  CD1       -6.2000    5.4750   24.4760 C.3   237  LEU237      0.0001
     83  CD2       -5.5880    5.5360   22.0600 C.3   237  LEU237      0.0001
     84  N         -3.8480   11.2120   18.7800 N.3   240  SER240     -0.1217
     85  CA        -4.3290   10.3020   17.7420 C.3   240  SER240      0.1889
     86  C         -5.6900   10.7570   17.2400 C.2   240  SER240      0.2288
     87  O         -5.8220   11.1950   16.0880 O.2   240  SER240     -0.2866
     88  CB        -4.4450    8.8690   18.2860 C.3   240  SER240      0.2089
     89  OG        -4.7810    7.9620   17.2680 O.3   240  SER240     -0.2183
     90  N         -1.4110   13.5710   15.3590 N.3   245  LEU245     -0.1245
     91  CA        -0.3850   12.6360   14.8950 C.3   245  LEU245      0.1561
     92  C         -0.2660   12.4850   13.3760 C.2   245  LEU245      0.2260
     93  O          0.8580   12.4620   12.8830 O.2   245  LEU245     -0.2867
     94  CB        -0.5770   11.2570   15.5210 C.3   245  LEU245      0.0270
     95  CG        -0.4620   11.1930   17.0320 C.3   245  LEU245      0.0019
     96  CD1       -0.6870    9.7600   17.4610 C.3   245  LEU245      0.0001
     97  CD2        0.8800   11.7480   17.5050 C.3   245  LEU245      0.0001
@<TRIPOS>BOND
     1    55    54    1
     2    49    48    1
     3    47    46    2
     4    50    51    1
     5    46    45    1
     6    54    51    1
     7    51    52    1
     8    42    41    1
     9    42    43    1
    10    48    45    1
    11    41    40    1
    12    93    92    2
    13    45    44    1
    14    44    38   am
    15    92    91    1
    16    52    56   am
    17    52    53    2
    18    56    57    1
    19    59    58    2
    20    40    37    1
    21    38    37    1
    22    38    39    2
    23    37    36    1
    24    91    90    1
    25    91    94    1
    26    57    58    1
    27    57    60    1
    28    58    65   am
    29    60    61    1
    30    94    95    1
    31    61    62    1
    32    28    27    2
    33    87    86    2
    34    36    27   am
    35    65    66    1
    36    66    67    1
    37    27    26    1
    38    95    96    1
    39    95    97    1
    40    62    63    1
    41    86    85    1
    42    89    88    1
    43    33    31   ar
    44    33    35   ar
    45    67    68    2
    46    31    30   ar
    47    63    64    1
    48    85    88    1
    49    85    84    1
    50    26    25    1
    51    26    29    1
    52    35    34   ar
    53    21    20    2
    54    22    23    2
    55    22    19    1
    56    30    29    1
    57    30    32   ar
    58    25    20   am
    59    20    19    1
    60    23    24    1
    61    19    18    1
    62    34    32   ar
    63     4     3    2
    64     1     2    1
    65    24    18    1
    66    18    11   am
    67    72    71    2
    68    79    78    2
    69     3     2    1
    70     2     5    1
    71     5     6    1
    72     5     7    1
    73    74    73    1
    74     6     8    1
    75    11    12    2
    76    11    10    1
    77    78    77    1
    78    83    81    1
    79    71    70    1
    80    71    76   am
    81    77    76    1
    82    77    80    1
    83    70    73    1
    84    70    69    1
    85    73    75    1
    86    13    10    1
    87    13    14    1
    88    10     9    1
    89    81    80    1
    90    81    82    1
    91    14    15    1
    92    15    16    1
    93    16    17    1
