@<TRIPOS>MOLECULE
tmp/3pmxA01.pdb
 97 93 0 0 0
SMALL
GASTEIGER

@<TRIPOS>ATOM
      1  N          8.7860   -0.3660   20.3450 N.3    92  ILE92      -0.1245
      2  CA         8.2660   -1.2250   21.4150 C.3    92  ILE92       0.1561
      3  C          8.7110   -2.6690   21.1630 C.2    92  ILE92       0.2260
      4  O          8.3300   -3.2830   20.1750 O.2    92  ILE92      -0.2867
      5  CB         6.7130   -1.1290   21.5410 C.3    92  ILE92       0.0252
      6  CG1        6.2800    0.3120   21.8320 C.3    92  ILE92       0.0019
      7  CG2        6.1830   -2.0930   22.6230 C.3    92  ILE92       0.0019
      8  CD1        4.9590    0.7030   21.2110 C.3    92  ILE92       0.0001
      9  N          1.0410    3.3810   24.2880 N.3   104  LYS104     -0.1231
     10  CA         0.5240    2.8670   23.0300 C.3   104  LYS104      0.1681
     11  C          1.2950    3.5560   21.8890 C.2   104  LYS104      0.2471
     12  O          1.6670    4.7390   22.0090 O.2   104  LYS104     -0.2730
     13  CB        -0.9620    3.1710   22.8750 C.3   104  LYS104      0.0284
     14  CG        -1.8620    2.5990   23.9380 C.3   104  LYS104      0.0035
     15  CD        -1.9740    1.0990   23.8660 C.3   104  LYS104      0.0206
     16  CE        -2.9920    0.6070   24.8950 C.3   104  LYS104      0.1093
     17  NZ        -2.4660    0.6130   26.2650 N.3   104  LYS104     -0.1314
     18  N          1.4620    2.8550   20.7540 N.am  105  PRO105     -0.2492
     19  CA         2.3140    3.4670   19.7400 C.3   105  PRO105      0.1619
     20  C          1.7360    4.7500   19.1390 C.2   105  PRO105      0.2605
     21  O          0.5240    4.8710   18.9770 O.2   105  PRO105     -0.2715
     22  CB         2.4830    2.3630   18.6780 C.3   105  PRO105      0.0570
     23  CG         1.5390    1.2730   19.0180 C.2   105  PRO105     -0.0077
     24  CD         0.8890    1.5640   20.3180 C.2   105  PRO105      0.0634
     25  N          2.6050    5.7100   18.8370 N.am  106  PHE106     -0.1960
     26  CA         2.1770    6.9570   18.2100 C.3   106  PHE106      0.1771
     27  C          2.4290    6.9480   16.6990 C.2   106  PHE106      0.2619
     28  O          1.9410    7.8340   15.9800 O.2   106  PHE106     -0.2715
     29  CB         2.8340    8.1700   18.8770 C.3   106  PHE106      0.0574
     30  CG         4.3420    8.1890   18.7890 C.ar  106  PHE106     -0.0200
     31  CD1        4.9850    8.6110   17.6160 C.ar  106  PHE106     -0.0042
     32  CD2        5.1140    7.7920   19.8770 C.ar  106  PHE106     -0.0042
     33  CE1        6.3640    8.6200   17.5330 C.ar  106  PHE106     -0.0003
     34  CE2        6.4780    7.8060   19.8200 C.ar  106  PHE106     -0.0003
     35  CZ         7.1230    8.2200   18.6420 C.ar  106  PHE106     -0.0000
     36  N          3.1800    5.9470   16.2460 N.am  107  MET107     -0.1963
     37  CA         3.5030    5.7720   14.8420 C.3   107  MET107      0.1736
     38  C          3.8810    4.3160   14.5560 C.2   107  MET107      0.2617
     39  O          4.5220    3.6250   15.3630 O.2   107  MET107     -0.2715
     40  CB         4.6210    6.7590   14.4130 C.3   107  MET107      0.0427
     41  CG         5.0200    6.6660   12.9380 C.3   107  MET107      0.0599
     42  SD         6.2640    7.8560   12.3720 S.3   107  MET107     -0.1393
     43  CE         5.6040    9.4100   12.9140 C.3   107  MET107      0.0692
     44  N          3.4530    3.8410   13.3870 N.am  108  SER108     -0.1950
     45  CA         3.7310    2.4960   12.9650 C.3   108  SER108      0.1924
     46  C          4.9530    2.4450   12.0410 C.2   108  SER108      0.2314
     47  O          5.3850    3.4580   11.4920 O.2   108  SER108     -0.2863
     48  CB         2.4870    1.8630   12.3150 C.3   108  SER108      0.2116
     49  OG         2.3980    2.2020   10.9590 O.3   108  SER108     -0.2180
     50  N          5.4560   -5.7930   11.7090 N.3   217  SER217     -0.1202
     51  CA         4.5390   -4.7450   12.0910 C.3   217  SER217      0.2020
     52  C          4.7900   -4.3840   13.5590 C.2   217  SER217      0.2619
     53  O          4.5020   -5.1480   14.4830 O.2   217  SER217     -0.2717
     54  CB         3.0990   -5.2180   11.9530 C.3   217  SER217      0.2103
     55  OG         2.7820   -5.5310   10.6010 O.3   217  SER217     -0.2182
     56  N          5.3240   -3.2020   13.7540 N.am  218  LYS218     -0.1965
     57  CA         5.5860   -2.7360   15.1040 C.3   218  LYS218      0.1728
     58  C          5.3180   -1.2500   15.1920 C.2   218  LYS218      0.2616
     59  O          4.7510   -0.6730   14.2600 O.2   218  LYS218     -0.2715
     60  CB         6.9800   -3.1490   15.5670 C.3   218  LYS218      0.0311
     61  CG         8.1050   -2.8910   14.6130 C.3   218  LYS218      0.0038
     62  CD         9.2800   -3.7240   15.0440 C.3   218  LYS218      0.0206
     63  CE        10.5140   -3.4600   14.2190 C.3   218  LYS218      0.1093
     64  NZ        11.3100   -4.7100   14.0740 N.3   218  LYS218     -0.1314
     65  N          5.6200   -0.6560   16.3450 N.am  219  GLY219     -0.1955
     66  CA         5.3440    0.7450   16.6070 C.3   219  GLY219      0.1869
     67  C          6.3700    1.4260   17.5150 C.2   219  GLY219      0.2309
     68  O          7.1330    0.7600   18.2260 O.2   219  GLY219     -0.2863
     69  N         -1.2740   10.6230   24.1010 N.3   238  VAL238     -0.1231
     70  CA        -0.9810   10.0010   22.7930 C.3   238  VAL238      0.1692
     71  C         -2.2920    9.5850   22.0850 C.2   238  VAL238      0.2591
     72  O         -2.4740    9.8740   20.9040 O.2   238  VAL238     -0.2718
     73  CB        -0.0410    8.7480   22.9010 C.3   238  VAL238      0.0266
     74  CG1       -0.0210    7.9500   21.5660 C.3   238  VAL238      0.0020
     75  CG2        1.3830    9.1440   23.3070 C.3   238  VAL238      0.0020
     76  N         -3.2180    8.9740   22.8390 N.am  239  LEU239     -0.1980
     77  CA        -4.5020    8.5490   22.2550 C.3   239  LEU239      0.1596
     78  C         -5.3930    9.7390   21.8580 C.2   239  LEU239      0.2287
     79  O         -6.0870    9.6650   20.8490 O.2   239  LEU239     -0.2864
     80  CB        -5.2540    7.5690   23.1740 C.3   239  LEU239      0.0297
     81  CG        -4.8680    6.0830   23.0840 C.3   239  LEU239      0.0022
     82  CD1       -5.4530    5.2930   24.2580 C.3   239  LEU239      0.0001
     83  CD2       -5.3130    5.4670   21.7470 C.3   239  LEU239      0.0001
     84  N         -3.8140   11.2400   18.7170 N.3   242  SER242     -0.1217
     85  CA        -4.2510   10.3410   17.6560 C.3   242  SER242      0.1889
     86  C         -5.6620   10.7200   17.1800 C.2   242  SER242      0.2288
     87  O         -5.8870   10.9970   16.0050 O.2   242  SER242     -0.2866
     88  CB        -4.2670    8.8850   18.1340 C.3   242  SER242      0.2089
     89  OG        -4.7070    8.0040   17.1130 O.3   242  SER242     -0.2183
     90  N         -1.3190   13.6380   15.1680 N.3   247  LEU247     -0.1245
     91  CA        -0.2390   12.7490   14.7380 C.3   247  LEU247      0.1561
     92  C         -0.1550   12.6300   13.2230 C.2   247  LEU247      0.2260
     93  O          0.9360   12.6260   12.6800 O.2   247  LEU247     -0.2867
     94  CB        -0.3530   11.3670   15.3650 C.3   247  LEU247      0.0270
     95  CG        -0.4960   11.2890   16.8950 C.3   247  LEU247      0.0019
     96  CD1       -0.4360    9.8480   17.2780 C.3   247  LEU247      0.0001
     97  CD2        0.5710   12.1290   17.6180 C.3   247  LEU247      0.0001
@<TRIPOS>BOND
     1    55    54    1
     2    49    48    1
     3    47    46    2
     4    50    51    1
     5    54    51    1
     6    46    45    1
     7    51    52    1
     8    48    45    1
     9    42    43    1
    10    42    41    1
    11    93    92    2
    12    41    40    1
    13    45    44    1
    14    92    91    1
    15    44    38   am
    16    52    56   am
    17    52    53    2
    18    56    57    1
    19    64    63    1
    20    63    62    1
    21    59    58    2
    22    40    37    1
    23    38    37    1
    24    38    39    2
    25    61    62    1
    26    61    60    1
    27    91    90    1
    28    91    94    1
    29    37    36    1
    30    57    58    1
    31    57    60    1
    32    58    65   am
    33    94    95    1
    34    28    27    2
    35    87    86    2
    36    36    27   am
    37    65    66    1
    38    66    67    1
    39    27    26    1
    40    95    96    1
    41    95    97    1
    42    89    88    1
    43    86    85    1
    44    67    68    2
    45    33    31   ar
    46    33    35   ar
    47    31    30   ar
    48    85    88    1
    49    85    84    1
    50    26    25    1
    51    26    29    1
    52    35    34   ar
    53    22    23    1
    54    22    19    1
    55    30    29    1
    56    30    32   ar
    57    25    20   am
    58    21    20    2
    59    23    24    2
    60    20    19    1
    61    19    18    1
    62    34    32   ar
    63     4     3    2
    64    24    18    1
    65     1     2    1
    66    18    11   am
    67    79    78    2
    68    72    71    2
    69     3     2    1
    70     8     6    1
    71     2     5    1
    72     5     6    1
    73     5     7    1
    74    74    73    1
    75    83    81    1
    76    78    77    1
    77    11    12    2
    78    11    10    1
    79    71    70    1
    80    71    76   am
    81    77    76    1
    82    77    80    1
    83    70    73    1
    84    70    69    1
    85    13    10    1
    86    13    14    1
    87    73    75    1
    88    10     9    1
    89    81    80    1
    90    81    82    1
    91    15    14    1
    92    15    16    1
    93    16    17    1
