@<TRIPOS>MOLECULE
tmp/3pmyA00.pdb
 129 120 0 0 0
SMALL
GASTEIGER

@<TRIPOS>ATOM
      1  N          1.4240   -6.3610   11.3430 N.3    33  ASP33      -0.1239
      2  CA         1.5660   -5.4080   10.2360 C.3    33  ASP33       0.1674
      3  C          2.8880   -4.6670   10.3770 C.2    33  ASP33       0.2266
      4  O          3.0430   -3.8330   11.2840 O.2    33  ASP33      -0.2867
      5  CB         0.3610   -4.4500   10.2690 C.3    33  ASP33       0.1410
      6  CG         0.2430   -3.4610    9.1660 C.2    33  ASP33       0.3668
      7  OD1        1.1880   -3.3700    8.3630 O.co2  33  ASP33      -0.2456
      8  OD2       -0.7920   -2.7270    9.1570 O.co2  33  ASP33      -0.2456
      9  N          5.4290   -1.9600    9.8150 N.3    35  ASP35      -0.1239
     10  CA         5.0780   -0.5890    9.5470 C.3    35  ASP35       0.1674
     11  C          6.2960    0.3240    9.6020 C.2    35  ASP35       0.2266
     12  O          6.7310    0.7300   10.7040 O.2    35  ASP35      -0.2867
     13  CB         4.0570   -0.1200   10.5700 C.3    35  ASP35       0.1410
     14  CG         3.5750    1.3070   10.4100 C.2    35  ASP35       0.3668
     15  OD1        3.9270    1.8710    9.3440 O.co2  35  ASP35      -0.2456
     16  OD2        2.8630    1.8290   11.3440 O.co2  35  ASP35      -0.2456
     17  N          6.3760    3.3300    8.9900 N.3    37  GLY37      -0.1210
     18  CA         5.8840    4.6020    9.4080 C.3    37  GLY37       0.1956
     19  C          5.6030    4.7130   10.9010 C.2    37  GLY37       0.2612
     20  O          5.0550    5.7460   11.3130 O.2    37  GLY37      -0.2717
     21  N          5.9710    3.7420   11.7310 N.am   38  SER38      -0.1952
     22  CA         5.8620    3.8900   13.1630 C.3    38  SER38       0.1924
     23  C          6.9150    3.0220   13.8490 C.2    38  SER38       0.2314
     24  O          7.6170    2.2860   13.1640 O.2    38  SER38      -0.2863
     25  CB         4.4440    3.5700   13.6510 C.3    38  SER38       0.2116
     26  OG         4.2180    2.1750   13.5000 O.3    38  SER38      -0.2180
     27  N         -2.3920    6.9660   15.1030 N.3    79  TYR79      -0.1227
     28  CA        -1.9100    6.9280   13.7320 C.3    79  TYR79       0.1736
     29  C         -2.6240    7.9750   12.9130 C.2    79  TYR79       0.2596
     30  O         -3.6470    8.5210   13.3390 O.2    79  TYR79      -0.2718
     31  CB        -2.1070    5.5180   13.1940 C.3    79  TYR79       0.0548
     32  CG        -1.3730    4.4230   13.9460 C.ar   79  TYR79      -0.0200
     33  CD1       -2.0100    3.5910   14.8540 C.ar   79  TYR79      -0.0009
     34  CD2       -0.0170    4.2280   13.7430 C.ar   79  TYR79      -0.0009
     35  CE1       -1.3070    2.6020   15.5250 C.ar   79  TYR79       0.0417
     36  CE2        0.7200    3.2470   14.4070 C.ar   79  TYR79       0.0417
     37  CZ         0.0340    2.4410   15.2970 C.ar   79  TYR79       0.1957
     38  OH         0.6880    1.4360   15.9980 O.3    79  TYR79      -0.2866
     39  N         -2.0270    8.2080   11.7350 N.am   80  GLY80      -0.1942
     40  CA        -2.4480    9.3420   10.9060 C.3    80  GLY80       0.2014
     41  C         -3.8810    9.1820   10.4480 C.2    80  GLY80       0.2638
     42  O         -4.5200   10.1890   10.1070 O.2    80  GLY80      -0.2714
     43  N         -4.3700    7.9400   10.4290 N.am   81  ASP81      -0.1971
     44  CA        -5.7490    7.7020    9.9960 C.3    81  ASP81       0.1709
     45  C         -6.7280    7.8380   11.1590 C.2    81  ASP81       0.2293
     46  O         -7.9250    7.6030   11.0160 O.2    81  ASP81      -0.2864
     47  CB        -5.8770    6.3290    9.3330 C.3    81  ASP81       0.1436
     48  CG        -5.7770    5.1860   10.3240 C.2    81  ASP81       0.3671
     49  OD1       -5.3230    5.4420   11.4640 O.co2  81  ASP81      -0.2456
     50  OD2       -6.1440    4.0350    9.9610 O.co2  81  ASP81      -0.2456
     51  N         -6.7450    6.0500   14.0150 N.3    83  SER83      -0.1217
     52  CA        -6.8120    4.8660   14.8810 C.3    83  SER83       0.1889
     53  C         -5.7970    5.0140   15.9930 C.2    83  SER83       0.2288
     54  O         -4.8870    5.8430   15.9620 O.2    83  SER83      -0.2866
     55  CB        -6.5910    3.5890   14.0800 C.3    83  SER83       0.2089
     56  OG        -5.2920    3.5510   13.5610 O.3    83  SER83      -0.2183
     57  N         -9.1260   -1.3440   14.6180 N.3   116  PHE116     -0.1241
     58  CA        -8.3140   -2.5240   14.9000 C.3   116  PHE116      0.1605
     59  C         -9.2220   -3.6670   15.2620 C.2   116  PHE116      0.2264
     60  O         -9.0130   -4.7960   14.8040 O.2   116  PHE116     -0.2867
     61  CB        -7.2860   -2.2300   16.0080 C.3   116  PHE116      0.0534
     62  CG        -6.1860   -1.2960   15.5540 C.ar  116  PHE116     -0.0203
     63  CD1       -5.2860   -1.7250   14.5990 C.ar  116  PHE116     -0.0042
     64  CD2       -6.0280   -0.0110   16.0350 C.ar  116  PHE116     -0.0042
     65  CE1       -4.2700   -0.9280   14.1480 C.ar  116  PHE116     -0.0003
     66  CE2       -5.0110    0.8160   15.5910 C.ar  116  PHE116     -0.0003
     67  CZ        -4.1330    0.3620   14.6210 C.ar  116  PHE116     -0.0000
     68  N          1.0270   -4.4920   15.3810 N.3   125  LEU125     -0.1245
     69  CA         1.9680   -3.7690   14.4960 C.3   125  LEU125      0.1561
     70  C          3.4080   -4.0390   14.9250 C.2   125  LEU125      0.2260
     71  O          3.6630   -4.1630   16.1500 O.2   125  LEU125     -0.2867
     72  CB         1.6970   -2.2600   14.4770 C.3   125  LEU125      0.0270
     73  CG         0.6680   -1.7090   13.4790 C.3   125  LEU125      0.0019
     74  CD1       -0.7030   -2.3670   13.7530 C.3   125  LEU125      0.0001
     75  CD2        0.5020   -0.2130   13.4010 C.3   125  LEU125      0.0001
     76  N          6.4320    4.3520    3.6650 N.3   219  ASP219     -0.1239
     77  CA         5.5460    3.8890    4.7460 C.3   219  ASP219      0.1674
     78  C          4.7840    2.6070    4.4000 C.2   219  ASP219      0.2266
     79  O          3.7380    2.6300    3.7570 O.2   219  ASP219     -0.2867
     80  CB         4.6010    4.9750    5.1660 C.3   219  ASP219      0.1410
     81  CG         3.7790    4.6280    6.3700 C.2   219  ASP219      0.3668
     82  OD1        2.9890    5.5380    6.7090 O.co2 219  ASP219     -0.2456
     83  OD2        3.9500    3.5090    6.9090 O.co2 219  ASP219     -0.2456
     84  N          3.1210    0.8630    6.2850 N.3   221  GLY221     -0.1210
     85  CA         1.9020    0.7390    7.0330 C.3   221  GLY221      0.1956
     86  C          0.7980    1.6270    6.4870 C.2   221  GLY221      0.2613
     87  O         -0.2750    1.6650    7.1000 O.2   221  GLY221     -0.2717
     88  N          0.9630    2.3310    5.3890 N.am  222  THR222     -0.1938
     89  CA        -0.0410    3.1270    4.7040 C.3   222  THR222      0.2028
     90  C         -0.3820    2.4320    3.3950 C.2   222  THR222      0.2642
     91  O          0.5040    2.0380    2.6550 O.2   222  THR222     -0.2714
     92  CB         0.4590    4.5640    4.4390 C.3   222  THR222      0.1808
     93  OG1        0.5630    5.3020    5.6730 O.3   222  THR222     -0.2208
     94  CG2       -0.5370    5.3680    3.6450 C.3   222  THR222      0.0379
     95  N         -1.6520    2.2320    3.0980 N.am  223  THR223     -0.1950
     96  CA        -2.1160    1.5060    1.9370 C.3   223  THR223      0.1897
     97  C         -1.8180    2.2200    0.6430 C.2   223  THR223      0.2313
     98  O         -1.3630    1.6550   -0.3380 O.2   223  THR223     -0.2863
     99  CB        -3.6480    1.2810    2.0450 C.3   223  THR223      0.1794
    100  OG1       -3.9920    0.7020    3.2930 O.3   223  THR223     -0.2208
    101  CG2       -4.0870    0.3420    0.9360 C.3   223  THR223      0.0378
    102  N         -0.0420    9.0010   -1.2610 N.3   226  TYR226     -0.1241
    103  CA        -0.5460   10.3540   -0.9750 C.3   226  TYR226      0.1605
    104  C          0.4570   11.4050   -1.4610 C.2   226  TYR226      0.2264
    105  O          1.5860   11.4210   -0.9600 O.2   226  TYR226     -0.2867
    106  CB        -0.8320   10.5230    0.5100 C.3   226  TYR226      0.0534
    107  CG        -1.9530    9.6420    1.0000 C.ar  226  TYR226     -0.0201
    108  CD1       -3.2560   10.0920    0.9540 C.ar  226  TYR226     -0.0009
    109  CD2       -1.7370    8.3700    1.5150 C.ar  226  TYR226     -0.0009
    110  CE1       -4.3070    9.3070    1.3970 C.ar  226  TYR226      0.0417
    111  CE2       -2.7600    7.5670    1.9400 C.ar  226  TYR226      0.0417
    112  CZ        -4.0560    8.0400    1.8940 C.ar  226  TYR226      0.1957
    113  OH        -5.0680    7.2170    2.3210 O.3   226  TYR226     -0.2866
    114  N         -3.0030   16.0350    5.2270 N.3   300  ILE300     -0.1245
    115  CA        -2.1760   15.1420    6.0220 C.3   300  ILE300      0.1561
    116  C         -0.9350   15.8120    6.5700 C.2   300  ILE300      0.2260
    117  O         -0.4830   15.5770    7.6890 O.2   300  ILE300     -0.2867
    118  CB        -1.6920   13.9100    5.2050 C.3   300  ILE300      0.0252
    119  CG1       -2.8170   12.9620    4.8280 C.3   300  ILE300      0.0019
    120  CG2       -0.5800   13.1560    5.9410 C.3   300  ILE300      0.0019
    121  CD1       -2.3220   11.8950    3.8580 C.3   300  ILE300      0.0001
    122  N          3.1580   10.6700    1.3690 N.3   304  ILE304     -0.1245
    123  CA         3.3710    9.2730    1.8120 C.3   304  ILE304      0.1561
    124  C          3.4230    8.2940    0.6500 C.2   304  ILE304      0.2260
    125  O          2.4670    8.0930   -0.0950 O.2   304  ILE304     -0.2867
    126  CB         2.2890    8.8040    2.7790 C.3   304  ILE304      0.0252
    127  CG1        2.1020    9.7680    3.9400 C.3   304  ILE304      0.0019
    128  CG2        2.6330    7.3920    3.2570 C.3   304  ILE304      0.0019
    129  CD1        0.9690    9.4180    4.8830 C.3   304  ILE304      0.0001
@<TRIPOS>BOND
     1   104   103    1
     2   104   105    2
     3   102   103    1
     4   103   106    1
     5    98    97    2
     6   125   124    2
     7   106   107    1
     8    97    96    1
     9   124   123    1
    10   101    99    1
    11   108   107   ar
    12   108   110   ar
    13   107   109   ar
    14   122   123    1
    15   110   112   ar
    16   109   111   ar
    17   123   126    1
    18   112   111   ar
    19   112   113    1
    20    96    99    1
    21    96    95    1
    22    99   100    1
    23    91    90    2
    24   126   128    1
    25   126   127    1
    26    95    90   am
    27    90    89    1
    28    94    92    1
    29    76    77    1
    30    79    78    2
    31   121   119    1
    32   127   129    1
    33    78    77    1
    34    92    89    1
    35    92    93    1
    36    89    88    1
    37    77    80    1
    38   119   118    1
    39    80    81    1
    40   118   120    1
    41   118   115    1
    42   114   115    1
    43    88    86   am
    44   115   116    1
    45    84    85    1
    46    81    82   ar
    47    81    83   ar
    48    86    85    1
    49    86    87    2
    50   116   117    2
    51     7     6   ar
    52    17    18    1
    53     8     6   ar
    54     6     5    1
    55    47    44    1
    56    47    48    1
    57    15    14   ar
    58    18    19    1
    59    10    11    1
    60    10     9    1
    61    10    13    1
    62    11    12    2
    63    50    48   ar
    64    44    43    1
    65    44    45    1
    66    42    41    2
    67     2     5    1
    68     2     3    1
    69     2     1    1
    70    48    49   ar
    71     3     4    2
    72    14    13    1
    73    14    16   ar
    74    43    41   am
    75    41    40    1
    76    19    20    2
    77    19    21   am
    78    40    39    1
    79    46    45    2
    80    21    22    1
    81    39    29   am
    82    29    30    2
    83    29    28    1
    84    22    25    1
    85    22    23    1
    86    24    23    2
    87    31    28    1
    88    31    32    1
    89    75    73    1
    90    73    74    1
    91    73    72    1
    92    26    25    1
    93    56    55    1
    94    28    27    1
    95    34    32   ar
    96    34    36   ar
    97    32    33   ar
    98    51    52    1
    99    55    52    1
   100    65    63   ar
   101    65    67   ar
   102    36    37   ar
   103    72    69    1
   104    69    70    1
   105    69    68    1
   106    63    62   ar
   107    57    58    1
   108    67    66   ar
   109    60    59    2
   110    33    35   ar
   111    52    53    1
   112    58    59    1
   113    58    61    1
   114    70    71    2
   115    37    35   ar
   116    37    38    1
   117    62    61    1
   118    62    64   ar
   119    66    64   ar
   120    54    53    2
