@<TRIPOS>MOLECULE
tmp/3pn1A00.pdb
 140 135 0 0 0
SMALL
GASTEIGER

@<TRIPOS>ATOM
      1  N        110.6800   99.2870   24.6740 N.3    80  LEU80      -0.1231
      2  CA       109.4160   99.2520   25.3850 C.3    80  LEU80       0.1693
      3  C        109.4250   98.1910   26.4790 C.2    80  LEU80       0.2593
      4  O        110.3940   97.3790   26.5740 O.2    80  LEU80      -0.2718
      5  CB       108.3260   98.9100   24.4170 C.3    80  LEU80       0.0284
      6  CG       108.2560   99.8540   23.1920 C.3    80  LEU80       0.0019
      7  CD1      107.0350   99.4440   22.3530 C.3    80  LEU80       0.0001
      8  CD2      108.2670  101.3690   23.5720 C.3    80  LEU80       0.0001
      9  N        108.3870   98.2400   27.3210 N.am   81  SER81      -0.1938
     10  CA       108.2170   97.2220   28.3760 C.3    81  SER81       0.2055
     11  C        107.1560   96.2650   27.9460 C.2    81  SER81       0.2642
     12  O        106.7200   96.2810   26.8100 O.2    81  SER81      -0.2714
     13  CB       107.8320   97.8370   29.7400 C.3    81  SER81       0.2130
     14  OG       108.0660   99.2720   29.7360 O.3    81  SER81      -0.2179
     15  N        106.7280   95.4250   28.8640 N.am   82  LEU82      -0.1977
     16  CA       105.7260   94.4280   28.6000 C.3    82  LEU82       0.1596
     17  C        104.5950   94.5330   29.6200 C.2    82  LEU82       0.2287
     18  O        104.8430   94.6930   30.8060 O.2    82  LEU82      -0.2864
     19  CB       106.3670   93.0320   28.7110 C.3    82  LEU82       0.0297
     20  CG       107.3230   92.5910   27.5850 C.3    82  LEU82       0.0022
     21  CD1      108.1500   91.3720   28.1020 C.3    82  LEU82       0.0001
     22  CD2      106.4820   92.2130   26.3320 C.3    82  LEU82       0.0001
     23  N        108.4870   82.3670   24.8900 N.3   114  GLU114     -0.1231
     24  CA       109.9020   82.4640   25.2960 C.3   114  GLU114      0.1684
     25  C        109.9680   82.4760   26.8120 C.2   114  GLU114      0.2434
     26  O        109.0140   82.9310   27.4730 O.2   114  GLU114     -0.2733
     27  CB       110.4830   83.7720   24.7410 C.3   114  GLU114      0.0402
     28  CG       110.3470   83.9460   23.2660 C.3   114  GLU114      0.1161
     29  CD       110.9690   85.2720   22.8470 C.2   114  GLU114      0.3649
     30  OE1      111.8000   85.8330   23.6250 O.co2 114  GLU114     -0.2457
     31  OE2      110.6390   85.7140   21.7190 O.co2 114  GLU114     -0.2457
     32  N        111.0850   82.0100   27.3900 N.am  115  PRO115     -0.2718
     33  CA       111.2500   82.2410   28.7860 C.3   115  PRO115      0.1535
     34  C        111.4910   83.7780   29.0030 C.2   115  PRO115      0.2598
     35  O        111.9990   84.4250   28.1180 O.2   115  PRO115     -0.2715
     36  CB       112.5400   81.4780   29.1160 C.3   115  PRO115      0.0310
     37  CG       113.4030   81.7020   27.8290 C.3   115  PRO115      0.0237
     38  CD       112.3030   81.4160   26.7750 C.3   115  PRO115      0.0939
     39  N        111.0950   84.3030   30.1600 N.am  116  LYS116     -0.1964
     40  CA       111.3230   85.7210   30.5280 C.3   116  LYS116      0.1728
     41  C        112.5950   85.7260   31.3240 C.2   116  LYS116      0.2616
     42  O        112.5990   85.3970   32.4890 O.2   116  LYS116     -0.2715
     43  CB       110.1880   86.2750   31.3990 C.3   116  LYS116      0.0311
     44  CG       110.3640   87.7960   31.7420 C.3   116  LYS116      0.0038
     45  CD       109.0490   88.3380   32.2880 C.3   116  LYS116      0.0206
     46  CE       109.0700   89.8730   32.3300 C.3   116  LYS116      0.1093
     47  NZ       110.2180   90.2920   33.1770 N.3   116  LYS116     -0.1314
     48  N        113.6990   86.0690   30.6760 N.am  117  LEU117     -0.1977
     49  CA       115.0130   86.0170   31.3500 C.3   117  LEU117      0.1596
     50  C        115.0700   87.0910   32.4140 C.2   117  LEU117      0.2287
     51  O        114.4190   88.1230   32.2770 O.2   117  LEU117     -0.2864
     52  CB       116.1250   86.1740   30.3110 C.3   117  LEU117      0.0297
     53  CG       116.0080   84.9110   29.4380 C.3   117  LEU117      0.0022
     54  CD1      116.5110   85.2260   28.1340 C.3   117  LEU117      0.0001
     55  CD2      116.7420   83.7690   30.1100 C.3   117  LEU117      0.0001
     56  N        118.3180   94.2430   30.4770 N.3   121  ALA121     -0.1245
     57  CA       118.0550   94.4700   29.0480 C.3   121  ALA121      0.1562
     58  C        119.1720   95.3260   28.4670 C.2   121  ALA121      0.2260
     59  O        119.5580   96.3760   29.0290 O.2   121  ALA121     -0.2867
     60  CB       116.7200   95.1790   28.8260 C.3   121  ALA121      0.0290
     61  N        119.1800   99.2870   28.6760 N.3   137  ARG137     -0.1245
     62  CA       117.8950   99.8630   28.4110 C.3   137  ARG137      0.1563
     63  C        117.6990  101.2610   29.0700 C.2   137  ARG137      0.2260
     64  O        117.0870  102.1730   28.4310 O.2   137  ARG137     -0.2867
     65  CB       116.8300   98.9470   28.8850 C.3   137  ARG137      0.0307
     66  CG       115.4400   99.4820   28.6090 C.3   137  ARG137      0.0489
     67  CD       114.3790   98.5290   29.0830 C.3   137  ARG137      0.2205
     68  NE       113.0770   99.0290   28.6750 N.pl3 137  ARG137     -0.0865
     69  CZ       112.3180   99.8200   29.4310 C.cat 137  ARG137      0.5346
     70  NH1      112.7500  100.2070   30.6200 N.pl3 137  ARG137      0.1354
     71  NH2      111.1700  100.2760   28.9600 N.pl3 137  ARG137      0.1354
     72  N        118.7970   89.9140   26.8790 N.3   174  GLU174     -0.1245
     73  CA       118.9810   90.0180   28.2900 C.3   174  GLU174      0.1567
     74  C        120.3720   89.5310   28.5780 C.2   174  GLU174      0.2260
     75  O        120.7970   88.4410   28.0850 O.2   174  GLU174     -0.2867
     76  CB       117.9550   89.1260   29.0230 C.3   174  GLU174      0.0388
     77  CG       117.7860   89.4750   30.5440 C.3   174  GLU174      0.1160
     78  CD       116.7900   90.6200   30.7240 C.2   174  GLU174      0.3649
     79  OE1      116.3960   91.2220   29.7380 O.co2 174  GLU174     -0.2457
     80  OE2      116.3870   90.8720   31.8450 O.co2 174  GLU174     -0.2457
     81  N        116.6250   88.4520   22.2680 N.3   226  TYR226     -0.1241
     82  CA       115.1940   88.1710   21.9940 C.3   226  TYR226      0.1605
     83  C        114.5240   89.1060   21.0090 C.2   226  TYR226      0.2264
     84  O        113.3100   89.0440   20.8450 O.2   226  TYR226     -0.2867
     85  CB       114.3360   88.1090   23.2790 C.3   226  TYR226      0.0534
     86  CG       114.6280   89.1920   24.2210 C.ar  226  TYR226     -0.0201
     87  CD1      114.4940   90.5360   23.8130 C.ar  226  TYR226     -0.0009
     88  CD2      115.0790   88.9060   25.5060 C.ar  226  TYR226     -0.0009
     89  CE1      114.7910   91.5450   24.6590 C.ar  226  TYR226      0.0417
     90  CE2      115.3650   89.9600   26.4030 C.ar  226  TYR226      0.0417
     91  CZ       115.2120   91.2510   25.9400 C.ar  226  TYR226      0.1957
     92  OH       115.4540   92.3080   26.7220 O.3   226  TYR226     -0.2866
     93  N        107.4750   85.1310   28.1740 N.3   289  VAL289     -0.1245
     94  CA       106.9580   86.1760   27.2440 C.3   289  VAL289      0.1561
     95  C        106.3020   85.5350   26.0410 C.2   289  VAL289      0.2260
     96  O        106.9900   84.8720   25.2490 O.2   289  VAL289     -0.2867
     97  CB       108.0210   87.1990   26.7930 C.3   289  VAL289      0.0252
     98  CG1      107.3180   88.3400   25.9540 C.3   289  VAL289      0.0019
     99  CG2      108.8090   87.8130   28.0390 C.3   289  VAL289      0.0019
    100  N        104.3880   86.0660   22.5130 N.3   291  LYS291     -0.1245
    101  CA       104.3960   87.0860   21.4960 C.3   291  LYS291      0.1561
    102  C        103.6440   86.5320   20.3060 C.2   291  LYS291      0.2260
    103  O        103.8590   85.3760   19.8940 O.2   291  LYS291     -0.2867
    104  CB       105.8390   87.3900   21.0610 C.3   291  LYS291      0.0271
    105  CG       106.6930   87.8780   22.2120 C.3   291  LYS291      0.0035
    106  CD       108.2150   87.9180   21.7560 C.3   291  LYS291      0.0206
    107  CE       109.0990   88.2210   22.9380 C.3   291  LYS291      0.1093
    108  NZ       110.6480   88.5040   22.5870 N.3   291  LYS291     -0.1314
    109  N        101.1740   99.4050   19.6280 N.3   303  PHE303     -0.1241
    110  CA       101.6040   99.6390   20.9960 C.3   303  PHE303      0.1605
    111  C        100.5270  100.3840   21.7890 C.2   303  PHE303      0.2264
    112  O         99.7480  101.1280   21.2150 O.2   303  PHE303     -0.2867
    113  CB       102.8680  100.5090   20.9820 C.3   303  PHE303      0.0534
    114  CG       103.9360  100.0010   20.0670 C.ar  303  PHE303     -0.0203
    115  CD1      104.5900   98.7890   20.3330 C.ar  303  PHE303     -0.0042
    116  CD2      104.2760  100.7120   18.9130 C.ar  303  PHE303     -0.0042
    117  CE1      105.6030   98.2730   19.4500 C.ar  303  PHE303     -0.0003
    118  CE2      105.2890  100.2250   18.0230 C.ar  303  PHE303     -0.0003
    119  CZ       105.9600   99.0010   18.3080 C.ar  303  PHE303     -0.0000
    120  N        103.9760   96.6190   23.7960 N.3   308  PRO308     -0.2116
    121  CA       103.2100   96.0160   22.6910 C.3   308  PRO308      0.1372
    122  C        101.8450   95.5930   23.1120 C.2   308  PRO308      0.2244
    123  O        101.6650   95.1490   24.2260 O.2   308  PRO308     -0.2868
    124  CB       104.0000   94.7310   22.3810 C.3   308  PRO308      0.0268
    125  CG       105.1720   94.7200   23.2660 C.3   308  PRO308      0.0207
    126  CD       105.3360   96.0450   23.8780 C.3   308  PRO308      0.0892
    127  N        100.9770   93.2550   21.3860 N.3   310  TRP310     -0.1241
    128  CA       101.0970   91.9180   20.7500 C.3   310  TRP310      0.1605
    129  C        101.8760   90.8590   21.5750 C.2   310  TRP310      0.2264
    130  O        102.0540   89.6990   21.1360 O.2   310  TRP310     -0.2867
    131  CB       101.6010   92.0590   19.3030 C.3   310  TRP310      0.0550
    132  CG       102.7240   93.0080   19.1790 C.ar  310  TRP310      0.0003
    133  CD1      102.6640   94.3240   18.7880 C.ar  310  TRP310      0.0946
    134  CD2      104.1240   92.7320   19.4550 C.ar  310  TRP310      0.0152
    135  NE1      103.9230   94.8670   18.7970 N.ar  310  TRP310     -0.2442
    136  CE2      104.8350   93.9120   19.1980 C.ar  310  TRP310      0.0810
    137  CE3      104.8270   91.5800   19.8530 C.ar  310  TRP310      0.0012
    138  CZ2      106.2080   94.0000   19.3430 C.ar  310  TRP310      0.0191
    139  CZ3      106.2200   91.6740   20.0190 C.ar  310  TRP310      0.0001
    140  CH2      106.8840   92.8620   19.7640 C.ar  310  TRP310      0.0015
@<TRIPOS>BOND
     1   118   119   ar
     2   118   116   ar
     3   119   117   ar
     4   133   135   ar
     5   133   132   ar
     6   135   136   ar
     7   116   114   ar
     8   132   131    1
     9   132   134   ar
    10   136   138   ar
    11   136   134   ar
    12   131   128    1
    13   138   140   ar
    14   117   115   ar
    15   134   137   ar
    16   109   110    1
    17   140   139   ar
    18   137   139   ar
    19   103   102    2
    20   114   115   ar
    21   114   113    1
    22   102   101    1
    23   128   127    1
    24   128   129    1
    25    84    83    2
    26   113   110    1
    27   110   111    1
    28    83    82    1
    29   104   101    1
    30   104   105    1
    31   130   129    2
    32   112   111    2
    33   101   100    1
    34    31    29   ar
    35   106   105    1
    36   106   107    1
    37    82    81    1
    38    82    85    1
    39     7     6    1
    40   124   121    1
    41   124   125    1
    42   108   107    1
    43   121   122    1
    44   121   120    1
    45    29    28    1
    46    29    30   ar
    47   122   123    2
    48     6     8    1
    49     6     5    1
    50    28    27    1
    51   125   126    1
    52    85    86    1
    53   120   126    1
    54    87    86   ar
    55    87    89   ar
    56    86    88   ar
    57     5     2    1
    58    89    91   ar
    59     1     2    1
    60    27    24    1
    61    23    24    1
    62    96    95    2
    63    24    25    1
    64     2     3    1
    65    88    90   ar
    66    91    90   ar
    67    91    92    1
    68    98    97    1
    69    95    94    1
    70    22    20    1
    71     3     4    2
    72     3     9   am
    73    38    32    1
    74    38    37    1
    75    97    94    1
    76    97    99    1
    77    12    11    2
    78    25    32   am
    79    25    26    2
    80    72    73    1
    81    94    93    1
    82     9    10    1
    83    32    33    1
    84    20    21    1
    85    20    19    1
    86    37    36    1
    87    11    10    1
    88    11    15   am
    89    75    74    2
    90    35    34    2
    91    54    53    1
    92    73    74    1
    93    73    76    1
    94    10    13    1
    95    62    61    1
    96    62    65    1
    97    62    63    1
    98    64    63    2
    99    58    59    2
   100    58    57    1
   101    16    19    1
   102    16    15    1
   103    16    17    1
   104    66    65    1
   105    66    67    1
   106    68    67    1
   107    68    69    2
   108    33    34    1
   109    33    36    1
   110    60    57    1
   111    71    69    1
   112    34    39   am
   113    76    77    1
   114    57    56    1
   115    69    70    1
   116    53    55    1
   117    53    52    1
   118    17    18    2
   119    14    13    1
   120    79    78   ar
   121    39    40    1
   122    52    49    1
   123    40    41    1
   124    40    43    1
   125    77    78    1
   126    48    41   am
   127    48    49    1
   128    78    80   ar
   129    41    42    2
   130    49    50    1
   131    43    44    1
   132    44    45    1
   133    51    50    2
   134    45    46    1
   135    46    47    1
