@<TRIPOS>MOLECULE
tmp/3pnbA00.pdb
 188 178 0 0 0
SMALL
GASTEIGER

@<TRIPOS>ATOM
      1  N         14.4700  -51.2880   36.8550 N.3     7  PRO7       -0.2102
      2  CA        14.2050  -51.8740   35.5490 C.3     7  PRO7        0.1504
      3  C         12.7220  -52.0980   35.2560 C.2     7  PRO7        0.2576
      4  O         11.9140  -52.2420   36.1760 O.2     7  PRO7       -0.2718
      5  CB        14.9390  -53.2130   35.6240 C.3     7  PRO7        0.0282
      6  CG        14.8780  -53.5880   37.0630 C.3     7  PRO7        0.0208
      7  CD        14.7070  -52.3250   37.8730 C.3     7  PRO7        0.0893
      8  N         12.3790  -52.1310   33.9740 N.am    8  GLY8       -0.1943
      9  CA        11.0070  -52.3800   33.5530 C.3     8  GLY8        0.2014
     10  C         10.8080  -52.1130   32.0790 C.2     8  GLY8        0.2640
     11  O         11.7200  -51.6370   31.3980 O.2     8  GLY8       -0.2714
     12  N          9.6130  -52.4310   31.5880 N.am    9  SER9       -0.1935
     13  CA         9.2360  -52.1410   30.2090 C.3     9  SER9        0.2055
     14  C          8.5620  -50.7790   30.1110 C.2     9  SER9        0.2643
     15  O          8.5790  -50.1530   29.0510 O.2     9  SER9       -0.2714
     16  CB         8.3250  -53.2350   29.6490 C.3     9  SER9        0.2130
     17  OG         7.2330  -53.4800   30.5200 O.3     9  SER9       -0.2179
     18  N          7.9790  -50.3270   31.2230 N.am   10  PHE10      -0.1973
     19  CA         7.3650  -48.9950   31.3280 C.3    10  PHE10       0.1639
     20  C          6.5400  -48.6130   30.0930 C.2    10  PHE10       0.2290
     21  O          6.8320  -47.6220   29.4080 O.2    10  PHE10      -0.2864
     22  CB         8.4260  -47.9240   31.6480 C.3    10  PHE10       0.0560
     23  CG         9.2560  -48.2370   32.8640 C.ar   10  PHE10      -0.0200
     24  CD1       10.5770  -48.6470   32.7330 C.ar   10  PHE10      -0.0042
     25  CD2        8.7100  -48.1390   34.1400 C.ar   10  PHE10      -0.0042
     26  CE1       11.3450  -48.9460   33.8540 C.ar   10  PHE10      -0.0003
     27  CE2        9.4690  -48.4410   35.2680 C.ar   10  PHE10      -0.0003
     28  CZ        10.7910  -48.8430   35.1240 C.ar   10  PHE10      -0.0000
     29  N          5.1460  -46.3860   39.2910 N.3    17  HIS17      -0.1241
     30  CA         6.5670  -46.4360   38.9290 C.3    17  HIS17       0.1621
     31  C          7.3000  -45.2130   39.4800 C.2    17  HIS17       0.2264
     32  O          8.3930  -45.3360   40.0300 O.2    17  HIS17      -0.2867
     33  CB         6.7590  -46.4950   37.4050 C.3    17  HIS17       0.0745
     34  CG         6.1840  -47.7170   36.7540 C.ar   17  HIS17       0.0817
     35  ND1        6.5430  -48.9990   37.1150 N.ar   17  HIS17      -0.2268
     36  CD2        5.3000  -47.8480   35.7380 C.ar   17  HIS17       0.1154
     37  CE1        5.8860  -49.8660   36.3650 C.ar   17  HIS17       0.1986
     38  NE2        5.1290  -49.1940   35.5180 N.ar   17  HIS17      -0.2212
     39  N         13.9550  -51.9910   29.4800 N.3    36  LEU36      -0.1245
     40  CA        14.3590  -53.2310   28.8230 C.3    36  LEU36       0.1561
     41  C         13.3060  -53.7010   27.8230 C.2    36  LEU36       0.2260
     42  O         12.1080  -53.6940   28.1130 O.2    36  LEU36      -0.2867
     43  CB        14.6850  -54.3110   29.8600 C.3    36  LEU36       0.0270
     44  CG        15.9770  -54.0610   30.6550 C.3    36  LEU36       0.0019
     45  CD1       15.8320  -54.4680   32.1140 C.3    36  LEU36       0.0001
     46  CD2       17.1830  -54.7490   30.0190 C.3    36  LEU36       0.0001
     47  N         11.0360  -56.0280   25.6390 N.3    38  ASN38      -0.1240
     48  CA        10.3880  -57.3290   25.7470 C.3    38  ASN38       0.1653
     49  C         10.4530  -58.1130   24.4410 C.2    38  ASN38       0.2266
     50  O         10.6600  -57.5410   23.3710 O.2    38  ASN38      -0.2867
     51  CB         8.9330  -57.1690   26.1920 C.3    38  ASN38       0.1155
     52  CG         8.7040  -57.6440   27.6140 C.2    38  ASN38       0.2627
     53  OD1        9.0670  -58.7640   27.9730 O.2    38  ASN38      -0.2716
     54  ND2        8.0970  -56.7910   28.4320 N.am   38  ASN38      -0.0877
     55  N          6.5230  -59.9950   21.9850 N.3    41  LYS41      -0.1245
     56  CA         5.3660  -59.3600   22.6060 C.3    41  LYS41       0.1561
     57  C          5.6010  -57.8680   22.8140 C.2    41  LYS41       0.2260
     58  O          6.0230  -57.4400   23.8890 O.2    41  LYS41      -0.2867
     59  CB         5.0380  -60.0320   23.9410 C.3    41  LYS41       0.0271
     60  CG         5.6940  -59.3750   25.1440 C.3    41  LYS41       0.0035
     61  CD         5.1190  -59.9080   26.4460 C.3    41  LYS41       0.0206
     62  CE         5.3140  -61.4110   26.5620 C.3    41  LYS41       0.1093
     63  NZ         4.8880  -61.9250   27.8930 N.3    41  LYS41      -0.1314
     64  N         19.9520  -56.7330   27.1300 N.3    71  GLY71      -0.1210
     65  CA        20.2000  -58.1140   27.5460 C.3    71  GLY71       0.1956
     66  C         19.7430  -58.3840   28.9650 C.2    71  GLY71       0.2612
     67  O         18.6350  -58.0010   29.3510 O.2    71  GLY71      -0.2717
     68  N         20.6000  -59.0450   29.7380 N.am   72  LEU72      -0.1965
     69  CA        20.3260  -59.3320   31.1430 C.3    72  LEU72       0.1728
     70  C         20.3000  -58.0490   31.9540 C.2    72  LEU72       0.2616
     71  O         21.1460  -57.1680   31.7570 O.2    72  LEU72      -0.2715
     72  CB        21.3930  -60.2630   31.7250 C.3    72  LEU72       0.0311
     73  CG        21.4410  -61.7240   31.2820 C.3    72  LEU72       0.0022
     74  CD1       22.6850  -62.3860   31.8560 C.3    72  LEU72       0.0001
     75  CD2       20.1790  -62.4780   31.7020 C.3    72  LEU72       0.0001
     76  N         19.3400  -57.9470   32.8730 N.am   73  VAL73      -0.1963
     77  CA        19.2820  -56.7910   33.7660 C.3    73  VAL73       0.1727
     78  C         20.5600  -56.6810   34.6080 C.2    73  VAL73       0.2616
     79  O         21.0540  -55.5810   34.8390 O.2    73  VAL73      -0.2715
     80  CB        17.9760  -56.7350   34.6310 C.3    73  VAL73       0.0290
     81  CG1       17.8390  -57.9520   35.5430 C.3    73  VAL73       0.0023
     82  CG2       17.9210  -55.4420   35.4400 C.3    73  VAL73       0.0023
     83  N         21.1170  -57.8210   35.0190 N.am   74  VAL74      -0.1977
     84  CA        22.3500  -57.8200   35.8130 C.3    74  VAL74       0.1596
     85  C         23.5550  -57.2670   35.0460 C.2    74  VAL74       0.2287
     86  O         24.4270  -56.6270   35.6370 O.2    74  VAL74      -0.2864
     87  CB        22.6940  -59.2090   36.4190 C.3    74  VAL74       0.0276
     88  CG1       21.6370  -59.6270   37.4290 C.3    74  VAL74       0.0022
     89  CG2       22.8850  -60.2790   35.3390 C.3    74  VAL74       0.0022
     90  N         12.8490  -52.5730   43.0660 N.3    87  LYS87      -0.1245
     91  CA        11.5880  -52.9520   42.4290 C.3    87  LYS87       0.1561
     92  C         10.3890  -52.6580   43.3210 C.2    87  LYS87       0.2260
     93  O         10.4290  -52.8890   44.5330 O.2    87  LYS87      -0.2867
     94  CB        11.6050  -54.4340   42.0570 C.3    87  LYS87       0.0271
     95  CG        12.7500  -54.7980   41.1270 C.3    87  LYS87       0.0035
     96  CD        12.4450  -56.0050   40.2990 C.3    87  LYS87       0.0206
     97  CE        11.5990  -55.6490   39.0880 C.3    87  LYS87       0.1093
     98  NZ        11.3170  -56.8870   38.3290 N.3    87  LYS87      -0.1314
     99  N          3.1040  -53.8330   44.2990 N.3    90  ARG90      -0.1245
    100  CA         1.7560  -53.2910   44.2170 C.3    90  ARG90       0.1563
    101  C          0.7590  -54.4330   44.3850 C.2    90  ARG90       0.2260
    102  O          1.1440  -55.6060   44.4000 O.2    90  ARG90      -0.2867
    103  CB         1.5400  -52.5900   42.8700 C.3    90  ARG90       0.0307
    104  CG         1.8980  -53.4570   41.6670 C.3    90  ARG90       0.0489
    105  CD         1.1210  -53.1050   40.4170 C.3    90  ARG90       0.2205
    106  NE         1.5820  -53.9020   39.2800 N.pl3  90  ARG90      -0.0865
    107  CZ         1.0070  -55.0250   38.8560 C.cat  90  ARG90       0.5346
    108  NH1       -0.0780  -55.4990   39.4550 N.pl3  90  ARG90       0.1354
    109  NH2        1.5120  -55.6730   37.8180 N.pl3  90  ARG90       0.1354
    110  N          3.1570  -60.2890   41.0120 N.3    94  ASP94      -0.1239
    111  CA         3.5600  -61.6730   41.1700 C.3    94  ASP94       0.1674
    112  C          4.8370  -61.7300   41.9960 C.2    94  ASP94       0.2266
    113  O          5.9160  -61.7360   41.4700 O.2    94  ASP94      -0.2867
    114  CB         3.7430  -62.3830   39.8440 C.3    94  ASP94       0.1410
    115  CG         3.9740  -63.8700   39.9980 C.2    94  ASP94       0.3668
    116  OD1        4.2140  -64.3890   41.0560 O.co2  94  ASP94      -0.2456
    117  OD2        3.9030  -64.5200   39.0090 O.co2  94  ASP94      -0.2456
    118  N          7.2710  -64.6940   41.5190 N.3    97  TYR97      -0.1227
    119  CA         8.1710  -64.5140   40.3860 C.3    97  TYR97       0.1736
    120  C          9.3060  -63.5580   40.7350 C.2    97  TYR97       0.2595
    121  O         10.4790  -63.8720   40.5330 O.2    97  TYR97      -0.2718
    122  CB         7.4020  -63.9950   39.1680 C.3    97  TYR97       0.0548
    123  CG         8.1770  -64.0840   37.8730 C.ar   97  TYR97      -0.0200
    124  CD1        8.9090  -65.2200   37.5550 C.ar   97  TYR97      -0.0009
    125  CD2        8.1750  -63.0320   36.9670 C.ar   97  TYR97      -0.0009
    126  CE1        9.6180  -65.3060   36.3720 C.ar   97  TYR97       0.0417
    127  CE2        8.8810  -63.1080   35.7810 C.ar   97  TYR97       0.0417
    128  CZ         9.6010  -64.2470   35.4890 C.ar   97  TYR97       0.1957
    129  OH        10.3050  -64.3280   34.3100 O.3    97  TYR97      -0.2866
    130  N          8.9490  -62.3910   41.2620 N.am   98  GLU98      -0.1979
    131  CA         9.9380  -61.3910   41.6480 C.3    98  GLU98       0.1602
    132  C         11.0430  -62.0150   42.4930 C.2    98  GLU98       0.2287
    133  O         12.2270  -61.7570   42.2740 O.2    98  GLU98      -0.2864
    134  CB         9.2720  -60.2470   42.4140 C.3    98  GLU98       0.0415
    135  CG         8.3320  -59.4000   41.5710 C.3    98  GLU98       0.1163
    136  CD         9.0680  -58.5400   40.5630 C.2    98  GLU98       0.3649
    137  OE1       10.3070  -58.4280   40.6670 O.co2  98  GLU98      -0.2457
    138  OE2        8.4070  -57.9760   39.6660 O.co2  98  GLU98      -0.2457
    139  N         13.3580  -64.2740   40.3570 N.3   101  MET101     -0.1245
    140  CA        14.2750  -63.4280   39.5810 C.3   101  MET101      0.1570
    141  C         15.3680  -62.8230   40.4630 C.2   101  MET101      0.2261
    142  O         16.5340  -62.7870   40.0710 O.2   101  MET101     -0.2867
    143  CB        13.5130  -62.3140   38.8540 C.3   101  MET101      0.0387
    144  CG        12.6870  -62.7920   37.6560 C.3   101  MET101      0.0595
    145  SD        12.1510  -61.4420   36.5780 S.3   101  MET101     -0.1393
    146  CE        11.0360  -60.5290   37.6420 C.3   101  MET101      0.0692
    147  N         17.8330  -65.5680   41.2940 N.3   104  MET104     -0.1230
    148  CA        18.5870  -65.8370   40.0610 C.3   104  MET104      0.1702
    149  C         19.6050  -64.7300   39.7630 C.2   104  MET104      0.2592
    150  O         20.7600  -65.0140   39.4450 O.2   104  MET104     -0.2718
    151  CB        17.6340  -66.0170   38.8680 C.3   104  MET104      0.0401
    152  CG        18.3240  -66.3820   37.5510 C.3   104  MET104      0.0596
    153  SD        19.2100  -67.9540   37.6040 S.3   104  MET104     -0.1393
    154  CE        17.8550  -69.1130   37.3800 C.3   104  MET104      0.0692
    155  N         19.1700  -63.4750   39.8730 N.am  105  ASN105     -0.1974
    156  CA        20.0480  -62.3260   39.6370 C.3   105  ASN105      0.1688
    157  C         21.2010  -62.2460   40.6340 C.2   105  ASN105      0.2292
    158  O         22.3250  -61.9110   40.2590 O.2   105  ASN105     -0.2864
    159  CB        19.2480  -61.0230   39.6180 C.3   105  ASN105      0.1181
    160  CG        18.4310  -60.8640   38.3520 C.2   105  ASN105      0.2629
    161  OD1       18.7660  -61.4250   37.3060 O.2   105  ASN105     -0.2716
    162  ND2       17.3530  -60.0990   38.4390 N.am  105  ASN105     -0.0877
    163  N         23.7150  -65.2360   39.5850 N.3   108  ILE108     -0.1245
    164  CA        24.5040  -65.1050   38.3550 C.3   108  ILE108      0.1561
    165  C         25.4880  -63.9220   38.3300 C.2   108  ILE108      0.2260
    166  O         26.4690  -63.9530   37.5850 O.2   108  ILE108     -0.2867
    167  CB        23.6240  -65.1320   37.0630 C.3   108  ILE108      0.0252
    168  CG1       22.6770  -63.9220   36.9990 C.3   108  ILE108      0.0019
    169  CG2       22.8700  -66.4640   36.9530 C.3   108  ILE108      0.0019
    170  CD1       21.8300  -63.8560   35.7330 C.3   108  ILE108      0.0001
    171  N         -1.3300  -50.5570   37.1690 N.3   126  SER126     -0.1202
    172  CA        -0.2560  -51.1980   36.4310 C.3   126  SER126      0.2020
    173  C         -0.3850  -50.7420   34.9890 C.2   126  SER126      0.2619
    174  O         -1.4620  -50.3130   34.5680 O.2   126  SER126     -0.2717
    175  CB        -0.3500  -52.7230   36.5200 C.3   126  SER126      0.2103
    176  OG        -1.4710  -53.2120   35.8070 O.3   126  SER126     -0.2182
    177  N          0.7110  -50.8230   34.2410 N.am  127  SER127     -0.1937
    178  CA         0.7150  -50.4260   32.8370 C.3   127  SER127      0.2055
    179  C         -0.4230  -51.0780   32.0560 C.2   127  SER127      0.2643
    180  O         -1.1960  -50.3850   31.3970 O.2   127  SER127     -0.2714
    181  CB         2.0580  -50.7540   32.1860 C.3   127  SER127      0.2130
    182  OG         3.1000  -50.0100   32.7910 O.3   127  SER127     -0.2179
    183  N         -0.5340  -52.4020   32.1610 N.am  128  SER128     -0.1949
    184  CA        -1.5090  -53.1620   31.3780 C.3   128  SER128      0.1924
    185  C         -2.9590  -52.8430   31.7550 C.2   128  SER128      0.2314
    186  O         -3.8100  -52.6930   30.8780 O.2   128  SER128     -0.2863
    187  CB        -1.2340  -54.6700   31.4730 C.3   128  SER128      0.2116
    188  OG        -1.3120  -55.1030   32.8160 O.3   128  SER128     -0.2180
@<TRIPOS>BOND
     1    55    56    1
     2    56    57    1
     3    56    59    1
     4    57    58    2
     5    50    49    2
     6    59    60    1
     7    49    48    1
     8    60    61    1
     9    47    48    1
    10    48    51    1
    11    51    52    1
    12    61    62    1
    13    62    63    1
    14    64    65    1
    15    65    66    1
    16    52    53    2
    17    52    54   am
    18    41    42    2
    19    41    40    1
    20    40    39    1
    21    40    43    1
    22    66    67    2
    23    66    68   am
    24    15    14    2
    25    21    20    2
    26    16    13    1
    27    16    17    1
    28    68    69    1
    29    43    44    1
    30    46    44    1
    31    20    19    1
    32    14    13    1
    33    14    18   am
    34    13    12    1
    35    44    45    1
    36   186   185    2
    37    69    72    1
    38    69    70    1
    39    18    19    1
    40    73    75    1
    41    73    72    1
    42    73    74    1
    43    19    22    1
    44   184   187    1
    45   184   185    1
    46   184   183    1
    47   180   179    2
    48    11    10    2
    49   187   188    1
    50    12    10   am
    51    22    23    1
    52    71    70    2
    53    70    76   am
    54   179   183   am
    55   179   178    1
    56    10     9    1
    57   181   182    1
    58   181   178    1
    59    24    23   ar
    60    24    26   ar
    61   178   177    1
    62    23    25   ar
    63    76    77    1
    64     9     8    1
    65    77    78    1
    66    77    80    1
    67    26    28   ar
    68     8     3   am
    69    25    27   ar
    70   177   173   am
    71   129   128    1
    72   174   173    2
    73    78    79    2
    74    78    83   am
    75    80    82    1
    76    80    81    1
    77   173   172    1
    78    83    84    1
    79    85    86    2
    80    85    84    1
    81    28    27   ar
    82     3     2    1
    83     3     4    2
    84    89    87    1
    85   128   127   ar
    86   128   126   ar
    87    38    36   ar
    88    38    37   ar
    89     2     5    1
    90     2     1    1
    91     5     6    1
    92   170   168    1
    93    36    34   ar
    94   127   125   ar
    95   176   175    1
    96    84    87    1
    97    37    35   ar
    98   126   124   ar
    99    87    88    1
   100   172   175    1
   101   172   171    1
   102   145   146    1
   103   145   144    1
   104    34    35   ar
   105    34    33    1
   106     1     7    1
   107   169   167    1
   108   125   123   ar
   109   168   167    1
   110   167   164    1
   111     6     7    1
   112   161   160    2
   113   154   153    1
   114    33    30    1
   115   152   153    1
   116   152   151    1
   117   124   123   ar
   118   166   165    2
   119   144   143    1
   120   109   107    1
   121   123   122    1
   122    98    97    1
   123   165   164    1
   124   160   162   am
   125   160   159    1
   126   164   163    1
   127   143   140    1
   128   107   106    2
   129   107   108    1
   130   151   148    1
   131    30    29    1
   132    30    31    1
   133   117   115   ar
   134    97    96    1
   135   122   119    1
   136   106   105    1
   137   150   149    2
   138    31    32    2
   139   140   139    1
   140   140   141    1
   141   159   156    1
   142   156   155    1
   143   156   157    1
   144   138   136   ar
   145   149   155   am
   146   149   148    1
   147   114   115    1
   148   114   111    1
   149   115   116   ar
   150   148   147    1
   151   142   141    2
   152   158   157    2
   153    96    95    1
   154   119   120    1
   155   119   118    1
   156   105   104    1
   157   121   120    2
   158   136   137   ar
   159   136   135    1
   160   120   130   am
   161   110   111    1
   162    95    94    1
   163   111   112    1
   164   130   131    1
   165   113   112    2
   166   135   134    1
   167   131   134    1
   168   131   132    1
   169   104   103    1
   170    94    91    1
   171   133   132    2
   172    91    90    1
   173    91    92    1
   174   103   100    1
   175    92    93    2
   176   100    99    1
   177   100   101    1
   178   101   102    2
