@<TRIPOS>MOLECULE
tmp/3pnlB00.pdb
 154 144 0 0 0
SMALL
GASTEIGER

@<TRIPOS>ATOM
      1  N         -1.9040  -11.3000  -21.7330 N.3    31  ASP31      -0.1239
      2  CA        -0.7030  -10.6000  -21.2810 C.3    31  ASP31       0.1674
      3  C         -0.7170  -10.3670  -19.7620 C.2    31  ASP31       0.2266
      4  O          0.2970   -9.9370  -19.1820 O.2    31  ASP31      -0.2867
      5  CB        -0.5160   -9.2890  -22.0380 C.3    31  ASP31       0.1410
      6  CG         0.9240   -8.8190  -22.0450 C.2    31  ASP31       0.3668
      7  OD1        1.8490   -9.6570  -22.1650 O.co2  31  ASP31      -0.2456
      8  OD2        1.1430   -7.6030  -21.9320 O.co2  31  ASP31      -0.2456
      9  N          2.5720   -8.1250  -18.4280 N.3    36  ASP36      -0.1239
     10  CA         2.2780   -6.9800  -17.6120 C.3    36  ASP36       0.1674
     11  C          0.9020   -6.4010  -17.9290 C.2    36  ASP36       0.2266
     12  O          0.6240   -5.2340  -17.5850 O.2    36  ASP36      -0.2867
     13  CB         3.3680   -5.8970  -17.7620 C.3    36  ASP36       0.1410
     14  CG         3.5400   -5.4130  -19.1920 C.2    36  ASP36       0.3668
     15  OD1        4.4250   -4.5550  -19.3810 O.co2  36  ASP36      -0.2456
     16  OD2        2.8240   -5.8880  -20.1220 O.co2  36  ASP36      -0.2456
     17  N         -0.8080   -5.4080  -20.5920 N.3    38  ASP38      -0.1225
     18  CA        -0.9930   -4.2010  -21.3950 C.3    38  ASP38       0.1805
     19  C         -1.1960   -4.4670  -22.9160 C.2    38  ASP38       0.2597
     20  O         -1.5740   -3.5770  -23.6610 O.2    38  ASP38      -0.2718
     21  CB         0.1500   -3.1830  -21.1210 C.3    38  ASP38       0.1424
     22  CG         1.4400   -3.5070  -21.8690 C.2    38  ASP38       0.3668
     23  OD1        1.6750   -4.6950  -22.1660 O.co2  38  ASP38      -0.2456
     24  OD2        2.2340   -2.5760  -22.1590 O.co2  38  ASP38      -0.2456
     25  N         -0.9530   -5.6820  -23.3770 N.am   39  HIS39      -0.1975
     26  CA        -0.9150   -5.8820  -24.8270 C.3    39  HIS39       0.1656
     27  C         -2.1730   -5.4240  -25.5630 C.2    39  HIS39       0.2291
     28  O         -2.0800   -4.7550  -26.6130 O.2    39  HIS39      -0.2864
     29  CB        -0.6010   -7.3250  -25.2100 C.3    39  HIS39       0.0771
     30  CG        -0.3500   -7.5130  -26.6840 C.ar   39  HIS39       0.0820
     31  ND1        0.6350   -6.8310  -27.3670 N.ar   39  HIS39      -0.2267
     32  CD2       -0.9490   -8.3140  -27.5970 C.ar   39  HIS39       0.1154
     33  CE1        0.6340   -7.1980  -28.6330 C.ar   39  HIS39       0.1986
     34  NE2       -0.3300   -8.0860  -28.8040 N.ar   39  HIS39      -0.2212
     35  N         -2.4510   -1.7870  -25.9250 N.3    42  ASN42      -0.1240
     36  CA        -1.4580   -1.3170  -26.8930 C.3    42  ASN42       0.1653
     37  C         -1.9350   -1.4800  -28.3230 C.2    42  ASN42       0.2266
     38  O         -1.7670   -0.5860  -29.1440 O.2    42  ASN42      -0.2867
     39  CB        -0.1280   -2.0680  -26.7240 C.3    42  ASN42       0.1155
     40  CG         0.5670   -1.7300  -25.4240 C.2    42  ASN42       0.2627
     41  OD1        1.5540   -2.3770  -25.0420 O.2    42  ASN42      -0.2716
     42  ND2        0.0680   -0.7210  -24.7350 N.am   42  ASN42      -0.0877
     43  N          5.9300   -0.1680  -26.1480 N.3    79  GLY79      -0.1210
     44  CA         6.3110   -1.4610  -25.6350 C.3    79  GLY79       0.1956
     45  C          7.0010   -2.3140  -26.6800 C.2    79  GLY79       0.2612
     46  O          7.5750   -1.7960  -27.6240 O.2    79  GLY79      -0.2717
     47  N          6.9590   -3.6320  -26.5250 N.am   80  ALA80      -0.1965
     48  CA         7.7020   -4.4860  -27.4740 C.3    80  ALA80       0.1728
     49  C          6.9810   -4.6140  -28.8470 C.2    80  ALA80       0.2616
     50  O          7.5970   -4.7200  -29.9160 O.2    80  ALA80      -0.2715
     51  CB         7.9300   -5.8420  -26.8680 C.3    80  ALA80       0.0334
     52  N          5.6600   -4.6220  -28.8190 N.am   81  SER81      -0.1950
     53  CA         4.9180   -4.8790  -30.0410 C.3    81  SER81       0.1924
     54  C          4.8970   -3.6600  -30.9960 C.2    81  SER81       0.2314
     55  O          4.7130   -3.8220  -32.2070 O.2    81  SER81      -0.2863
     56  CB         3.5010   -5.3730  -29.7140 C.3    81  SER81       0.2116
     57  OG         2.8610   -4.5240  -28.7840 O.3    81  SER81      -0.2180
     58  N          7.9510   -3.8400  -33.3030 N.3    84  LEU84      -0.1245
     59  CA         7.8220   -5.0950  -34.0690 C.3    84  LEU84       0.1561
     60  C          6.7480   -5.0520  -35.1350 C.2    84  LEU84       0.2260
     61  O          7.0140   -5.3670  -36.2820 O.2    84  LEU84      -0.2867
     62  CB         7.6470   -6.2920  -33.1530 C.3    84  LEU84       0.0270
     63  CG         8.8890   -6.4840  -32.2740 C.3    84  LEU84       0.0019
     64  CD1        8.6490   -7.5550  -31.2090 C.3    84  LEU84       0.0001
     65  CD2       10.2130   -6.7600  -33.0280 C.3    84  LEU84       0.0001
     66  N         10.5070   -8.4110  -38.5840 N.3   118  VAL118     -0.1245
     67  CA        10.3020   -8.7160  -37.1500 C.3   118  VAL118      0.1561
     68  C         11.3060   -9.7020  -36.5630 C.2   118  VAL118      0.2260
     69  O         11.7340   -9.5670  -35.4100 O.2   118  VAL118     -0.2867
     70  CB         8.7980   -8.8540  -36.6460 C.3   118  VAL118      0.0252
     71  CG1        7.7730   -8.7560  -37.7360 C.3   118  VAL118      0.0019
     72  CG2        8.5980  -10.0160  -35.7100 C.3   118  VAL118      0.0019
     73  N         13.8120   -8.5440  -33.4620 N.3   122  GLY122     -0.1225
     74  CA        13.5940   -9.2870  -32.2320 C.3   122  GLY122      0.1811
     75  C         14.4310  -10.5540  -32.0240 C.2   122  GLY122      0.2280
     76  O         14.5410  -11.0460  -30.8940 O.2   122  GLY122     -0.2866
     77  N         13.6660  -13.5890  -32.7080 N.3   124  ALA124     -0.1245
     78  CA        12.9700  -14.7960  -32.2380 C.3   124  ALA124      0.1562
     79  C         13.1390  -15.9750  -33.1930 C.2   124  ALA124      0.2260
     80  O         13.1410  -15.8010  -34.4180 O.2   124  ALA124     -0.2867
     81  CB        11.5130  -14.5280  -31.9580 C.3   124  ALA124      0.0290
     82  N          8.1760  -18.6570  -28.3730 N.3   129  LYS129     -0.1231
     83  CA         6.8750  -18.2140  -27.8500 C.3   129  LYS129      0.1693
     84  C          6.5870  -16.7100  -28.1000 C.2   129  LYS129      0.2593
     85  O          6.2780  -15.9680  -27.1830 O.2   129  LYS129     -0.2718
     86  CB         6.7270  -18.5640  -26.3570 C.3   129  LYS129      0.0285
     87  CG         5.2630  -18.5750  -25.8380 C.3   129  LYS129      0.0035
     88  CD         5.2410  -18.6310  -24.3060 C.3   129  LYS129      0.0206
     89  CE         3.8320  -18.8960  -23.7440 C.3   129  LYS129      0.1093
     90  NZ         3.3740  -20.3410  -23.7310 N.3   129  LYS129     -0.1314
     91  N          6.6530  -16.2920  -29.3610 N.am  130  THR130     -0.1939
     92  CA         6.3710  -14.9350  -29.7750 C.3   130  THR130      0.2028
     93  C          5.4460  -14.8680  -31.0130 C.2   130  THR130      0.2642
     94  O          5.0330  -15.8820  -31.5560 O.2   130  THR130     -0.2714
     95  CB         7.6810  -14.1660  -30.1480 C.3   130  THR130      0.1808
     96  OG1        8.1800  -14.6900  -31.3970 O.3   130  THR130     -0.2208
     97  CG2        8.7450  -14.3260  -29.0670 C.3   130  THR130      0.0379
     98  N          5.1520  -13.6440  -31.4600 N.am  131  MET131     -0.1962
     99  CA         4.4170  -13.4220  -32.6960 C.3   131  MET131      0.1736
    100  C          5.1080  -14.1070  -33.8780 C.2   131  MET131      0.2616
    101  O          4.4620  -14.4520  -34.8620 O.2   131  MET131     -0.2715
    102  CB         4.2930  -11.9200  -32.9710 C.3   131  MET131      0.0427
    103  CG         5.6460  -11.1990  -33.0800 C.3   131  MET131      0.0599
    104  SD         5.5180   -9.5010  -33.6580 S.3   131  MET131     -0.1393
    105  CE         4.8100   -8.6200  -32.2710 C.3   131  MET131      0.0692
    106  N          6.4180  -14.3030  -33.7930 N.am  132  CYS132     -0.1968
    107  CA         7.1220  -15.0040  -34.8660 C.3   132  CYS132      0.1712
    108  C          6.7290  -16.4740  -35.0510 C.2   132  CYS132      0.2296
    109  O          6.9690  -17.0700  -36.0980 O.2   132  CYS132     -0.2864
    110  CB         8.6360  -14.8530  -34.6890 C.3   132  CYS132      0.0983
    111  SG         9.1460  -13.1390  -34.9360 S.3   132  CYS132     -0.0798
    112  N         11.7750  -15.3570  -25.3280 N.3   177  LYS177     -0.1231
    113  CA        11.9130  -13.9400  -25.6430 C.3   177  LYS177      0.1693
    114  C         10.7290  -13.2310  -25.0230 C.2   177  LYS177      0.2593
    115  O          9.7180  -13.8630  -24.6990 O.2   177  LYS177     -0.2718
    116  CB        11.8600  -13.7060  -27.1610 C.3   177  LYS177      0.0285
    117  CG        12.9820  -14.3780  -27.9140 C.3   177  LYS177      0.0035
    118  CD        14.2500  -13.5640  -27.8260 C.3   177  LYS177      0.0206
    119  CE        15.3970  -14.2750  -28.5270 C.3   177  LYS177      0.1093
    120  NZ        16.5500  -13.3230  -28.4790 N.3   177  LYS177     -0.1314
    121  N         10.8490  -11.9140  -24.9050 N.am  178  GLY178     -0.1942
    122  CA         9.8070  -11.0950  -24.3530 C.3   178  GLY178      0.2014
    123  C          9.7140  -11.2150  -22.8400 C.2   178  GLY178      0.2638
    124  O         10.4680  -11.9610  -22.1610 O.2   178  GLY178     -0.2714
    125  N          8.7230  -10.5050  -22.3300 N.am  179  ARG179     -0.1977
    126  CA         8.4670  -10.4180  -20.9090 C.3   179  ARG179      0.1597
    127  C          8.1770  -11.8010  -20.3220 C.2   179  ARG179      0.2287
    128  O          8.5890  -12.0890  -19.1970 O.2   179  ARG179     -0.2864
    129  CB         7.2890   -9.4470  -20.6410 C.3   179  ARG179      0.0334
    130  CG         7.1080   -9.1530  -19.1720 C.3   179  ARG179      0.0492
    131  CD         6.0870   -8.0110  -18.8860 C.3   179  ARG179      0.2205
    132  NE         6.4330   -6.7900  -19.6290 N.pl3 179  ARG179     -0.0865
    133  CZ         7.3500   -5.8860  -19.2450 C.cat 179  ARG179      0.5346
    134  NH1        7.5870   -4.8370  -20.0090 N.pl3 179  ARG179      0.1354
    135  NH2        8.0520   -6.0430  -18.1280 N.pl3 179  ARG179      0.1354
    136  N          0.5340  -16.9870  -26.1640 N.3   192  ASP192     -0.1225
    137  CA         1.2250  -15.7140  -26.3910 C.3   192  ASP192      0.1790
    138  C          0.2670  -14.6440  -26.8690 C.2   192  ASP192      0.2440
    139  O         -0.4940  -14.8800  -27.8000 O.2   192  ASP192     -0.2733
    140  CB         2.3360  -15.8350  -27.4260 C.3   192  ASP192      0.1423
    141  CG         3.1850  -14.5840  -27.4770 C.2   192  ASP192      0.3668
    142  OD1        3.6720  -14.1690  -26.4000 O.co2 192  ASP192     -0.2456
    143  OD2        3.3470  -14.0140  -28.5800 O.co2 192  ASP192     -0.2456
    144  N          0.2640  -13.4780  -26.2030 N.am  193  PRO193     -0.2718
    145  CA        -0.5860  -12.3740  -26.6700 C.3   193  PRO193      0.1535
    146  C         -0.2340  -11.8880  -28.1070 C.2   193  PRO193      0.2599
    147  O         -1.1180  -11.6730  -28.9190 O.2   193  PRO193     -0.2715
    148  CB        -0.2920  -11.2450  -25.6360 C.3   193  PRO193      0.0310
    149  CG         0.2420  -11.9270  -24.4610 C.3   193  PRO193      0.0237
    150  CD         0.9180  -13.1730  -24.9140 C.3   193  PRO193      0.0939
    151  N          1.0440  -11.6330  -28.3820 N.am  194  GLY194     -0.1955
    152  CA         1.4370  -11.0960  -29.6910 C.3   194  GLY194      0.1869
    153  C          1.0820  -12.0570  -30.8310 C.2   194  GLY194      0.2309
    154  O          0.6360  -11.6320  -31.9050 O.2   194  GLY194     -0.2863
@<TRIPOS>BOND
     1    66    67    1
     2    71    70    1
     3    67    70    1
     4    67    68    1
     5    70    72    1
     6    68    69    2
     7    61    60    2
     8   109   108    2
     9    60    59    1
    10   108   107    1
    11   111   110    1
    12   107   110    1
    13   107   106    1
    14   101   100    2
    15    80    79    2
    16    59    58    1
    17    59    62    1
    18   100   106   am
    19   100    99    1
    20   104   103    1
    21   104   105    1
    22    73    74    1
    23    79    78    1
    24    62    63    1
    25   103   102    1
    26    65    63    1
    27   102    99    1
    28    77    78    1
    29    99    98    1
    30    63    64    1
    31    78    81    1
    32    74    75    1
    33    55    54    2
    34    75    76    2
    35   154   153    2
    36    94    93    2
    37    98    93   am
    38    96    95    1
    39    93    92    1
    40    54    53    1
    41   153   152    1
    42    95    92    1
    43    95    97    1
    44    53    56    1
    45    53    52    1
    46    50    49    2
    47    92    91    1
    48    56    57    1
    49   152   151    1
    50    91    84   am
    51    38    37    2
    52   147   146    2
    53    49    52   am
    54    49    48    1
    55    34    33   ar
    56    34    32   ar
    57    33    31   ar
    58   143   141   ar
    59   119   120    1
    60   119   118    1
    61   151   146   am
    62    82    83    1
    63    37    36    1
    64   146   145    1
    65    84    83    1
    66    84    85    2
    67   117   118    1
    68   117   116    1
    69    83    86    1
    70   139   138    2
    71    46    45    2
    72    32    30   ar
    73   141   140    1
    74   141   142   ar
    75    48    51    1
    76    48    47    1
    77   140   137    1
    78    31    30   ar
    79   116   113    1
    80    36    39    1
    81    36    35    1
    82   138   137    1
    83   138   144   am
    84    39    40    1
    85    30    29    1
    86    45    47   am
    87    45    44    1
    88   145   144    1
    89   145   148    1
    90    28    27    2
    91   137   136    1
    92    86    87    1
    93   144   150    1
    94    43    44    1
    95    87    88    1
    96   113   112    1
    97   113   114    1
    98   148   149    1
    99    27    26    1
   100    40    41    2
   101    40    42   am
   102    29    26    1
   103   114   121   am
   104   114   115    2
   105   150   149    1
   106   121   122    1
   107    26    25    1
   108   122   123    1
   109    88    89    1
   110    89    90    1
   111    20    19    2
   112    25    19   am
   113    19    18    1
   114   123   125   am
   115   123   124    2
   116   125   126    1
   117    23    22   ar
   118     7     6   ar
   119    24    22   ar
   120     6     5    1
   121     6     8   ar
   122     5     2    1
   123    22    21    1
   124     1     2    1
   125    18    21    1
   126    18    17    1
   127     2     3    1
   128   126   129    1
   129   126   127    1
   130   129   130    1
   131   127   128    2
   132    16    14   ar
   133   134   133    1
   134     3     4    2
   135   132   133    2
   136   132   131    1
   137    15    14   ar
   138   133   135    1
   139    14    13    1
   140   130   131    1
   141     9    10    1
   142    11    10    1
   143    11    12    2
   144    13    10    1
