@<TRIPOS>MOLECULE
tmp/3po1C00.pdb
 111 112 0 0 0
SMALL
GASTEIGER

@<TRIPOS>ATOM
      1  N          4.0630   -8.8030   24.8550 N.3    45  ASP45      -0.1225
      2  CA         5.5220   -8.8600   24.8210 C.3    45  ASP45       0.1805
      3  C          5.9510   -8.4610   23.4340 C.2    45  ASP45       0.2598
      4  O          5.1520   -8.4770   22.5130 O.2    45  ASP45      -0.2718
      5  CB         5.9970  -10.2950   25.1100 C.3    45  ASP45       0.1424
      6  CG         7.4930  -10.4040   25.4020 C.2    45  ASP45       0.3668
      7  OD1        7.9650  -11.5730   25.5070 O.co2  45  ASP45      -0.2456
      8  OD2        8.2120   -9.3740   25.5200 O.co2  45  ASP45      -0.2456
      9  N          7.2220   -8.0940   23.2910 N.am   46  ALA46      -0.1966
     10  CA         7.8450   -8.0200   21.9890 C.3    46  ALA46       0.1728
     11  C          8.2070   -9.4470   21.5500 C.2    46  ALA46       0.2616
     12  O          8.1620  -10.3840   22.3450 O.2    46  ALA46      -0.2715
     13  CB         9.1150   -7.1600   22.0710 C.3    46  ALA46       0.0334
     14  N          8.5570   -9.6100   20.2880 N.am   47  CYS47      -0.1954
     15  CA         8.9630  -10.9280   19.7960 C.3    47  CYS47       0.1843
     16  C         10.0510  -10.7330   18.7410 C.2    47  CYS47       0.2625
     17  O         10.4410   -9.6000   18.4490 O.2    47  CYS47      -0.2714
     18  CB         7.7390  -11.6500   19.2450 C.3    47  CYS47       0.0997
     19  SG         7.8540  -13.4810   19.1930 S.3    47  CYS47      -0.0797
     20  N         10.5680  -11.8210   18.1640 N.am   48  GLU48      -0.1977
     21  CA        11.5780  -11.6670   17.1220 C.3    48  GLU48       0.1602
     22  C         11.0220  -10.8390   15.9580 C.2    48  GLU48       0.2287
     23  O          9.8740  -11.0370   15.5320 O.2    48  GLU48      -0.2864
     24  CB        12.1120  -13.0330   16.6310 C.3    48  GLU48       0.0415
     25  CG        13.4090  -12.9170   15.7980 C.3    48  GLU48       0.1163
     26  CD        14.0510  -14.2630   15.4720 C.2    48  GLU48       0.3649
     27  OE1       13.9340  -15.2030   16.2950 O.co2  48  GLU48      -0.2457
     28  OE2       14.6810  -14.3710   14.3910 O.co2  48  GLU48      -0.2457
     29  N         12.9500   -6.4840   17.7670 N.3    51  SER51      -0.1217
     30  CA        14.2010   -5.9720   18.3040 C.3    51  SER51       0.1889
     31  C         14.6450   -4.7090   17.6040 C.2    51  SER51       0.2288
     32  O         14.4680   -4.5690   16.4000 O.2    51  SER51      -0.2866
     33  CB        15.3380   -7.0040   18.1700 C.3    51  SER51       0.2089
     34  OG        15.0600   -8.1910   18.8780 O.3    51  SER51      -0.2183
     35  N         14.2070   -2.4400   22.2590 N.3    71  VAL71      -0.1231
     36  CA        13.8010   -3.8220   22.3690 C.3    71  VAL71       0.1692
     37  C         15.0700   -4.6210   22.1700 C.2    71  VAL71       0.2593
     38  O         15.7230   -4.4640   21.1420 O.2    71  VAL71      -0.2718
     39  CB        12.7980   -4.2130   21.2940 C.3    71  VAL71       0.0266
     40  CG1       12.3130   -5.6620   21.5000 C.3    71  VAL71       0.0020
     41  CG2       11.5990   -3.2600   21.3340 C.3    71  VAL71       0.0020
     42  N         15.4230   -5.4310   23.1710 N.am   72  SER72      -0.1938
     43  CA        16.7110   -6.1330   23.1460 C.3    72  SER72       0.2055
     44  C         16.6000   -7.6530   23.1200 C.2    72  SER72       0.2643
     45  O         17.0320   -8.2780   22.1440 O.2    72  SER72      -0.2714
     46  CB        17.6360   -5.6760   24.2950 C.3    72  SER72       0.2130
     47  OG        18.9110   -6.2800   24.1950 O.3    72  SER72      -0.2179
     48  N         16.0600   -8.2710   24.1680 N.am   73  TRP73      -0.1959
     49  CA        15.9460   -9.7330   24.1600 C.3    73  TRP73       0.1771
     50  C         14.8530  -10.3070   25.0290 C.2    73  TRP73       0.2620
     51  O         14.3680   -9.6520   25.9450 O.2    73  TRP73      -0.2715
     52  CB        17.2940  -10.3960   24.5190 C.3    73  TRP73       0.0590
     53  CG        17.8420  -10.0740   25.8690 C.ar   73  TRP73       0.0006
     54  CD1       18.6060   -8.9990   26.2040 C.ar   73  TRP73       0.0946
     55  CD2       17.7050  -10.8510   27.0720 C.ar   73  TRP73       0.0152
     56  NE1       18.9430   -9.0460   27.5290 N.ar   73  TRP73      -0.2442
     57  CE2       18.4220  -10.1780   28.0830 C.ar   73  TRP73       0.0810
     58  CE3       17.0570  -12.0520   27.3870 C.ar   73  TRP73       0.0012
     59  CZ2       18.4940  -10.6550   29.4060 C.ar   73  TRP73       0.0191
     60  CZ3       17.1360  -12.5250   28.7060 C.ar   73  TRP73       0.0001
     61  CH2       17.8300  -11.8140   29.6910 C.ar   73  TRP73       0.0015
     62  N         14.5100  -11.5650   24.7480 N.am   74  GLY74      -0.1940
     63  CA        13.5930  -12.3090   25.5900 C.3    74  GLY74       0.2014
     64  C         13.8530  -13.7730   25.3340 C.2    74  GLY74       0.2639
     65  O         14.4390  -14.1280   24.3130 O.2    74  GLY74      -0.2714
     66  N         13.4200  -14.5940   26.2770 N.am   75  GLU75      -0.1963
     67  CA        13.4660  -16.0410   26.1350 C.3    75  GLU75       0.1733
     68  C         12.0430  -16.4920   25.8060 C.2    75  GLU75       0.2617
     69  O         11.1760  -16.5640   26.6680 O.2    75  GLU75      -0.2715
     70  CB        14.0200  -16.6470   27.4220 C.3    75  GLU75       0.0429
     71  CG        15.4900  -16.2470   27.6500 C.3    75  GLU75       0.1163
     72  CD        16.0620  -16.7280   28.9740 C.2    75  GLU75       0.3649
     73  OE1       15.8170  -16.0640   30.0080 O.co2  75  GLU75      -0.2457
     74  OE2       16.7810  -17.7580   28.9600 O.co2  75  GLU75      -0.2457
     75  N         11.7960  -16.7280   24.5260 N.am   76  GLY76      -0.1940
     76  CA        10.4330  -16.9520   24.0600 C.3    76  GLY76       0.2014
     77  C          9.7410  -15.6070   23.9330 C.2    76  GLY76       0.2639
     78  O         10.3890  -14.5570   24.0270 O.2    76  GLY76      -0.2714
     79  N          8.4280  -15.6450   23.7210 N.am   77  CYS77      -0.1967
     80  CA         7.6110  -14.4390   23.5790 C.3    77  CYS77       0.1712
     81  C          6.3280  -14.6210   24.3760 C.2    77  CYS77       0.2296
     82  O          5.5710  -15.5800   24.1440 O.2    77  CYS77      -0.2864
     83  CB         7.2550  -14.1770   22.1110 C.3    77  CYS77       0.0983
     84  SG         8.6540  -14.0430   20.9860 S.3    77  CYS77      -0.0798
     85  N         10.3390   -9.1790   28.8440 N.3    84  GLY84      -0.1210
     86  CA        11.1640   -8.6440   27.7830 C.3    84  GLY84       0.1956
     87  C         12.2300   -7.7510   28.3570 C.2    84  GLY84       0.2612
     88  O         11.9980   -7.0160   29.3270 O.2    84  GLY84      -0.2717
     89  N         13.4180   -7.8150   27.7590 N.am   85  PHE85      -0.1962
     90  CA        14.5030   -6.9570   28.1890 C.3    85  PHE85       0.1771
     91  C         14.7960   -5.8890   27.1710 C.2    85  PHE85       0.2619
     92  O         14.7070   -6.1260   25.9620 O.2    85  PHE85      -0.2715
     93  CB        15.7560   -7.7720   28.5120 C.3    85  PHE85       0.0574
     94  CG        15.6490   -8.5050   29.8140 C.ar   85  PHE85      -0.0200
     95  CD1       14.8830   -9.6700   29.9130 C.ar   85  PHE85      -0.0042
     96  CD2       16.2420   -7.9970   30.9550 C.ar   85  PHE85      -0.0042
     97  CE1       14.7350  -10.3340   31.1350 C.ar   85  PHE85      -0.0003
     98  CE2       16.1130   -8.6740   32.1920 C.ar   85  PHE85      -0.0003
     99  CZ        15.3600   -9.8290   32.2670 C.ar   85  PHE85      -0.0000
    100  N         15.2070   -4.7310   27.6910 N.am   86  TYR86      -0.1974
    101  CA        15.3100   -3.5270   26.9080 C.3    86  TYR86       0.1639
    102  C         16.5880   -2.8430   27.2830 C.2    86  TYR86       0.2290
    103  O         16.9180   -2.7340   28.4680 O.2    86  TYR86      -0.2864
    104  CB        14.1210   -2.5940   27.1940 C.3    86  TYR86       0.0560
    105  CG        12.7860   -3.2020   26.8280 C.ar   86  TYR86      -0.0198
    106  CD1       12.1340   -4.0670   27.7020 C.ar   86  TYR86      -0.0009
    107  CD2       12.1960   -2.9460   25.5870 C.ar   86  TYR86      -0.0009
    108  CE1       10.9590   -4.6750   27.3380 C.ar   86  TYR86       0.0417
    109  CE2       10.9860   -3.5480   25.2400 C.ar   86  TYR86       0.0417
    110  CZ        10.3980   -4.4050   26.1130 C.ar   86  TYR86       0.1957
    111  OH         9.2160   -4.9800   25.7620 O.3    86  TYR86      -0.2866
@<TRIPOS>BOND
     1    28    26   ar
     2    26    25    1
     3    26    27   ar
     4    23    22    2
     5    25    24    1
     6    22    21    1
     7    32    31    2
     8    24    21    1
     9    21    20    1
    10    31    30    1
    11    29    30    1
    12    20    16   am
    13    33    30    1
    14    33    34    1
    15    17    16    2
    16    16    15    1
    17    19    18    1
    18    19    84    1
    19    18    15    1
    20    15    14    1
    21    14    11   am
    22    84    83    1
    23    38    37    2
    24    39    41    1
    25    39    40    1
    26    39    36    1
    27    11    10    1
    28    11    12    2
    29    10    13    1
    30    10     9    1
    31    83    80    1
    32    45    44    2
    33    37    36    1
    34    37    42   am
    35    35    36    1
    36     4     3    2
    37    44    43    1
    38    44    48   am
    39    43    42    1
    40    43    46    1
    41     9     3   am
    42     3     2    1
    43    80    79    1
    44    80    81    1
    45    79    77   am
    46    77    78    2
    47    77    76    1
    48    76    75    1
    49    82    81    2
    50    49    48    1
    51    49    52    1
    52    49    50    1
    53    47    46    1
    54    65    64    2
    55    52    53    1
    56    75    68   am
    57    62    50   am
    58    62    63    1
    59     2     1    1
    60     2     5    1
    61    50    51    2
    62     5     6    1
    63   109   107   ar
    64   109   110   ar
    65    64    63    1
    66    64    66   am
    67     6     7   ar
    68     6     8   ar
    69   107   105   ar
    70   111   110    1
    71    68    67    1
    72    68    69    2
    73    53    54   ar
    74    53    55   ar
    75    92    91    2
    76   110   108   ar
    77    67    66    1
    78    67    70    1
    79    54    56   ar
    80   105   104    1
    81   105   106   ar
    82   101   104    1
    83   101   102    1
    84   101   100    1
    85    55    58   ar
    86    55    57   ar
    87    91   100   am
    88    91    90    1
    89   102   103    2
    90   108   106   ar
    91    58    60   ar
    92    70    71    1
    93    56    57   ar
    94    71    72    1
    95    89    90    1
    96    89    87   am
    97    86    87    1
    98    86    85    1
    99    57    59   ar
   100    90    93    1
   101    87    88    2
   102    93    94    1
   103    60    61   ar
   104    74    72   ar
   105    72    73   ar
   106    59    61   ar
   107    94    95   ar
   108    94    96   ar
   109    95    97   ar
   110    96    98   ar
   111    97    99   ar
   112    98    99   ar
