@<TRIPOS>MOLECULE
tmp/3po7B01.pdb
 136 131 0 0 0
SMALL
GASTEIGER

@<TRIPOS>ATOM
      1  N         23.0320  121.1200   14.7130 N.3    56  GLY56      -0.1210
      2  CA        21.7460  121.7850   14.4930 C.3    56  GLY56       0.1956
      3  C         20.6670  120.7770   14.1270 C.2    56  GLY56       0.2613
      4  O         20.9360  119.8370   13.3630 O.2    56  GLY56      -0.2717
      5  N         19.4530  120.9840   14.6500 N.am   57  SER57      -0.1938
      6  CA        18.3640  120.0090   14.4910 C.3    57  SER57       0.2055
      7  C         16.9910  120.6440   14.2310 C.2    57  SER57       0.2643
      8  O         16.2170  120.1720   13.3760 O.2    57  SER57      -0.2714
      9  CB        18.2930  119.1340   15.7540 C.3    57  SER57       0.2130
     10  OG        17.3770  118.0580   15.5990 O.3    57  SER57      -0.2179
     11  N         16.6890  121.7010   14.9760 N.am   58  TYR58      -0.1973
     12  CA        15.3310  122.2510   15.0280 C.3    58  TYR58       0.1639
     13  C         15.0480  123.2440   13.9250 C.2    58  TYR58       0.2290
     14  O         15.9000  124.0640   13.5790 O.2    58  TYR58      -0.2864
     15  CB        15.0590  122.9000   16.3900 C.3    58  TYR58       0.0560
     16  CG        15.2740  121.9160   17.4960 C.ar   58  TYR58      -0.0198
     17  CD1       16.3960  121.9860   18.3040 C.ar   58  TYR58      -0.0009
     18  CD2       14.3870  120.8540   17.6790 C.ar   58  TYR58      -0.0009
     19  CE1       16.6160  121.0500   19.3020 C.ar   58  TYR58       0.0417
     20  CE2       14.6020  119.9070   18.6700 C.ar   58  TYR58       0.0417
     21  CZ        15.7170  120.0150   19.4730 C.ar   58  TYR58       0.1957
     22  OH        15.9390  119.0890   20.4500 O.3    58  TYR58      -0.2866
     23  N         18.1580  132.4550   29.6240 N.3   166  PHE166     -0.1241
     24  CA        17.7130  132.8110   28.2730 C.3   166  PHE166      0.1605
     25  C         18.8840  133.1900   27.3710 C.2   166  PHE166      0.2264
     26  O         19.0130  132.6790   26.2430 O.2   166  PHE166     -0.2867
     27  CB        16.6740  133.9450   28.3660 C.3   166  PHE166      0.0534
     28  CG        16.2680  134.5310   27.0370 C.ar  166  PHE166     -0.0203
     29  CD1       15.5820  133.7710   26.0970 C.ar  166  PHE166     -0.0042
     30  CD2       16.5390  135.8650   26.7440 C.ar  166  PHE166     -0.0042
     31  CE1       15.1850  134.3380   24.8710 C.ar  166  PHE166     -0.0003
     32  CE2       16.1440  136.4310   25.5190 C.ar  166  PHE166     -0.0003
     33  CZ        15.4740  135.6640   24.5870 C.ar  166  PHE166     -0.0000
     34  N         21.2270  130.1150   26.7610 N.3   169  LEU169     -0.1231
     35  CA        20.6090  129.1160   25.8970 C.3   169  LEU169      0.1693
     36  C         20.5200  129.5710   24.4440 C.2   169  LEU169      0.2592
     37  O         20.7170  128.7800   23.5240 O.2   169  LEU169     -0.2718
     38  CB        19.2150  128.7820   26.4230 C.3   169  LEU169      0.0284
     39  CG        18.3890  127.7260   25.6930 C.3   169  LEU169      0.0019
     40  CD1       19.1670  126.4000   25.5640 C.3   169  LEU169      0.0001
     41  CD2       17.0570  127.5480   26.4150 C.3   169  LEU169      0.0001
     42  N         20.2110  130.8450   24.2460 N.am  170  CYS170     -0.1970
     43  CA        20.0680  131.3940   22.9060 C.3   170  CYS170      0.1712
     44  C         21.3880  131.4540   22.1630 C.2   170  CYS170      0.2296
     45  O         21.4340  131.1700   20.9660 O.2   170  CYS170     -0.2864
     46  CB        19.4380  132.7910   22.9580 C.3   170  CYS170      0.0983
     47  SG        17.6630  132.7720   23.1840 S.3   170  CYS170     -0.0798
     48  N         11.5330  132.9870   19.2630 N.3   196  ILE196     -0.1231
     49  CA        12.8140  132.3010   19.4980 C.3   196  ILE196      0.1692
     50  C         12.7370  131.2250   20.6000 C.2   196  ILE196      0.2591
     51  O         13.4290  130.1970   20.5210 O.2   196  ILE196     -0.2718
     52  CB        13.9990  133.3210   19.7090 C.3   196  ILE196      0.0266
     53  CG1       15.3420  132.6890   19.3400 C.3   196  ILE196      0.0019
     54  CG2       14.0110  133.9430   21.1270 C.3   196  ILE196      0.0020
     55  CD1       16.5510  133.6780   19.4120 C.3   196  ILE196      0.0001
     56  N         11.8760  131.4270   21.5950 N.am  197  ILE197     -0.1980
     57  CA        11.8750  130.5160   22.7550 C.3   197  ILE197      0.1595
     58  C         10.8290  129.4170   22.6770 C.2   197  ILE197      0.2287
     59  O         10.8390  128.4940   23.4880 O.2   197  ILE197     -0.2864
     60  CB        11.6990  131.2460   24.1130 C.3   197  ILE197      0.0276
     61  CG1       10.2560  131.7510   24.2830 C.3   197  ILE197      0.0022
     62  CG2       12.7380  132.3390   24.2620 C.3   197  ILE197      0.0022
     63  CD1        9.8150  131.8600   25.7320 C.3   197  ILE197      0.0001
     64  N         11.7890  125.8400   17.8560 N.3   204  GLN204     -0.1245
     65  CA        12.0060  124.4440   18.2210 C.3   204  GLN204      0.1566
     66  C         10.8130  123.5450   17.8770 C.2   204  GLN204      0.2260
     67  O         10.6980  122.4560   18.4300 O.2   204  GLN204     -0.2867
     68  CB        12.3350  124.3330   19.7170 C.3   204  GLN204      0.0367
     69  CG        13.7380  124.8530   20.0900 C.3   204  GLN204      0.0905
     70  CD        13.8920  126.3610   19.8580 C.2   204  GLN204      0.2608
     71  OE1       14.5790  126.7990   18.9240 O.2   204  GLN204     -0.2717
     72  NE2       13.2370  127.1540   20.6950 N.am  204  GLN204     -0.0878
     73  N         26.2630  119.0840   23.2440 N.3   294  LYS294     -0.1245
     74  CA        24.9260  118.5420   23.0610 C.3   294  LYS294      0.1561
     75  C         24.9180  117.0750   23.4890 C.2   294  LYS294      0.2260
     76  O         25.7600  116.2880   23.0490 O.2   294  LYS294     -0.2867
     77  CB        24.4630  118.7170   21.6060 C.3   294  LYS294      0.0271
     78  CG        23.0410  118.2420   21.3500 C.3   294  LYS294      0.0035
     79  CD        22.5680  118.6820   19.9810 C.3   294  LYS294      0.0206
     80  CE        21.1320  118.3110   19.7610 C.3   294  LYS294      0.1093
     81  NZ        20.6190  118.8590   18.4820 N.3   294  LYS294     -0.1314
     82  N         18.6030  123.2900   29.9890 N.3   324  TYR324     -0.1241
     83  CA        17.4540  123.1250   29.1020 C.3   324  TYR324      0.1605
     84  C         17.4530  121.7760   28.3960 C.2   324  TYR324      0.2264
     85  O         18.4810  121.3270   27.8980 O.2   324  TYR324     -0.2867
     86  CB        17.4340  124.2470   28.0600 C.3   324  TYR324      0.0534
     87  CG        16.1700  124.3460   27.2400 C.ar  324  TYR324     -0.0201
     88  CD1       14.9920  124.8310   27.8010 C.ar  324  TYR324     -0.0009
     89  CD2       16.1710  124.0090   25.8810 C.ar  324  TYR324     -0.0009
     90  CE1       13.8250  124.9670   27.0460 C.ar  324  TYR324      0.0417
     91  CE2       15.0030  124.1420   25.1110 C.ar  324  TYR324      0.0417
     92  CZ        13.8400  124.6160   25.7000 C.ar  324  TYR324      0.1957
     93  OH        12.6860  124.7460   24.9620 O.3   324  TYR324     -0.2866
     94  N         14.8570  118.9900   25.8210 N.3   326  LEU326     -0.1245
     95  CA        13.6550  118.6960   25.0520 C.3   326  LEU326      0.1561
     96  C         13.5650  117.1950   24.8690 C.2   326  LEU326      0.2260
     97  O         14.5820  116.5000   24.8590 O.2   326  LEU326     -0.2867
     98  CB        13.7070  119.3670   23.6750 C.3   326  LEU326      0.0270
     99  CG        13.6800  120.8970   23.6530 C.3   326  LEU326      0.0019
    100  CD1       14.1490  121.4280   22.2960 C.3   326  LEU326      0.0001
    101  CD2       12.2820  121.4230   24.0250 C.3   326  LEU326      0.0001
    102  N         21.4690  120.4870   26.7310 N.3   341  PHE341     -0.1241
    103  CA        22.6170  121.3110   26.3500 C.3   341  PHE341      0.1605
    104  C         23.4230  121.6570   27.5930 C.2   341  PHE341      0.2264
    105  O         22.8520  122.1090   28.5890 O.2   341  PHE341     -0.2867
    106  CB        22.1490  122.6460   25.7430 C.3   341  PHE341      0.0534
    107  CG        21.5690  122.5470   24.3580 C.ar  341  PHE341     -0.0203
    108  CD1       20.2640  122.9740   24.1130 C.ar  341  PHE341     -0.0042
    109  CD2       22.3320  122.0780   23.2880 C.ar  341  PHE341     -0.0042
    110  CE1       19.7150  122.9090   22.8250 C.ar  341  PHE341     -0.0003
    111  CE2       21.7880  122.0050   21.9920 C.ar  341  PHE341     -0.0003
    112  CZ        20.4810  122.4220   21.7680 C.ar  341  PHE341     -0.0000
    113  N         26.3400  127.5920   18.9930 N.3   396  TYR396     -0.1241
    114  CA        25.7300  127.3810   17.6770 C.3   396  TYR396      0.1605
    115  C         26.2910  128.3080   16.6390 C.2   396  TYR396      0.2264
    116  O         26.2990  127.9770   15.4410 O.2   396  TYR396     -0.2867
    117  CB        24.2130  127.6460   17.7160 C.3   396  TYR396      0.0534
    118  CG        23.5380  127.3050   19.0210 C.ar  396  TYR396     -0.0201
    119  CD1       23.6200  126.0220   19.5570 C.ar  396  TYR396     -0.0009
    120  CD2       22.8010  128.2670   19.7150 C.ar  396  TYR396     -0.0009
    121  CE1       22.9900  125.6990   20.7540 C.ar  396  TYR396      0.0417
    122  CE2       22.1720  127.9570   20.9160 C.ar  396  TYR396      0.0417
    123  CZ        22.2700  126.6720   21.4300 C.ar  396  TYR396      0.1957
    124  OH        21.6480  126.3640   22.6200 O.3   396  TYR396     -0.2866
    125  N         21.1420  130.1330   12.5850 N.3   433  TYR433     -0.1241
    126  CA        20.3480  128.9210   12.3500 C.3   433  TYR433      0.1605
    127  C         20.5720  128.3730   10.9420 C.2   433  TYR433      0.2264
    128  O         21.1470  129.0330   10.0730 O.2   433  TYR433     -0.2867
    129  CB        18.8530  129.2290   12.5170 C.3   433  TYR433      0.0534
    130  CG        18.4560  129.5910   13.9270 C.ar  433  TYR433     -0.0201
    131  CD1       18.8410  130.8130   14.4990 C.ar  433  TYR433     -0.0009
    132  CD2       17.6900  128.7190   14.6900 C.ar  433  TYR433     -0.0009
    133  CE1       18.4840  131.1250   15.8170 C.ar  433  TYR433      0.0417
    134  CE2       17.3210  129.0290   15.9840 C.ar  433  TYR433      0.0417
    135  CZ        17.7150  130.2340   16.5400 C.ar  433  TYR433      0.1957
    136  OH        17.3330  130.5290   17.8330 O.3   433  TYR433     -0.2866
@<TRIPOS>BOND
     1   128   127    2
     2   127   126    1
     3   126   129    1
     4   126   125    1
     5   129   130    1
     6     4     3    2
     7     8     7    2
     8    14    13    2
     9    13    12    1
    10   130   131   ar
    11   130   132   ar
    12     3     2    1
    13     3     5   am
    14     7     6    1
    15     7    11   am
    16     6     5    1
    17     6     9    1
    18     2     1    1
    19   131   133   ar
    20   132   134   ar
    21    11    12    1
    22    12    15    1
    23   116   115    2
    24    10     9    1
    25   133   135   ar
    26   134   135   ar
    27    15    16    1
    28   135   136    1
    29   115   114    1
    30    16    18   ar
    31    16    17   ar
    32   114   117    1
    33   114   113    1
    34    18    20   ar
    35   117   118    1
    36    64    65    1
    37    66    65    1
    38    66    67    2
    39    65    68    1
    40    17    19   ar
    41    81    80    1
    42    20    21   ar
    43    71    70    2
    44   118   119   ar
    45   118   120   ar
    46    48    49    1
    47    19    21   ar
    48    53    55    1
    49    53    52    1
    50    21    22    1
    51    49    52    1
    52    49    50    1
    53   119   121   ar
    54    52    54    1
    55   120   122   ar
    56    68    69    1
    57    80    79    1
    58    70    69    1
    59    70    72   am
    60    79    78    1
    61    51    50    2
    62    50    56   am
    63   121   123   ar
    64   122   123   ar
    65    45    44    2
    66    78    77    1
    67   123   124    1
    68    56    57    1
    69    77    74    1
    70   112   111   ar
    71   112   110   ar
    72   111   109   ar
    73    44    43    1
    74   100    99    1
    75    58    57    1
    76    58    59    2
    77    57    60    1
    78   110   108   ar
    79    43    46    1
    80    43    42    1
    81    46    47    1
    82    76    75    2
    83    74    73    1
    84    74    75    1
    85   109   107   ar
    86    37    36    2
    87    99    98    1
    88    99   101    1
    89    98    95    1
    90   108   107   ar
    91    60    62    1
    92    60    61    1
    93    42    36   am
    94    61    63    1
    95   107   106    1
    96    36    35    1
    97    33    31   ar
    98    33    32   ar
    99    97    96    2
   100    96    95    1
   101    31    29   ar
   102    93    92    1
   103    95    94    1
   104    91    92   ar
   105    91    89   ar
   106    32    30   ar
   107    40    39    1
   108    39    41    1
   109    39    38    1
   110    92    90   ar
   111   106   103    1
   112    89    87   ar
   113    35    38    1
   114    35    34    1
   115    29    28   ar
   116    26    25    2
   117   103   102    1
   118   103   104    1
   119    30    28   ar
   120    28    27    1
   121    90    88   ar
   122    87    88   ar
   123    87    86    1
   124    25    24    1
   125   104   105    2
   126    85    84    2
   127    86    83    1
   128    24    27    1
   129    24    23    1
   130    84    83    1
   131    83    82    1
