@<TRIPOS>MOLECULE
tmp/3po9B00.pdb
 156 147 0 0 0
SMALL
GASTEIGER

@<TRIPOS>ATOM
      1  N         45.2070    0.0320   46.6300 N.3    55  ALA55      -0.1245
      2  CA        44.2540    0.1430   45.5330 C.3    55  ALA55       0.1562
      3  C         44.8230   -0.4350   44.2290 C.2    55  ALA55       0.2260
      4  O         44.1370   -1.1750   43.5190 O.2    55  ALA55      -0.2867
      5  CB        43.8110    1.5830   45.3520 C.3    55  ALA55       0.0290
      6  N         44.7620   -4.2160   44.4740 N.3    58  ILE58      -0.1231
      7  CA        43.4370   -4.7970   44.2840 C.3    58  ILE58       0.1692
      8  C         43.0690   -4.8350   42.7880 C.2    58  ILE58       0.2592
      9  O         42.5080   -5.8120   42.3030 O.2    58  ILE58      -0.2718
     10  CB        42.3490   -4.0510   45.0930 C.3    58  ILE58       0.0266
     11  CG1       42.6740   -4.0870   46.5950 C.3    58  ILE58       0.0019
     12  CG2       40.9750   -4.6550   44.8400 C.3    58  ILE58       0.0020
     13  CD1       41.4710   -3.7960   47.4920 C.3    58  ILE58       0.0001
     14  N         43.3980   -3.7690   42.0690 N.am   59  PHE59      -0.1976
     15  CA        43.1210   -3.6810   40.6380 C.3    59  PHE59       0.1639
     16  C         43.8070   -4.8100   39.8670 C.2    59  PHE59       0.2290
     17  O         43.1830   -5.5190   39.0790 O.2    59  PHE59      -0.2864
     18  CB        43.5750   -2.3250   40.0940 C.3    59  PHE59       0.0560
     19  CG        43.3180   -2.1490   38.6270 C.ar   59  PHE59      -0.0200
     20  CD1       42.0210   -2.0410   38.1480 C.ar   59  PHE59      -0.0042
     21  CD2       44.3710   -2.0930   37.7240 C.ar   59  PHE59      -0.0042
     22  CE1       41.7790   -1.8860   36.7900 C.ar   59  PHE59      -0.0003
     23  CE2       44.1360   -1.9380   36.3750 C.ar   59  PHE59      -0.0003
     24  CZ        42.8380   -1.8330   35.9070 C.ar   59  PHE59      -0.0000
     25  N         42.0790   -8.0870   40.0620 N.3    62  CYS62      -0.1221
     26  CA        40.8580   -8.1950   39.2690 C.3    62  CYS62       0.1808
     27  C         41.1750   -8.4670   37.8040 C.2    62  CYS62       0.2601
     28  O         40.4640   -9.2050   37.1300 O.2    62  CYS62      -0.2717
     29  CB        40.0100   -6.9320   39.4020 C.3    62  CYS62       0.0970
     30  SG        39.2910   -6.7490   41.0280 S.3    62  CYS62      -0.0800
     31  N         42.2500   -7.8560   37.3210 N.am   63  GLN63      -0.1979
     32  CA        42.7880   -8.1680   36.0050 C.3    63  GLN63       0.1601
     33  C         43.0590   -9.6620   35.9110 C.2    63  GLN63       0.2287
     34  O         42.5720  -10.3330   35.0040 O.2    63  GLN63      -0.2864
     35  CB        44.0670   -7.3660   35.7640 C.3    63  GLN63       0.0394
     36  CG        43.8150   -5.8750   35.7680 C.3    63  GLN63       0.0908
     37  CD        42.6670   -5.5070   34.8440 C.2    63  GLN63       0.2608
     38  OE1       42.7210   -5.7740   33.6450 O.2    63  GLN63      -0.2717
     39  NE2       41.6180   -4.9080   35.3970 N.am   63  GLN63      -0.0878
     40  N         39.8510  -11.6210   35.8510 N.3    66  SER66      -0.1217
     41  CA        39.1520  -11.3690   34.6080 C.3    66  SER66       0.1889
     42  C         39.8080  -12.1650   33.4720 C.2    66  SER66       0.2288
     43  O         39.1240  -12.8180   32.6750 O.2    66  SER66      -0.2866
     44  CB        39.1290   -9.8740   34.3060 C.3    66  SER66       0.2089
     45  OG        38.2830   -9.2040   35.2210 O.3    66  SER66      -0.2183
     46  N         30.6130   -8.7150   33.6000 N.3   104  TYR104     -0.1241
     47  CA        29.8300   -7.9110   34.5320 C.3   104  TYR104      0.1605
     48  C         28.3940   -8.3940   34.7240 C.2   104  TYR104      0.2264
     49  O         27.7760   -8.1520   35.7590 O.2   104  TYR104     -0.2867
     50  CB        29.9470   -6.4270   34.1750 C.3   104  TYR104      0.0534
     51  CG        31.3670   -6.0010   34.4100 C.ar  104  TYR104     -0.0201
     52  CD1       31.9230   -6.1040   35.6780 C.ar  104  TYR104     -0.0009
     53  CD2       32.1690   -5.5560   33.3820 C.ar  104  TYR104     -0.0009
     54  CE1       33.2300   -5.7570   35.9200 C.ar  104  TYR104      0.0417
     55  CE2       33.4880   -5.1980   33.6110 C.ar  104  TYR104      0.0417
     56  CZ        34.0130   -5.3040   34.8840 C.ar  104  TYR104      0.1957
     57  OH        35.3230   -4.9550   35.1370 O.3   104  TYR104     -0.2866
     58  N         29.1990  -11.2380   37.1210 N.3   107  LEU107     -0.1245
     59  CA        29.6510  -10.6260   38.3480 C.3   107  LEU107      0.1561
     60  C         28.4490  -10.2430   39.2170 C.2   107  LEU107      0.2260
     61  O         28.5220  -10.3410   40.4290 O.2   107  LEU107     -0.2867
     62  CB        30.4980   -9.3920   38.0440 C.3   107  LEU107      0.0270
     63  CG        31.2010   -8.8780   39.2990 C.3   107  LEU107      0.0019
     64  CD1       31.9430  -10.0380   39.9600 C.3   107  LEU107      0.0001
     65  CD2       32.1350   -7.6790   39.0370 C.3   107  LEU107      0.0001
     66  N         30.6040   -8.1550   47.2120 N.3   116  VAL116     -0.1245
     67  CA        30.8880   -9.0690   46.1100 C.3   116  VAL116      0.1561
     68  C         31.7710  -10.2250   46.5740 C.2   116  VAL116      0.2260
     69  O         32.7720  -10.0190   47.2590 O.2   116  VAL116     -0.2867
     70  CB        31.5740   -8.3190   44.9100 C.3   116  VAL116      0.0252
     71  CG1       32.7990   -7.5390   45.3730 C.3   116  VAL116      0.0019
     72  CG2       31.9620   -9.2940   43.8120 C.3   116  VAL116      0.0019
     73  N         34.6530  -12.7090   46.2710 N.3   118  ILE118     -0.1245
     74  CA        35.9050  -12.8210   45.5280 C.3   118  ILE118      0.1561
     75  C         36.6210  -14.1330   45.8150 C.2   118  ILE118      0.2260
     76  O         36.2300  -14.8900   46.7050 O.2   118  ILE118     -0.2867
     77  CB        36.8830  -11.6930   45.8380 C.3   118  ILE118      0.0252
     78  CG1       37.5550  -11.9520   47.1880 C.3   118  ILE118      0.0019
     79  CG2       36.1820  -10.3510   45.7710 C.3   118  ILE118      0.0019
     80  CD1       38.5550  -10.9160   47.5720 C.3   118  ILE118      0.0001
     81  N         34.3050   -8.8920   49.5920 N.3   125  MET125     -0.1245
     82  CA        34.7780   -7.5270   49.7140 C.3   125  MET125      0.1570
     83  C         33.5620   -6.6170   49.7430 C.2   125  MET125      0.2261
     84  O         32.6710   -6.7440   48.8960 O.2   125  MET125     -0.2867
     85  CB        35.7300   -7.1720   48.5610 C.3   125  MET125      0.0387
     86  CG        36.6540   -5.9880   48.8590 C.3   125  MET125      0.0595
     87  SD        37.9430   -5.7240   47.6200 S.3   125  MET125     -0.1393
     88  CE        38.6880   -7.3500   47.6170 C.3   125  MET125      0.0692
     89  N         35.3640   -0.8900   48.8180 N.3   130  LEU130     -0.1245
     90  CA        35.7330   -0.6200   47.4280 C.3   130  LEU130      0.1561
     91  C         35.6060    0.8560   47.1220 C.2   130  LEU130      0.2260
     92  O         36.5000    1.4620   46.5270 O.2   130  LEU130     -0.2867
     93  CB        34.8700   -1.4380   46.4620 C.3   130  LEU130      0.0270
     94  CG        35.2330   -2.9220   46.4670 C.3   130  LEU130      0.0019
     95  CD1       34.1790   -3.7660   45.7880 C.3   130  LEU130      0.0001
     96  CD2       36.5770   -3.0970   45.8150 C.3   130  LEU130      0.0001
     97  N         38.4080    3.3430   48.1470 N.3   133  LEU133     -0.1245
     98  CA        39.7090    3.3520   47.4950 C.3   133  LEU133      0.1561
     99  C         39.9600    4.7160   46.8610 C.2   133  LEU133      0.2260
    100  O         39.0260    5.3620   46.3850 O.2   133  LEU133     -0.2867
    101  CB        39.7740    2.2450   46.4510 C.3   133  LEU133      0.0270
    102  CG        39.4400    0.8830   47.0600 C.3   133  LEU133      0.0019
    103  CD1       39.4570   -0.2180   46.0070 C.3   133  LEU133      0.0001
    104  CD2       40.4280    0.5910   48.1770 C.3   133  LEU133      0.0001
    105  N         40.3640    4.6550   41.3890 N.3   137  PHE137     -0.1241
    106  CA        40.0890    3.2660   41.7380 C.3   137  PHE137      0.1605
    107  C         38.7950    3.0580   42.5210 C.2   137  PHE137      0.2264
    108  O         38.1060    2.0540   42.3390 O.2   137  PHE137     -0.2867
    109  CB        41.2640    2.6830   42.5150 C.3   137  PHE137      0.0534
    110  CG        42.5230    2.5820   41.7130 C.ar  137  PHE137     -0.0203
    111  CD1       42.7050    1.5450   40.8140 C.ar  137  PHE137     -0.0042
    112  CD2       43.5250    3.5230   41.8520 C.ar  137  PHE137     -0.0042
    113  CE1       43.8550    1.4470   40.0870 C.ar  137  PHE137     -0.0003
    114  CE2       44.6800    3.4260   41.1170 C.ar  137  PHE137     -0.0003
    115  CZ        44.8470    2.3880   40.2370 C.ar  137  PHE137     -0.0000
    116  N         35.4860    2.2880   40.1610 N.3   140  PHE140     -0.1227
    117  CA        35.2210    1.1620   39.2820 C.3   140  PHE140      0.1736
    118  C         33.9430    0.4110   39.6400 C.2   140  PHE140      0.2595
    119  O         33.1050    0.1510   38.7740 O.2   140  PHE140     -0.2718
    120  CB        36.4040    0.1890   39.2600 C.3   140  PHE140      0.0547
    121  CG        37.4940    0.5900   38.3180 C.ar  140  PHE140     -0.0202
    122  CD1       37.3290    0.4480   36.9420 C.ar  140  PHE140     -0.0042
    123  CD2       38.6840    1.1120   38.7960 C.ar  140  PHE140     -0.0042
    124  CE1       38.3320    0.8200   36.0610 C.ar  140  PHE140     -0.0003
    125  CE2       39.6920    1.4890   37.9160 C.ar  140  PHE140     -0.0003
    126  CZ        39.5110    1.3430   36.5440 C.ar  140  PHE140     -0.0000
    127  N         33.7840    0.0620   40.9130 N.am  141  MET141     -0.1979
    128  CA        32.7820   -0.9410   41.2720 C.3   141  MET141      0.1605
    129  C         31.3950   -0.3850   41.5350 C.2   141  MET141      0.2287
    130  O         30.3900   -1.0690   41.3080 O.2   141  MET141     -0.2864
    131  CB        33.2620   -1.7600   42.4650 C.3   141  MET141      0.0413
    132  CG        34.5250   -2.5510   42.1860 C.3   141  MET141      0.0598
    133  SD        34.2840   -3.6040   40.7570 S.3   141  MET141     -0.1393
    134  CE        32.7730   -4.4540   41.1910 C.3   141  MET141      0.0692
    135  N         33.5150    1.7720   31.8360 N.3   226  HIS226     -0.1241
    136  CA        34.5960    1.0110   32.4260 C.3   226  HIS226      0.1621
    137  C         35.8430    1.1720   31.5610 C.2   226  HIS226      0.2264
    138  O         36.9480    1.3740   32.0630 O.2   226  HIS226     -0.2867
    139  CB        34.1900   -0.4570   32.5700 C.3   226  HIS226      0.0745
    140  CG        35.2150   -1.2950   33.2620 C.ar  226  HIS226      0.0817
    141  ND1       35.2900   -1.3940   34.6340 N.ar  226  HIS226     -0.2268
    142  CD2       36.2170   -2.0640   32.7740 C.ar  226  HIS226      0.1154
    143  CE1       36.2900   -2.1930   34.9620 C.ar  226  HIS226      0.1986
    144  NE2       36.8710   -2.6100   33.8520 N.ar  226  HIS226     -0.2212
    145  N         40.6710   -5.0470   31.8990 N.3   249  TYR249     -0.1241
    146  CA        39.3250   -5.5680   31.9500 C.3   249  TYR249      0.1605
    147  C         38.5270   -4.8900   33.0210 C.2   249  TYR249      0.2264
    148  O         37.3570   -5.1420   33.1470 O.2   249  TYR249     -0.2867
    149  CB        39.3170   -7.0860   32.1240 C.3   249  TYR249      0.0534
    150  CG        39.8110   -7.8630   30.9240 C.ar  249  TYR249     -0.0201
    151  CD1       41.1270   -8.2100   30.8000 C.ar  249  TYR249     -0.0009
    152  CD2       38.9580   -8.2390   29.9350 C.ar  249  TYR249     -0.0009
    153  CE1       41.5680   -8.8750   29.7440 C.ar  249  TYR249      0.0417
    154  CE2       39.3960   -8.9020   28.8710 C.ar  249  TYR249      0.0417
    155  CZ        40.7000   -9.2340   28.7790 C.ar  249  TYR249      0.1957
    156  OH        41.1350   -9.9150   27.6960 O.3   249  TYR249     -0.2866
@<TRIPOS>BOND
     1   156   155    1
     2   155   154   ar
     3   155   153   ar
     4   154   152   ar
     5   153   151   ar
     6   152   150   ar
     7   151   150   ar
     8   150   149    1
     9   137   138    2
    10   137   136    1
    11   135   136    1
    12   145   146    1
    13   146   149    1
    14   146   147    1
    15   136   139    1
    16   139   140    1
    17    43    42    2
    18   142   140   ar
    19   142   144   ar
    20   147   148    2
    21   140   141   ar
    22    53    55   ar
    23    53    51   ar
    24    42    41    1
    25    46    47    1
    26    55    56   ar
    27    38    37    2
    28   144   143   ar
    29    50    51    1
    30    50    47    1
    31    44    41    1
    32    44    45    1
    33    51    52   ar
    34    47    48    1
    35    41    40    1
    36   141   143   ar
    37    48    49    2
    38    37    39   am
    39    37    36    1
    40    56    57    1
    41    56    54   ar
    42    34    33    2
    43    52    54   ar
    44    35    36    1
    45    35    32    1
    46    24    23   ar
    47    24    22   ar
    48    33    32    1
    49    32    31    1
    50   124   126   ar
    51   124   122   ar
    52    23    21   ar
    53   126   125   ar
    54    22    20   ar
    55   122   121   ar
    56    58    59    1
    57    28    27    2
    58    31    27   am
    59    21    19   ar
    60    27    26    1
    61   125   123   ar
    62    62    59    1
    63    62    63    1
    64    20    19   ar
    65   121   123   ar
    66   121   120    1
    67    59    60    1
    68    19    18    1
    69   119   118    2
    70    65    63    1
    71    17    16    2
    72    60    61    2
    73   120   117    1
    74    26    29    1
    75    26    25    1
    76   117   118    1
    77   117   116    1
    78    63    64    1
    79    29    30    1
    80   118   127   am
    81    16    15    1
    82   113   115   ar
    83   113   111   ar
    84    18    15    1
    85   115   114   ar
    86    15    14    1
    87   133   134    1
    88   133   132    1
    89   111   110   ar
    90   127   128    1
    91   114   112   ar
    92   128   129    1
    93   128   131    1
    94   130   129    2
    95   105   106    1
    96   110   112   ar
    97   110   109    1
    98   106   109    1
    99   106   107    1
   100    14     8   am
   101   132   131    1
   102     9     8    2
   103   108   107    2
   104     8     7    1
   105     4     3    2
   106    72    70    1
   107     3     2    1
   108     7     6    1
   109     7    10    1
   110    12    10    1
   111    70    71    1
   112    70    67    1
   113    10    11    1
   114     5     2    1
   115    74    75    1
   116    74    77    1
   117    74    73    1
   118     2     1    1
   119    79    77    1
   120    95    94    1
   121    75    76    2
   122    96    94    1
   123    77    78    1
   124   103   102    1
   125    67    68    1
   126    67    66    1
   127   100    99    2
   128   101   102    1
   129   101    98    1
   130    93    94    1
   131    93    90    1
   132    92    91    2
   133    68    69    2
   134    11    13    1
   135    99    98    1
   136   102   104    1
   137    91    90    1
   138    78    80    1
   139    90    89    1
   140    98    97    1
   141    88    87    1
   142    87    86    1
   143    85    86    1
   144    85    82    1
   145    84    83    2
   146    81    82    1
   147    82    83    1
