@<TRIPOS>MOLECULE
tmp/3poaA00.pdb
 88 85 0 0 0
SMALL
GASTEIGER

@<TRIPOS>ATOM
      1  N          6.7780   19.7470   37.9810 N.3    26  ARG26      -0.1231
      2  CA         5.3640   19.3480   37.9910 C.3    26  ARG26       0.1694
      3  C          4.5050   20.4250   38.6600 C.2    26  ARG26       0.2593
      4  O          3.3000   20.4750   38.4530 O.2    26  ARG26      -0.2718
      5  CB         5.2200   17.9900   38.6920 C.3    26  ARG26       0.0321
      6  CG         3.8220   17.3460   38.6520 C.3    26  ARG26       0.0489
      7  CD         3.9210   15.8490   38.9340 C.3    26  ARG26       0.2205
      8  NE         4.8430   15.6180   40.0420 N.pl3  26  ARG26      -0.0865
      9  CZ         4.4920   15.6500   41.3250 C.cat  26  ARG26       0.5346
     10  NH1        3.2280   15.8390   41.6650 N.pl3  26  ARG26       0.1354
     11  NH2        5.4110   15.4660   42.2640 N.pl3  26  ARG26       0.1354
     12  N          5.1460   21.3110   39.4210 N.am   27  GLY27      -0.1942
     13  CA         4.4480   22.3820   40.1460 C.3    27  GLY27       0.2014
     14  C          3.7810   23.4200   39.2500 C.2    27  GLY27       0.2638
     15  O          4.2260   23.6620   38.1370 O.2    27  GLY27      -0.2714
     16  N          2.7090   24.0300   39.7530 N.am   28  GLN28      -0.1977
     17  CA         1.9480   25.0570   39.0210 C.3    28  GLN28       0.1601
     18  C          2.7710   26.2990   38.6630 C.2    28  GLN28       0.2287
     19  O          2.4880   26.9710   37.6690 O.2    28  GLN28      -0.2864
     20  CB         0.7040   25.4760   39.8260 C.3    28  GLN28       0.0394
     21  CG         1.0190   26.0800   41.2120 C.3    28  GLN28       0.0908
     22  CD        -0.2230   26.3660   42.0630 C.2    28  GLN28       0.2608
     23  OE1       -1.1100   25.5160   42.2070 O.2    28  GLN28      -0.2717
     24  NE2       -0.2740   27.5630   42.6470 N.am   28  GLN28      -0.0878
     25  N          4.5280   12.0140   37.3230 N.3    37  THR37      -0.1203
     26  CA         4.5020   11.9390   38.7910 C.3    37  THR37       0.1994
     27  C          5.8670   11.6150   39.4380 C.2    37  THR37       0.2618
     28  O          6.0180   11.7010   40.6590 O.2    37  THR37      -0.2717
     29  CB         3.3830   11.0000   39.3280 C.3    37  THR37       0.1784
     30  OG1        3.5540    9.6750   38.8050 O.3    37  THR37      -0.2211
     31  CG2        1.9820   11.5450   38.9730 C.3    37  THR37       0.0376
     32  N          6.8630   11.2760   38.6170 N.am   38  GLY38      -0.1942
     33  CA         8.2450   11.1680   39.0950 C.3    38  GLY38       0.2014
     34  C          9.0630   12.4520   38.9510 C.2    38  GLY38       0.2639
     35  O         10.2180   12.5100   39.3700 O.2    38  GLY38      -0.2714
     36  N          8.4680   13.4780   38.3490 N.am   39  VAL39      -0.1963
     37  CA         9.0970   14.8040   38.2530 C.3    39  VAL39       0.1727
     38  C          8.7710   15.6200   39.5060 C.2    39  VAL39       0.2617
     39  O          7.6110   15.7100   39.9250 O.2    39  VAL39      -0.2715
     40  CB         8.6650   15.5620   36.9620 C.3    39  VAL39       0.0290
     41  CG1        9.2300   16.9790   36.9330 C.3    39  VAL39       0.0023
     42  CG2        9.1230   14.7990   35.7160 C.3    39  VAL39       0.0023
     43  N          9.7960   16.2020   40.1180 N.am   40  SER40      -0.1936
     44  CA         9.5840   17.0370   41.2950 C.3    40  SER40       0.2055
     45  C          8.8360   18.2940   40.9070 C.2    40  SER40       0.2642
     46  O          8.8930   18.7330   39.7680 O.2    40  SER40      -0.2714
     47  CB        10.9140   17.4040   41.9540 C.3    40  SER40       0.2130
     48  OG        11.4620   16.2840   42.6210 O.3    40  SER40      -0.2179
     49  N          8.1380   18.8750   41.8680 N.am   41  ARG41      -0.1977
     50  CA         7.3890   20.0950   41.6320 C.3    41  ARG41       0.1597
     51  C          8.2670   21.2520   41.1570 C.2    41  ARG41       0.2287
     52  O          7.8650   21.9880   40.2630 O.2    41  ARG41      -0.2864
     53  CB         6.5260   20.4240   42.8480 C.3    41  ARG41       0.0334
     54  CG         5.3630   19.4050   42.9370 C.3    41  ARG41       0.0492
     55  CD         4.7220   19.3010   44.3050 C.3    41  ARG41       0.2205
     56  NE         5.4210   18.3970   45.2190 N.pl3  41  ARG41      -0.0865
     57  CZ         4.9280   18.0160   46.3930 C.cat  41  ARG41       0.5346
     58  NH1        3.7240   18.4310   46.7750 N.pl3  41  ARG41       0.1354
     59  NH2        5.6230   17.2070   47.1870 N.pl3  41  ARG41       0.1354
     60  N         13.8950   14.8790   43.8530 N.3    61  THR61      -0.1203
     61  CA        13.7220   13.5520   44.4200 C.3    61  THR61       0.1994
     62  C         14.3930   12.4490   43.5730 C.2    61  THR61       0.2617
     63  O         15.0480   11.5670   44.1200 O.2    61  THR61      -0.2717
     64  CB        12.2270   13.2610   44.6160 C.3    61  THR61       0.1784
     65  OG1       11.7260   14.1230   45.6400 O.3    61  THR61      -0.2211
     66  CG2       11.9910   11.8130   45.0040 C.3    61  THR61       0.0376
     67  N         14.2400   12.5050   42.2500 N.am   62  ASN62      -0.1974
     68  CA        14.7100   11.3950   41.3960 C.3    62  ASN62       0.1688
     69  C         15.9410   11.7000   40.5510 C.2    62  ASN62       0.2292
     70  O         16.4570   10.8290   39.8580 O.2    62  ASN62      -0.2864
     71  CB        13.5760   10.8590   40.5170 C.3    62  ASN62       0.1181
     72  CG        12.5040   10.1340   41.3220 C.2    62  ASN62       0.2629
     73  OD1       11.3020   10.3600   41.1270 O.2    62  ASN62      -0.2716
     74  ND2       12.9320    9.2580   42.2270 N.am   62  ASN62      -0.0877
     75  N         12.2550   12.2010   35.8830 N.3    85  GLY85      -0.1210
     76  CA        11.1690   11.2430   36.0540 C.3    85  GLY85       0.1956
     77  C         11.2620   10.1890   34.9600 C.2    85  GLY85       0.2611
     78  O         12.3060    9.5430   34.7980 O.2    85  GLY85      -0.2717
     79  N         10.1910   10.0410   34.1850 N.am   86  HIS86      -0.1975
     80  CA        10.2220    9.1730   32.9910 C.3    86  HIS86       0.1656
     81  C         10.1500   10.0020   31.7130 C.2    86  HIS86       0.2291
     82  O          9.8640    9.4630   30.6360 O.2    86  HIS86      -0.2864
     83  CB         9.0780    8.1450   32.9530 C.3    86  HIS86       0.0771
     84  CG         8.4340    7.8760   34.2710 C.ar   86  HIS86       0.0820
     85  ND1        8.8340    6.8500   35.1000 N.ar   86  HIS86      -0.2267
     86  CD2        7.3850    8.4740   34.8870 C.ar   86  HIS86       0.1154
     87  CE1        8.0720    6.8420   36.1800 C.ar   86  HIS86       0.1986
     88  NE2        7.1860    7.8180   36.0760 N.ar   86  HIS86      -0.2212
@<TRIPOS>BOND
     1    82    81    2
     2    81    80    1
     3    83    80    1
     4    83    84    1
     5    80    79    1
     6    79    77   am
     7    84    86   ar
     8    84    85   ar
     9    78    77    2
    10    86    88   ar
    11    77    76    1
    12    85    87   ar
    13    42    40    1
    14    75    76    1
    15    88    87   ar
    16    41    40    1
    17    40    37    1
    18    25    26    1
    19    19    18    2
    20     1     2    1
    21     2     3    1
    22     2     5    1
    23    15    14    2
    24    37    36    1
    25    37    38    1
    26    36    34   am
    27     4     3    2
    28    32    33    1
    29    32    27   am
    30     6     5    1
    31     6     7    1
    32     3    12   am
    33    18    17    1
    34    26    29    1
    35    26    27    1
    36    30    29    1
    37     7     8    1
    38    34    33    1
    39    34    35    2
    40    31    29    1
    41    17    16    1
    42    17    20    1
    43    14    16   am
    44    14    13    1
    45    12    13    1
    46    27    28    2
    47    38    39    2
    48    38    43   am
    49    46    45    2
    50    20    21    1
    51    70    69    2
    52     8     9    2
    53    43    44    1
    54    52    51    2
    55    71    72    1
    56    71    68    1
    57    69    68    1
    58    45    44    1
    59    45    49   am
    60    73    72    2
    61    51    50    1
    62    21    22    1
    63    44    47    1
    64    72    74   am
    65     9    10    1
    66     9    11    1
    67    68    67    1
    68    50    49    1
    69    50    53    1
    70    47    48    1
    71    22    23    2
    72    22    24   am
    73    67    62   am
    74    53    54    1
    75    54    55    1
    76    62    63    2
    77    62    61    1
    78    60    61    1
    79    55    56    1
    80    61    64    1
    81    64    66    1
    82    64    65    1
    83    56    57    2
    84    57    58    1
    85    57    59    1
