@<TRIPOS>MOLECULE
tmp/3pocA00.pdb
 141 139 0 0 0
SMALL
GASTEIGER

@<TRIPOS>ATOM
      1  N        -29.1960  -13.2510   50.4280 N.3    74  ASP74      -0.1239
      2  CA       -28.1220  -12.2980   50.2500 C.3    74  ASP74       0.1674
      3  C        -28.0370  -11.9430   48.7790 C.2    74  ASP74       0.2266
      4  O        -27.2870  -12.5760   48.0420 O.2    74  ASP74      -0.2867
      5  CB       -26.8040  -12.9400   50.7010 C.3    74  ASP74       0.1410
      6  CG       -25.6120  -12.0250   50.5250 C.2    74  ASP74       0.3668
      7  OD1      -24.4670  -12.5180   50.5950 O.co2  74  ASP74      -0.2456
      8  OD2      -25.8190  -10.8160   50.3140 O.co2  74  ASP74      -0.2456
      9  N        -16.6210   -0.2510   53.7990 N.3   170  TRP170     -0.1241
     10  CA       -15.9290   -1.5150   53.6550 C.3   170  TRP170      0.1605
     11  C        -14.5390   -1.1640   53.1410 C.2   170  TRP170      0.2264
     12  O        -14.3800   -0.8120   51.9800 O.2   170  TRP170     -0.2867
     13  CB       -16.6870   -2.4000   52.6620 C.3   170  TRP170      0.0550
     14  CG       -16.0750   -3.7460   52.4250 C.ar  170  TRP170      0.0003
     15  CD1      -14.9860   -4.2880   53.0570 C.ar  170  TRP170      0.0946
     16  CD2      -16.5140   -4.7190   51.4780 C.ar  170  TRP170      0.0152
     17  NE1      -14.7270   -5.5450   52.5610 N.ar  170  TRP170     -0.2442
     18  CE2      -15.6510   -5.8320   51.5890 C.ar  170  TRP170      0.0810
     19  CE3      -17.5590   -4.7600   50.5450 C.ar  170  TRP170      0.0012
     20  CZ2      -15.8000   -6.9740   50.7960 C.ar  170  TRP170      0.0191
     21  CZ3      -17.7090   -5.8960   49.7600 C.ar  170  TRP170      0.0001
     22  CH2      -16.8310   -6.9850   49.8870 C.ar  170  TRP170      0.0015
     23  N        -16.0570   -1.9990   59.5970 N.3   198  ASP198     -0.1225
     24  CA       -16.3870   -3.1530   58.7930 C.3   198  ASP198      0.1805
     25  C        -15.3630   -4.2510   59.0110 C.2   198  ASP198      0.2597
     26  O        -14.4140   -4.0900   59.7910 O.2   198  ASP198     -0.2718
     27  CB       -16.4180   -2.7650   57.3200 C.3   198  ASP198      0.1424
     28  CG       -17.4960   -3.4960   56.5620 C.2   198  ASP198      0.3668
     29  OD1      -17.6900   -4.7060   56.8360 O.co2 198  ASP198     -0.2456
     30  OD2      -18.1620   -2.8520   55.7180 O.co2 198  ASP198     -0.2456
     31  N        -15.5400   -5.3540   58.2900 N.am  199  ILE199     -0.1980
     32  CA       -14.9170   -6.6280   58.6550 C.3   199  ILE199      0.1595
     33  C        -13.3940   -6.5930   58.7710 C.2   199  ILE199      0.2287
     34  O        -12.7890   -7.4950   59.3540 O.2   199  ILE199     -0.2864
     35  CB       -15.3470   -7.7610   57.6910 C.3   199  ILE199      0.0276
     36  CG1      -14.9980   -7.3950   56.2530 C.3   199  ILE199      0.0022
     37  CG2      -16.8430   -8.0360   57.8230 C.3   199  ILE199      0.0022
     38  CD1      -15.3490   -8.4720   55.2270 C.3   199  ILE199      0.0001
     39  N        -18.8030   -4.4310   63.2460 N.3   235  ILE235     -0.1245
     40  CA       -19.6390   -5.4610   62.6610 C.3   235  ILE235      0.1561
     41  C        -19.3220   -6.8320   63.2640 C.2   235  ILE235      0.2260
     42  O        -18.1800   -7.1160   63.6380 O.2   235  ILE235     -0.2867
     43  CB       -19.4170   -5.5330   61.1390 C.3   235  ILE235      0.0252
     44  CG1      -20.4820   -6.4080   60.4740 C.3   235  ILE235      0.0019
     45  CG2      -18.0370   -6.0900   60.8400 C.3   235  ILE235      0.0019
     46  CD1      -20.4430   -6.3320   58.9330 C.3   235  ILE235      0.0001
     47  N        -16.3370  -14.7070   54.5850 N.3   272  TRP272     -0.1241
     48  CA       -15.1140  -13.8990   54.5330 C.3   272  TRP272      0.1605
     49  C        -13.8690  -14.6090   55.0890 C.2   272  TRP272      0.2264
     50  O        -12.7900  -14.4990   54.5170 O.2   272  TRP272     -0.2867
     51  CB       -15.3030  -12.5260   55.2090 C.3   272  TRP272      0.0550
     52  CG       -16.4820  -11.7220   54.6940 C.ar  272  TRP272      0.0003
     53  CD1      -17.6000  -11.3630   55.3990 C.ar  272  TRP272      0.0946
     54  CD2      -16.6580  -11.1890   53.3740 C.ar  272  TRP272      0.0152
     55  NE1      -18.4540  -10.6400   54.6050 N.ar  272  TRP272     -0.2442
     56  CE2      -17.9020  -10.5190   53.3570 C.ar  272  TRP272      0.0810
     57  CE3      -15.8830  -11.2010   52.2140 C.ar  272  TRP272      0.0012
     58  CZ2      -18.3930   -9.8820   52.2210 C.ar  272  TRP272      0.0191
     59  CZ3      -16.3750  -10.5680   51.0790 C.ar  272  TRP272      0.0001
     60  CH2      -17.6170   -9.9160   51.0930 C.ar  272  TRP272      0.0015
     61  N        -23.3940   -3.9160   64.5930 N.3   306  TRP306     -0.1241
     62  CA       -24.2340   -4.3290   63.4730 C.3   306  TRP306      0.1605
     63  C        -23.8720   -5.7440   63.0160 C.2   306  TRP306      0.2264
     64  O        -22.7130   -6.1550   63.0980 O.2   306  TRP306     -0.2867
     65  CB       -24.2250   -3.3000   62.3230 C.3   306  TRP306      0.0550
     66  CG       -22.8770   -2.9280   61.7190 C.ar  306  TRP306      0.0003
     67  CD1      -21.7660   -2.4660   62.3770 C.ar  306  TRP306      0.0946
     68  CD2      -22.5370   -2.9170   60.3090 C.ar  306  TRP306      0.0152
     69  NE1      -20.7480   -2.1960   61.4690 N.ar  306  TRP306     -0.2442
     70  CE2      -21.1990   -2.4670   60.1990 C.ar  306  TRP306      0.0810
     71  CE3      -23.2260   -3.2700   59.1410 C.ar  306  TRP306      0.0012
     72  CZ2      -20.5430   -2.3590   58.9660 C.ar  306  TRP306      0.0191
     73  CZ3      -22.5680   -3.1670   57.9160 C.ar  306  TRP306      0.0001
     74  CH2      -21.2430   -2.7110   57.8430 C.ar  306  TRP306      0.0015
     75  N        -24.0840   -8.5910   59.9170 N.3   308  ALA308     -0.1231
     76  CA       -24.3040   -8.8810   58.4990 C.3   308  ALA308      0.1694
     77  C        -24.2310  -10.3950   58.2050 C.2   308  ALA308      0.2591
     78  O        -23.9490  -11.2080   59.0990 O.2   308  ALA308     -0.2718
     79  CB       -23.3070   -8.1200   57.6530 C.3   308  ALA308      0.0304
     80  N        -24.5040  -10.7630   56.9530 N.am  309  MET309     -0.1979
     81  CA       -24.3910  -12.1420   56.4890 C.3   309  MET309      0.1605
     82  C        -25.2720  -13.1240   57.2750 C.2   309  MET309      0.2287
     83  O        -24.9930  -14.3250   57.2900 O.2   309  MET309     -0.2864
     84  CB       -22.9310  -12.6040   56.5670 C.3   309  MET309      0.0413
     85  CG       -21.9110  -11.5700   56.1390 C.3   309  MET309      0.0598
     86  SD       -22.2190  -10.8850   54.4940 S.3   309  MET309     -0.1393
     87  CE       -21.4940  -12.1730   53.4370 C.3   309  MET309      0.0692
     88  N        -29.0210   -7.2590   59.0910 N.3   405  ARG405     -0.1245
     89  CA       -29.4020   -7.2590   57.6820 C.3   405  ARG405      0.1563
     90  C        -30.6740   -8.0780   57.5020 C.2   405  ARG405      0.2260
     91  O        -31.7200   -7.5410   57.1530 O.2   405  ARG405     -0.2867
     92  CB       -28.2660   -7.8000   56.8090 C.3   405  ARG405      0.0307
     93  CG       -28.4310   -7.5040   55.3250 C.3   405  ARG405      0.0489
     94  CD       -27.1330   -7.7560   54.5880 C.3   405  ARG405      0.2205
     95  NE       -26.8390   -9.1830   54.4350 N.pl3 405  ARG405     -0.0865
     96  CZ       -25.7910   -9.6470   53.7630 C.cat 405  ARG405      0.5346
     97  NH1      -25.5920  -10.9590   53.6540 N.pl3 405  ARG405      0.1354
     98  NH2      -24.9460   -8.7870   53.1900 N.pl3 405  ARG405      0.1354
     99  N        -31.0140   -2.4050   58.5700 N.3   418  TRP418     -0.1241
    100  CA       -30.7120   -1.4840   57.4840 C.3   418  TRP418      0.1605
    101  C        -31.0700   -2.2190   56.2070 C.2   418  TRP418      0.2264
    102  O        -31.1730   -3.4410   56.2170 O.2   418  TRP418     -0.2867
    103  CB       -29.2670   -0.9950   57.5230 C.3   418  TRP418      0.0550
    104  CG       -28.2660   -1.7810   56.7300 C.ar  418  TRP418      0.0003
    105  CD1      -27.8040   -1.4920   55.4720 C.ar  418  TRP418      0.0946
    106  CD2      -27.5480   -2.9410   57.1650 C.ar  418  TRP418      0.0152
    107  NE1      -26.8590   -2.4100   55.0970 N.ar  418  TRP418     -0.2442
    108  CE2      -26.6810   -3.3100   56.1210 C.ar  418  TRP418      0.0810
    109  CE3      -27.5480   -3.6990   58.3420 C.ar  418  TRP418      0.0012
    110  CZ2      -25.8350   -4.4160   56.2100 C.ar  418  TRP418      0.0191
    111  CZ3      -26.7090   -4.7940   58.4280 C.ar  418  TRP418      0.0001
    112  CH2      -25.8680   -5.1440   57.3660 C.ar  418  TRP418      0.0015
    113  N        -27.5470   -4.1240   50.8550 N.3   421  ASP421     -0.1239
    114  CA       -26.6180   -3.6580   49.8440 C.3   421  ASP421      0.1674
    115  C        -27.3900   -3.0620   48.6740 C.2   421  ASP421      0.2266
    116  O        -27.6190   -3.7280   47.6600 O.2   421  ASP421     -0.2867
    117  CB       -25.7220   -4.8100   49.3670 C.3   421  ASP421      0.1410
    118  CG       -24.9340   -5.4550   50.5050 C.2   421  ASP421      0.3668
    119  OD1      -24.3980   -6.5720   50.3020 O.co2 421  ASP421     -0.2456
    120  OD2      -24.8530   -4.8470   51.5980 O.co2 421  ASP421     -0.2456
    121  N        -24.7630    1.7890   48.4550 N.3   454  PHE454     -0.1241
    122  CA       -23.6690    0.9030   48.8400 C.3   454  PHE454      0.1605
    123  C        -22.8210    0.5320   47.6260 C.2   454  PHE454      0.2264
    124  O        -21.6290    0.8620   47.5550 O.2   454  PHE454     -0.2867
    125  CB       -24.2300   -0.3540   49.5120 C.3   454  PHE454      0.0534
    126  CG       -23.1840   -1.3930   49.8460 C.ar  454  PHE454     -0.0203
    127  CD1      -23.1140   -2.5860   49.1300 C.ar  454  PHE454     -0.0042
    128  CD2      -22.2670   -1.1740   50.8680 C.ar  454  PHE454     -0.0042
    129  CE1      -22.1540   -3.5480   49.4310 C.ar  454  PHE454     -0.0003
    130  CE2      -21.3000   -2.1250   51.1770 C.ar  454  PHE454     -0.0003
    131  CZ       -21.2440   -3.3240   50.4560 C.ar  454  PHE454     -0.0000
    132  N        -22.6380    4.6550   53.8600 N.3   479  HIS479     -0.1241
    133  CA       -21.8100    3.4610   53.7840 C.3   479  HIS479      0.1621
    134  C        -21.6000    3.0440   52.3190 C.2   479  HIS479      0.2264
    135  O        -22.4780    3.2430   51.4760 O.2   479  HIS479     -0.2867
    136  CB       -22.4600    2.3330   54.6050 C.3   479  HIS479      0.0745
    137  CG       -21.6350    1.0870   54.6820 C.ar  479  HIS479      0.0817
    138  ND1      -20.3460    1.0780   55.1710 N.ar  479  HIS479     -0.2268
    139  CD2      -21.9200   -0.1930   54.3430 C.ar  479  HIS479      0.1154
    140  CE1      -19.8640   -0.1510   55.1100 C.ar  479  HIS479      0.1986
    141  NE2      -20.8030   -0.9430   54.6210 N.ar  479  HIS479     -0.2212
@<TRIPOS>BOND
     1   124   123    2
     2   123   122    1
     3   116   115    2
     4     4     3    2
     5   121   122    1
     6   115   114    1
     7     3     2    1
     8   122   125    1
     9   127   129   ar
    10   127   126   ar
    11   117   114    1
    12   117   118    1
    13   129   131   ar
    14   125   126    1
    15    21    22   ar
    16    21    19   ar
    17   114   113    1
    18   126   128   ar
    19    22    20   ar
    20     2     1    1
    21     2     5    1
    22   119   118   ar
    23     8     6   ar
    24   131   130   ar
    25   118   120   ar
    26     6     7   ar
    27     6     5    1
    28    19    16   ar
    29    20    18   ar
    30   128   130   ar
    31    59    60   ar
    32    59    57   ar
    33    60    58   ar
    34   135   134    2
    35    16    18   ar
    36    16    14   ar
    37    18    17   ar
    38    12    11    2
    39    57    54   ar
    40    58    56   ar
    41   134   133    1
    42    14    13    1
    43    14    15   ar
    44    17    15   ar
    45    13    10    1
    46    11    10    1
    47    98    96    1
    48    56    54   ar
    49    56    55   ar
    50    54    52   ar
    51    87    86    1
    52    97    96    1
    53    10     9    1
    54    96    95    2
    55   133   132    1
    56   133   136    1
    57   139   141   ar
    58   139   137   ar
    59    95    94    1
    60    86    85    1
    61    50    49    2
    62    48    47    1
    63    48    49    1
    64    48    51    1
    65    94    93    1
    66    55    53   ar
    67   136   137    1
    68   141   140   ar
    69   137   138   ar
    70    52    51    1
    71    52    53   ar
    72   107   105   ar
    73   107   108   ar
    74   140   138   ar
    75    38    36    1
    76    93    92    1
    77   105   104   ar
    78    30    28   ar
    79   108   110   ar
    80   108   106   ar
    81    85    84    1
    82   101   102    2
    83   101   100    1
    84   110   112   ar
    85    36    35    1
    86    81    84    1
    87    81    80    1
    88    81    82    1
    89    28    29   ar
    90    28    27    1
    91   104   106   ar
    92   104   103    1
    93    92    89    1
    94    80    77   am
    95    91    90    2
    96   106   109   ar
    97    82    83    2
    98    27    24    1
    99   112   111   ar
   100   100   103    1
   101   100    99    1
   102    90    89    1
   103    79    76    1
   104    89    88    1
   105    35    37    1
   106    35    32    1
   107    74    73   ar
   108    74    72   ar
   109    73    71   ar
   110    77    76    1
   111    77    78    2
   112    31    32    1
   113    31    25   am
   114   109   111   ar
   115    76    75    1
   116    32    33    1
   117    33    34    2
   118    24    25    1
   119    24    23    1
   120    46    44    1
   121    72    70   ar
   122    25    26    2
   123    71    68   ar
   124    70    68   ar
   125    70    69   ar
   126    68    66   ar
   127    44    43    1
   128    45    43    1
   129    43    40    1
   130    69    67   ar
   131    66    65    1
   132    66    67   ar
   133    65    62    1
   134    40    39    1
   135    40    41    1
   136    63    64    2
   137    63    62    1
   138    41    42    2
   139    62    61    1
