@<TRIPOS>MOLECULE
tmp/3poqA05.pdb
 74 71 0 0 0
SMALL
GASTEIGER

@<TRIPOS>ATOM
      1  N         -6.4530   34.3500  -10.1570 N.3   225  ILE225     -0.1245
      2  CA        -5.8120   34.3760  -11.4620 C.3   225  ILE225      0.1561
      3  C         -6.2400   33.1940  -12.3110 C.2   225  ILE225      0.2260
      4  O         -6.4950   32.1110  -11.7850 O.2   225  ILE225     -0.2867
      5  CB        -4.2700   34.3970  -11.3290 C.3   225  ILE225      0.0252
      6  CG1       -3.8310   35.6100  -10.5010 C.3   225  ILE225      0.0019
      7  CG2       -3.6130   34.4470  -12.6980 C.3   225  ILE225      0.0019
      8  CD1       -2.3850   35.5680  -10.0300 C.3   225  ILE225      0.0001
      9  N         -4.7690   31.5800  -16.0550 N.3   227  LEU227     -0.1245
     10  CA        -3.9540   31.5890  -17.2600 C.3   227  LEU227      0.1561
     11  C         -4.0010   30.2100  -17.8930 C.2   227  LEU227      0.2260
     12  O         -3.8680   29.2100  -17.1880 O.2   227  LEU227     -0.2867
     13  CB        -2.4940   31.9130  -16.9080 C.3   227  LEU227      0.0270
     14  CG        -2.2380   33.1820  -16.0860 C.3   227  LEU227      0.0019
     15  CD1       -0.7420   33.3540  -15.8190 C.3   227  LEU227      0.0001
     16  CD2       -2.7830   34.4340  -16.7900 C.3   227  LEU227      0.0001
     17  N         -5.8970   34.9060  -20.5950 N.3   261  ALA261     -0.1231
     18  CA        -5.5240   35.4190  -19.2900 C.3   261  ALA261      0.1694
     19  C         -6.6880   36.2140  -18.7210 C.2   261  ALA261      0.2592
     20  O         -7.3040   37.0210  -19.4180 O.2   261  ALA261     -0.2718
     21  CB        -4.2740   36.2930  -19.3840 C.3   261  ALA261      0.0304
     22  N         -6.9800   35.9890  -17.4480 N.am  262  GLN262     -0.1966
     23  CA        -8.0880   36.6560  -16.7870 C.3   262  GLN262      0.1733
     24  C         -7.7420   36.8620  -15.3230 C.2   262  GLN262      0.2616
     25  O         -6.8960   36.1650  -14.7660 O.2   262  GLN262     -0.2715
     26  CB        -9.3440   35.8010  -16.9000 C.3   262  GLN262      0.0408
     27  CG        -9.7660   35.4920  -18.3310 C.3   262  GLN262      0.0908
     28  CD       -10.9690   34.5350  -18.3770 C.2   262  GLN262      0.2608
     29  OE1      -11.1940   33.7690  -17.4400 O.2   262  GLN262     -0.2717
     30  NE2      -11.7140   34.5530  -19.4790 N.am  262  GLN262     -0.0878
     31  N         -8.3850   37.8340  -14.7000 N.am  263  TYR263     -0.1974
     32  CA        -8.2440   38.0130  -13.2650 C.3   263  TYR263      0.1639
     33  C         -9.5920   38.3130  -12.6570 C.2   263  TYR263      0.2290
     34  O        -10.3400   39.1090  -13.1900 O.2   263  TYR263     -0.2864
     35  CB        -7.2770   39.1440  -12.9480 C.3   263  TYR263      0.0560
     36  CG        -6.9610   39.2630  -11.4790 C.ar  263  TYR263     -0.0198
     37  CD1       -5.9050   38.5470  -10.9230 C.ar  263  TYR263     -0.0009
     38  CD2       -7.7170   40.0820  -10.6450 C.ar  263  TYR263     -0.0009
     39  CE1       -5.6050   38.6450   -9.5790 C.ar  263  TYR263      0.0417
     40  CE2       -7.4190   40.1900   -9.2930 C.ar  263  TYR263      0.0417
     41  CZ        -6.3570   39.4710   -8.7690 C.ar  263  TYR263      0.1957
     42  OH        -6.0490   39.5580   -7.4300 O.3   263  TYR263     -0.2866
     43  N        -11.8190   40.9130  -15.8000 N.3   271  PRO271     -0.2102
     44  CA       -11.2370   41.3530  -17.0700 C.3   271  PRO271      0.1504
     45  C        -10.6760   40.1680  -17.8290 C.2   271  PRO271      0.2576
     46  O        -10.2280   39.2100  -17.1990 O.2   271  PRO271     -0.2718
     47  CB       -10.0790   42.2400  -16.6280 C.3   271  PRO271      0.0282
     48  CG       -10.3610   42.5600  -15.1800 C.3   271  PRO271      0.0208
     49  CD       -11.0450   41.3890  -14.6410 C.3   271  PRO271      0.0893
     50  N        -10.7030   40.2220  -19.1550 N.am  272  SER272     -0.1938
     51  CA       -10.2160   39.1060  -19.9480 C.3   272  SER272      0.2055
     52  C         -9.4220   39.5430  -21.1710 C.2   272  SER272      0.2642
     53  O         -9.7930   40.4780  -21.8830 O.2   272  SER272     -0.2714
     54  CB       -11.3570   38.1840  -20.3670 C.3   272  SER272      0.2130
     55  OG       -10.8340   37.0810  -21.0780 O.3   272  SER272     -0.2179
     56  N         -8.3120   38.8560  -21.3930 N.am  273  ILE273     -0.1977
     57  CA        -7.5250   39.0370  -22.5980 C.3   273  ILE273      0.1596
     58  C         -7.2570   37.6680  -23.2190 C.2   273  ILE273      0.2287
     59  O         -7.0410   36.7010  -22.4990 O.2   273  ILE273     -0.2864
     60  CB        -6.1990   39.7760  -22.2920 C.3   273  ILE273      0.0276
     61  CG1       -5.5300   40.2460  -23.5780 C.3   273  ILE273      0.0022
     62  CG2       -5.2690   38.9390  -21.4750 C.3   273  ILE273      0.0022
     63  CD1       -6.1650   41.4890  -24.1450 C.3   273  ILE273      0.0001
     64  N        -10.4050   41.3660  -26.0760 N.3   297  VAL297     -0.1231
     65  CA       -10.4750   42.0630  -24.8070 C.3   297  VAL297      0.1692
     66  C        -11.9120   42.1030  -24.3640 C.2   297  VAL297      0.2592
     67  O        -12.8140   42.2630  -25.1780 O.2   297  VAL297     -0.2718
     68  CB        -9.9350   43.5010  -24.8870 C.3   297  VAL297      0.0266
     69  CG1       -8.4790   43.4970  -25.2880 C.3   297  VAL297      0.0020
     70  CG2      -10.7200   44.3110  -25.8670 C.3   297  VAL297      0.0020
     71  N        -12.1330   41.9610  -23.0670 N.am  298  GLY298     -0.1957
     72  CA       -13.4870   41.9540  -22.5530 C.3   298  GLY298      0.1869
     73  C        -13.4980   41.8580  -21.0410 C.2   298  GLY298      0.2309
     74  O        -12.4580   41.8500  -20.3840 O.2   298  GLY298     -0.2863
@<TRIPOS>BOND
     1    64    65    1
     2    70    68    1
     3    69    68    1
     4    67    66    2
     5    68    65    1
     6    65    66    1
     7    66    71   am
     8    63    61    1
     9    61    60    1
    10    58    57    1
    11    58    59    2
    12    71    72    1
    13    57    60    1
    14    57    56    1
    15    72    73    1
    16    60    62    1
    17    53    52    2
    18    56    52   am
    19    52    51    1
    20    55    54    1
    21    73    74    2
    22    17    18    1
    23    54    51    1
    24    51    50    1
    25    30    28   am
    26    20    19    2
    27    21    18    1
    28    18    19    1
    29    50    45   am
    30    19    22   am
    31    28    27    1
    32    28    29    2
    33    27    26    1
    34    11    10    1
    35    11    12    2
    36    45    46    2
    37    45    44    1
    38    22    23    1
    39    10    13    1
    40    10     9    1
    41    44    47    1
    42    44    43    1
    43    13    14    1
    44    26    23    1
    45    16    14    1
    46    23    24    1
    47    47    48    1
    48    14    15    1
    49    43    49    1
    50    24    25    2
    51    24    31   am
    52    48    49    1
    53    31    32    1
    54    32    35    1
    55    32    33    1
    56    34    33    2
    57    35    36    1
    58     7     5    1
    59     3     4    2
    60     3     2    1
    61    36    37   ar
    62    36    38   ar
    63     2     5    1
    64     2     1    1
    65     5     6    1
    66    37    39   ar
    67    38    40   ar
    68     6     8    1
    69    39    41   ar
    70    40    41   ar
    71    41    42    1
