@<TRIPOS>MOLECULE
tmp/3poqA10.pdb
 86 84 0 0 0
SMALL
GASTEIGER

@<TRIPOS>ATOM
      1  N         -4.2280   13.0260  -10.8900 N.3   151  LEU151     -0.1245
      2  CA        -4.0540   12.3860  -12.1850 C.3   151  LEU151      0.1561
      3  C         -5.3730   11.7660  -12.6450 C.2   151  LEU151      0.2260
      4  O         -5.9330   10.9270  -11.9660 O.2   151  LEU151     -0.2867
      5  CB        -2.9660   11.3130  -12.1130 C.3   151  LEU151      0.0270
      6  CG        -2.6290   10.6370  -13.4440 C.3   151  LEU151      0.0019
      7  CD1       -2.1430   11.6500  -14.4550 C.3   151  LEU151      0.0001
      8  CD2       -1.5780    9.5450  -13.2480 C.3   151  LEU151      0.0001
      9  N         -5.5090   12.4590  -20.9090 N.3   178  ILE178     -0.1231
     10  CA        -4.8700   12.3390  -19.6130 C.3   178  ILE178      0.1692
     11  C         -4.5400   13.7290  -19.0830 C.2   178  ILE178      0.2593
     12  O         -4.1430   14.5830  -19.8400 O.2   178  ILE178     -0.2718
     13  CB        -3.5790   11.5040  -19.7050 C.3   178  ILE178      0.0266
     14  CG1       -3.8790   10.1140  -20.2900 C.3   178  ILE178      0.0019
     15  CG2       -2.9410   11.3780  -18.3200 C.3   178  ILE178      0.0020
     16  CD1       -2.6090    9.2760  -20.5440 C.3   178  ILE178      0.0001
     17  N         -4.7190   13.9440  -17.7860 N.am  179  SER179     -0.1938
     18  CA        -4.5200   15.2460  -17.1800 C.3   179  SER179      0.2055
     19  C         -3.9740   15.0740  -15.7770 C.2   179  SER179      0.2643
     20  O         -4.2670   14.0960  -15.0940 O.2   179  SER179     -0.2714
     21  CB        -5.8240   16.0520  -17.1450 C.3   179  SER179      0.2130
     22  OG        -6.8770   15.3680  -16.4830 O.3   179  SER179     -0.2179
     23  N         -3.1620   16.0340  -15.3620 N.am  180  TYR180     -0.1973
     24  CA        -2.6440   16.0710  -14.0010 C.3   180  TYR180      0.1639
     25  C         -2.7450   17.4850  -13.4470 C.2   180  TYR180      0.2290
     26  O         -2.2800   18.4350  -14.0780 O.2   180  TYR180     -0.2864
     27  CB        -1.1910   15.5830  -13.9400 C.3   180  TYR180      0.0560
     28  CG        -0.6250   15.6440  -12.5460 C.ar  180  TYR180     -0.0198
     29  CD1       -1.1940   14.9080  -11.5270 C.ar  180  TYR180     -0.0009
     30  CD2        0.4720   16.4320  -12.2470 C.ar  180  TYR180     -0.0009
     31  CE1       -0.7000   14.9580  -10.2430 C.ar  180  TYR180      0.0417
     32  CE2        0.9770   16.4900  -10.9630 C.ar  180  TYR180      0.0417
     33  CZ         0.3850   15.7460   -9.9640 C.ar  180  TYR180      0.1957
     34  OH         0.8680   15.7860   -8.6780 O.3   180  TYR180     -0.2866
     35  N         -2.1070   20.3520  -16.4180 N.3   187  ILE187     -0.1231
     36  CA        -1.5980   19.9420  -17.7260 C.3   187  ILE187      0.1692
     37  C         -2.4440   18.8020  -18.3050 C.2   187  ILE187      0.2592
     38  O         -2.9200   17.9550  -17.5670 O.2   187  ILE187     -0.2718
     39  CB        -0.1180   19.5290  -17.6470 C.3   187  ILE187      0.0266
     40  CG1        0.3690   19.0770  -19.0210 C.3   187  ILE187      0.0019
     41  CG2        0.0780   18.4690  -16.5790 C.3   187  ILE187      0.0020
     42  CD1        1.8870   18.8510  -19.0870 C.3   187  ILE187      0.0001
     43  N         -2.6410   18.7930  -19.6180 N.am  188  VAL188     -0.1966
     44  CA        -3.5790   17.8670  -20.2180 C.3   188  VAL188      0.1727
     45  C         -3.1950   17.5720  -21.6550 C.2   188  VAL188      0.2616
     46  O         -2.7040   18.4360  -22.3760 O.2   188  VAL188     -0.2715
     47  CB        -5.0330   18.4270  -20.1620 C.3   188  VAL188      0.0290
     48  CG1       -5.1390   19.7320  -20.9170 C.3   188  VAL188      0.0023
     49  CG2       -6.0210   17.4190  -20.7070 C.3   188  VAL188      0.0023
     50  N         -3.3730   16.3190  -22.0420 N.am  189  GLY189     -0.1955
     51  CA        -3.2230   15.9180  -23.4250 C.3   189  GLY189      0.1869
     52  C         -4.4120   15.0880  -23.8170 C.2   189  GLY189      0.2309
     53  O         -4.9350   14.3960  -22.9760 O.2   189  GLY189     -0.2863
     54  N         -5.9860   16.2560  -31.9450 N.3   214  TRP214     -0.1241
     55  CA        -5.2840   16.2390  -30.6700 C.3   214  TRP214      0.1605
     56  C         -4.9300   17.6400  -30.1730 C.2   214  TRP214      0.2264
     57  O         -4.9460   18.6260  -30.9190 O.2   214  TRP214     -0.2867
     58  CB        -4.0300   15.3600  -30.7350 C.3   214  TRP214      0.0550
     59  CG        -2.9360   15.8860  -31.6140 C.ar  214  TRP214      0.0003
     60  CD1       -2.7490   15.6280  -32.9380 C.ar  214  TRP214      0.0946
     61  CD2       -1.8470   16.7620  -31.1960 C.ar  214  TRP214      0.0152
     62  NE1       -1.6230   16.2960  -33.3770 N.ar  214  TRP214     -0.2442
     63  CE2       -1.0870   16.9650  -32.3780 C.ar  214  TRP214      0.0810
     64  CE3       -1.5100   17.3680  -30.0050 C.ar  214  TRP214      0.0012
     65  CZ2        0.0670   17.8040  -32.3050 C.ar  214  TRP214      0.0191
     66  CZ3       -0.3600   18.1890  -29.9740 C.ar  214  TRP214      0.0001
     67  CH2        0.4020   18.3920  -31.1230 C.ar  214  TRP214      0.0015
     68  N         -3.1120   19.7660  -26.4570 N.3   216  THR216     -0.1218
     69  CA        -2.5120   19.7710  -25.1420 C.3   216  THR216      0.1862
     70  C         -2.7740   21.1140  -24.5010 C.2   216  THR216      0.2287
     71  O         -3.0000   22.1140  -25.2000 O.2   216  THR216     -0.2866
     72  CB        -0.9950   19.5260  -25.2220 C.3   216  THR216      0.1770
     73  OG1       -0.3820   20.5220  -26.0580 O.3   216  THR216     -0.2211
     74  CG2       -0.7100   18.1310  -25.7890 C.3   216  THR216      0.0375
     75  N         -2.5910   23.9840  -27.4450 N.3   231  TYR231     -0.1241
     76  CA        -2.0590   23.7960  -28.7710 C.3   231  TYR231      0.1605
     77  C         -2.6600   22.5150  -29.3320 C.2   231  TYR231      0.2264
     78  O         -2.9120   21.5650  -28.5970 O.2   231  TYR231     -0.2867
     79  CB        -0.5310   23.6990  -28.7350 C.3   231  TYR231      0.0534
     80  CG         0.0540   23.4370  -30.1090 C.ar  231  TYR231     -0.0201
     81  CD1        0.2390   24.4740  -31.0200 C.ar  231  TYR231     -0.0009
     82  CD2        0.3820   22.1530  -30.5080 C.ar  231  TYR231     -0.0009
     83  CE1        0.7530   24.2490  -32.2890 C.ar  231  TYR231      0.0417
     84  CE2        0.9030   21.9130  -31.7670 C.ar  231  TYR231      0.0417
     85  CZ         1.0870   22.9650  -32.6540 C.ar  231  TYR231      0.1957
     86  OH         1.5860   22.7230  -33.9100 O.3   231  TYR231     -0.2866
@<TRIPOS>BOND
     1    86    85    1
     2    62    60   ar
     3    62    63   ar
     4    60    59   ar
     5    85    83   ar
     6    85    84   ar
     7    63    65   ar
     8    63    61   ar
     9    65    67   ar
    10    83    81   ar
    11    54    55    1
    12    84    82   ar
    13    59    61   ar
    14    59    58    1
    15    61    64   ar
    16    67    66   ar
    17    81    80   ar
    18    57    56    2
    19    58    55    1
    20    55    56    1
    21    82    80   ar
    22    80    79    1
    23    64    66   ar
    24    77    76    1
    25    77    78    2
    26    76    79    1
    27    76    75    1
    28    68    69    1
    29    73    72    1
    30    74    72    1
    31    72    69    1
    32    71    70    2
    33    69    70    1
    34    52    51    1
    35    52    53    2
    36    51    50    1
    37    46    45    2
    38    50    45   am
    39    45    44    1
    40    48    47    1
    41     9    10    1
    42    49    47    1
    43    16    14    1
    44    14    13    1
    45    44    47    1
    46    44    43    1
    47    12    11    2
    48    13    10    1
    49    13    15    1
    50    43    37   am
    51    10    11    1
    52    42    40    1
    53    11    17   am
    54    40    39    1
    55    37    36    1
    56    37    38    2
    57    17    18    1
    58    36    39    1
    59    36    35    1
    60    39    41    1
    61    18    21    1
    62    18    19    1
    63    21    22    1
    64    19    23   am
    65    19    20    2
    66    23    24    1
    67     7     6    1
    68    26    25    2
    69    24    27    1
    70    24    25    1
    71    27    28    1
    72     6     8    1
    73     6     5    1
    74     3     2    1
    75     3     4    2
    76    28    30   ar
    77    28    29   ar
    78    30    32   ar
    79     2     5    1
    80     2     1    1
    81    29    31   ar
    82    32    33   ar
    83    31    33   ar
    84    33    34    1
