@<TRIPOS>MOLECULE
tmp/3poqA03.pdb
 78 76 0 0 0
SMALL
GASTEIGER

@<TRIPOS>ATOM
      1  N         -1.8080   24.3000  -10.7100 N.3   185  PHE185     -0.1241
      2  CA        -1.3070   23.9730  -12.0390 C.3   185  PHE185      0.1605
      3  C         -2.1260   22.8630  -12.6820 C.2   185  PHE185      0.2264
      4  O         -2.6280   21.9810  -11.9910 O.2   185  PHE185     -0.2867
      5  CB         0.1650   23.5890  -11.9840 C.3   185  PHE185      0.0534
      6  CG         1.0700   24.7190  -11.5850 C.ar  185  PHE185     -0.0203
      7  CD1        1.6560   25.5220  -12.5500 C.ar  185  PHE185     -0.0042
      8  CD2        1.3440   24.9750  -10.2480 C.ar  185  PHE185     -0.0042
      9  CE1        2.5030   26.5610  -12.1920 C.ar  185  PHE185     -0.0003
     10  CE2        2.1830   26.0110   -9.8840 C.ar  185  PHE185     -0.0003
     11  CZ         2.7670   26.8050  -10.8590 C.ar  185  PHE185     -0.0000
     12  N         -2.0020   23.7660  -20.8560 N.3   218  LEU218     -0.1231
     13  CA        -1.3600   24.1320  -19.6010 C.3   218  LEU218      0.1693
     14  C         -2.1570   25.2640  -19.0030 C.2   218  LEU218      0.2592
     15  O         -2.5860   26.1630  -19.7220 O.2   218  LEU218     -0.2718
     16  CB         0.0610   24.6140  -19.8430 C.3   218  LEU218      0.0284
     17  CG         1.0870   23.5340  -20.1860 C.3   218  LEU218      0.0019
     18  CD1        2.4600   24.1540  -20.3530 C.3   218  LEU218      0.0001
     19  CD2        1.1050   22.4510  -19.1210 C.3   218  LEU218      0.0001
     20  N         -2.3370   25.2480  -17.6890 N.am  219  LYS219     -0.1966
     21  CA        -3.1250   26.2960  -17.0480 C.3   219  LYS219      0.1728
     22  C         -2.6450   26.5620  -15.6350 C.2   219  LYS219      0.2616
     23  O         -2.0260   25.7050  -15.0160 O.2   219  LYS219     -0.2715
     24  CB        -4.6090   25.9110  -17.0150 C.3   219  LYS219      0.0311
     25  CG        -4.9600   24.8820  -15.9500 C.3   219  LYS219      0.0038
     26  CD        -6.4100   24.4120  -16.0810 C.3   219  LYS219      0.0206
     27  CE        -6.8220   23.6200  -14.8650 C.3   219  LYS219      0.1093
     28  NZ        -8.2310   23.1250  -14.9530 N.3   219  LYS219     -0.1314
     29  N         -2.9070   27.7700  -15.1510 N.am  220  TYR220     -0.1974
     30  CA        -2.7020   28.1020  -13.7550 C.3   220  TYR220      0.1639
     31  C         -3.9680   28.7420  -13.2190 C.2   220  TYR220      0.2290
     32  O         -4.3830   29.7960  -13.7000 O.2   220  TYR220     -0.2864
     33  CB        -1.5330   29.0730  -13.5920 C.3   220  TYR220      0.0560
     34  CG        -1.3520   29.5260  -12.1630 C.ar  220  TYR220     -0.0198
     35  CD1       -0.8560   28.6650  -11.1930 C.ar  220  TYR220     -0.0009
     36  CD2       -1.6820   30.8140  -11.7840 C.ar  220  TYR220     -0.0009
     37  CE1       -0.7070   29.0830   -9.8800 C.ar  220  TYR220      0.0417
     38  CE2       -1.5390   31.2320  -10.4850 C.ar  220  TYR220      0.0417
     39  CZ        -1.0480   30.3690   -9.5380 C.ar  220  TYR220      0.1957
     40  OH        -0.8980   30.7990   -8.2390 O.3   220  TYR220     -0.2866
     41  N         -4.7690   31.5800  -16.0550 N.3   227  LEU227     -0.1231
     42  CA        -3.9540   31.5890  -17.2600 C.3   227  LEU227      0.1693
     43  C         -4.0010   30.2100  -17.8930 C.2   227  LEU227      0.2592
     44  O         -3.8680   29.2100  -17.1880 O.2   227  LEU227     -0.2718
     45  CB        -2.4940   31.9130  -16.9080 C.3   227  LEU227      0.0284
     46  CG        -2.2380   33.1820  -16.0860 C.3   227  LEU227      0.0019
     47  CD1       -0.7420   33.3540  -15.8190 C.3   227  LEU227      0.0001
     48  CD2       -2.7830   34.4340  -16.7900 C.3   227  LEU227      0.0001
     49  N         -4.1410   30.1460  -19.2150 N.am  228  ALA228     -0.1966
     50  CA        -4.2100   28.8540  -19.8840 C.3   228  ALA228      0.1728
     51  C         -3.8090   28.9660  -21.3420 C.2   228  ALA228      0.2616
     52  O         -4.0630   29.9700  -21.9860 O.2   228  ALA228     -0.2715
     53  CB        -5.6510   28.2510  -19.7530 C.3   228  ALA228      0.0334
     54  N         -3.1970   27.9080  -21.8520 N.am  229  ALA229     -0.1977
     55  CA        -2.7960   27.8230  -23.2410 C.3   229  ALA229      0.1597
     56  C         -3.2230   26.4790  -23.7930 C.2   229  ALA229      0.2287
     57  O         -3.2110   25.4600  -23.0790 O.2   229  ALA229     -0.2864
     58  CB        -1.2800   27.9350  -23.3500 C.3   229  ALA229      0.0319
     59  N         -4.6960   31.1170  -26.2880 N.3   259  LEU259     -0.1231
     60  CA        -4.1690   31.6500  -25.0400 C.3   259  LEU259      0.1693
     61  C         -5.2440   32.4710  -24.3620 C.2   259  LEU259      0.2592
     62  O         -6.0300   33.1120  -25.0370 O.2   259  LEU259     -0.2718
     63  CB        -2.9720   32.5550  -25.3250 C.3   259  LEU259      0.0284
     64  CG        -1.8850   31.9710  -26.2210 C.3   259  LEU259      0.0019
     65  CD1       -1.0350   33.0650  -26.8420 C.3   259  LEU259      0.0001
     66  CD2       -1.0370   30.9630  -25.4530 C.3   259  LEU259      0.0001
     67  N         -5.2930   32.4180  -23.0360 N.am  260  VAL260     -0.1966
     68  CA        -6.2240   33.2220  -22.2700 C.3   260  VAL260      0.1727
     69  C         -5.6040   33.6660  -20.9640 C.2   260  VAL260      0.2616
     70  O         -4.8470   32.9260  -20.3320 O.2   260  VAL260     -0.2715
     71  CB        -7.5680   32.4740  -21.9820 C.3   260  VAL260      0.0290
     72  CG1       -8.3270   33.1960  -20.9240 C.3   260  VAL260      0.0023
     73  CG2       -8.3590   32.3640  -23.2410 C.3   260  VAL260      0.0023
     74  N         -5.8970   34.9060  -20.5950 N.am  261  ALA261     -0.1977
     75  CA        -5.5240   35.4190  -19.2900 C.3   261  ALA261      0.1597
     76  C         -6.6880   36.2140  -18.7210 C.2   261  ALA261      0.2287
     77  O         -7.3040   37.0210  -19.4180 O.2   261  ALA261     -0.2864
     78  CB        -4.2740   36.2930  -19.3840 C.3   261  ALA261      0.0319
@<TRIPOS>BOND
     1    65    64    1
     2    59    60    1
     3    64    66    1
     4    64    63    1
     5    63    60    1
     6    60    61    1
     7    62    61    2
     8    61    67   am
     9    56    55    1
    10    56    57    2
    11    58    55    1
    12    73    71    1
    13    55    54    1
    14    67    68    1
    15    68    71    1
    16    68    69    1
    17    52    51    2
    18    71    72    1
    19    54    51   am
    20    51    50    1
    21    69    74   am
    22    69    70    2
    23    12    13    1
    24    74    75    1
    25    18    17    1
    26    17    16    1
    27    17    19    1
    28    50    53    1
    29    50    49    1
    30    16    13    1
    31    15    14    2
    32    13    14    1
    33    77    76    2
    34    78    75    1
    35    75    76    1
    36    49    43   am
    37    14    20   am
    38    43    42    1
    39    43    44    2
    40    20    21    1
    41    42    45    1
    42    42    41    1
    43    21    24    1
    44    21    22    1
    45    24    25    1
    46    45    46    1
    47    48    46    1
    48    46    47    1
    49    26    25    1
    50    26    27    1
    51    22    29   am
    52    22    23    2
    53    29    30    1
    54    28    27    1
    55    30    33    1
    56    30    31    1
    57    32    31    2
    58    33    34    1
    59     3     2    1
    60     3     4    2
    61     7     9   ar
    62     7     6   ar
    63     9    11   ar
    64    34    36   ar
    65    34    35   ar
    66     2     5    1
    67     2     1    1
    68     5     6    1
    69    36    38   ar
    70     6     8   ar
    71    35    37   ar
    72    11    10   ar
    73    38    39   ar
    74     8    10   ar
    75    37    39   ar
    76    39    40    1
