@<TRIPOS>MOLECULE
tmp/3porA00.pdb
 184 175 0 0 0
SMALL
GASTEIGER

@<TRIPOS>ATOM
      1  N         -7.4760  -24.3970   31.4510 N.3    96  ASP96      -0.1225
      2  CA        -7.8160  -24.3940   32.8740 C.3    96  ASP96       0.1805
      3  C         -7.4360  -25.5390   33.7510 C.2    96  ASP96       0.2598
      4  O         -6.9390  -25.3660   34.8660 O.2    96  ASP96      -0.2718
      5  CB        -9.2770  -24.2360   33.0420 C.3    96  ASP96       0.1424
      6  CG        -9.7130  -22.8600   32.5940 C.2    96  ASP96       0.3668
      7  OD1       -9.5720  -22.5620   31.3800 O.co2  96  ASP96      -0.2456
      8  OD2      -10.1810  -22.1200   33.4880 O.co2  96  ASP96      -0.2456
      9  N         -7.7220  -26.7010   33.1560 N.am   97  ARG97      -0.1966
     10  CA        -7.4220  -27.9490   33.7960 C.3    97  ARG97       0.1729
     11  C         -6.0110  -28.5030   33.4070 C.2    97  ARG97       0.2616
     12  O         -5.7150  -29.6830   33.6580 O.2    97  ARG97      -0.2715
     13  CB        -8.6230  -28.8300   33.4240 C.3    97  ARG97       0.0348
     14  CG       -10.0030  -28.3790   33.9600 C.3    97  ARG97       0.0492
     15  CD       -10.2410  -28.5160   35.4750 C.3    97  ARG97       0.2205
     16  NE       -11.4180  -27.7920   35.9600 N.pl3  97  ARG97      -0.0865
     17  CZ       -11.4760  -26.4590   36.2470 C.cat  97  ARG97       0.5346
     18  NH1      -10.3940  -25.6610   36.1380 N.pl3  97  ARG97       0.1354
     19  NH2      -12.6680  -25.8610   36.5280 N.pl3  97  ARG97       0.1354
     20  N         -5.0710  -27.7300   32.8050 N.am   98  GLY98      -0.1955
     21  CA        -3.7410  -28.2410   32.4180 C.3    98  GLY98       0.1869
     22  C         -3.2470  -27.8540   31.0150 C.2    98  GLY98       0.2309
     23  O         -2.0530  -27.6520   30.7390 O.2    98  GLY98      -0.2863
     24  N          4.7060  -29.6720   29.1470 N.3   103  PRO103     -0.2102
     25  CA         5.3350  -29.0170   30.2960 C.3   103  PRO103      0.1504
     26  C          6.8230  -28.7320   30.1770 C.2   103  PRO103      0.2576
     27  O          7.6830  -29.3270   30.8280 O.2   103  PRO103     -0.2718
     28  CB         4.9990  -29.9210   31.4200 C.3   103  PRO103      0.0282
     29  CG         4.9590  -31.2710   30.7730 C.3   103  PRO103      0.0208
     30  CD         4.1550  -30.9620   29.5530 C.3   103  PRO103      0.0893
     31  N          7.1810  -27.8320   29.2820 N.am  104  TYR104     -0.1963
     32  CA         8.5620  -27.4300   29.1080 C.3   104  TYR104      0.1771
     33  C          8.9550  -26.6700   30.3750 C.2   104  TYR104      0.2619
     34  O          8.1450  -25.8920   30.8920 O.2   104  TYR104     -0.2715
     35  CB         8.6670  -26.5290   27.8590 C.3   104  TYR104      0.0574
     36  CG         8.2920  -27.2420   26.5720 C.ar  104  TYR104     -0.0198
     37  CD1        9.1450  -28.2190   26.1570 C.ar  104  TYR104     -0.0009
     38  CD2        7.1630  -26.9600   25.8600 C.ar  104  TYR104     -0.0009
     39  CE1        8.8920  -28.9410   25.0310 C.ar  104  TYR104      0.0417
     40  CE2        6.9100  -27.6850   24.7180 C.ar  104  TYR104      0.0417
     41  CZ         7.7750  -28.6800   24.3060 C.ar  104  TYR104      0.1957
     42  OH         7.5690  -29.4970   23.1940 O.3   104  TYR104     -0.2866
     43  N         10.1610  -26.8850   30.9040 N.am  105  LEU105     -0.1977
     44  CA        10.6410  -26.2020   32.0640 C.3   105  LEU105      0.1596
     45  C         11.0870  -24.8320   31.7040 C.2   105  LEU105      0.2287
     46  O         10.7610  -23.9090   32.4440 O.2   105  LEU105     -0.2864
     47  CB        11.8220  -26.8880   32.6700 C.3   105  LEU105      0.0297
     48  CG        11.7090  -27.6930   33.9270 C.3   105  LEU105      0.0022
     49  CD1       10.5430  -28.6120   33.8100 C.3   105  LEU105      0.0001
     50  CD2       12.9710  -28.4960   34.1520 C.3   105  LEU105      0.0001
     51  N          8.9030  -21.0120   33.4250 N.3   111  LEU111     -0.1245
     52  CA         9.5320  -20.8330   34.7440 C.3   111  LEU111      0.1561
     53  C         10.6580  -19.8060   34.7190 C.2   111  LEU111      0.2260
     54  O         10.9020  -19.0770   35.6900 O.2   111  LEU111     -0.2867
     55  CB        10.0500  -22.1990   35.2650 C.3   111  LEU111      0.0270
     56  CG         9.0360  -23.2070   35.8030 C.3   111  LEU111      0.0019
     57  CD1        8.1980  -23.8070   34.7200 C.3   111  LEU111      0.0001
     58  CD2        9.7620  -24.4100   36.3400 C.3   111  LEU111      0.0001
     59  N         15.0680  -31.7410   33.1260 N.3   183  GLN183     -0.1245
     60  CA        14.1420  -32.5680   32.4270 C.3   183  GLN183      0.1566
     61  C         14.7910  -32.9550   31.1180 C.2   183  GLN183      0.2260
     62  O         15.5890  -32.2040   30.5550 O.2   183  GLN183     -0.2867
     63  CB        12.8800  -31.7900   32.2210 C.3   183  GLN183      0.0367
     64  CG        11.8280  -32.6050   31.5900 C.3   183  GLN183      0.0905
     65  CD        10.5070  -31.9060   31.6280 C.2   183  GLN183      0.2608
     66  OE1        9.7480  -32.1900   32.5050 O.2   183  GLN183     -0.2717
     67  NE2       10.0230  -31.0280   30.7870 N.am  183  GLN183     -0.0878
     68  N         12.3380  -32.4080   39.8220 N.3   206  LEU206     -0.1245
     69  CA        11.7170  -31.1450   40.1620 C.3   206  LEU206      0.1561
     70  C         12.0520  -30.7030   41.5900 C.2   206  LEU206      0.2260
     71  O         12.3480  -31.5520   42.4150 O.2   206  LEU206     -0.2867
     72  CB        10.1660  -31.2580   40.0500 C.3   206  LEU206      0.0270
     73  CG         9.4420  -31.4500   38.7240 C.3   206  LEU206      0.0019
     74  CD1        7.9620  -31.1680   38.8650 C.3   206  LEU206      0.0001
     75  CD2        9.9570  -30.4140   37.7160 C.3   206  LEU206      0.0001
     76  N          8.1330  -26.8290   44.5800 N.3   210  PHE210     -0.1241
     77  CA         7.5530  -26.4270   43.2810 C.3   210  PHE210      0.1605
     78  C          6.5560  -27.5040   42.8550 C.2   210  PHE210      0.2264
     79  O          5.4010  -27.2200   42.5340 O.2   210  PHE210     -0.2867
     80  CB         8.6490  -26.2960   42.2090 C.3   210  PHE210      0.0534
     81  CG         8.1430  -26.2990   40.7730 C.ar  210  PHE210     -0.0203
     82  CD1        7.3880  -25.2520   40.3000 C.ar  210  PHE210     -0.0042
     83  CD2        8.3800  -27.3880   39.9730 C.ar  210  PHE210     -0.0042
     84  CE1        6.8590  -25.3060   39.0330 C.ar  210  PHE210     -0.0003
     85  CE2        7.8480  -27.4250   38.7150 C.ar  210  PHE210     -0.0003
     86  CZ         7.0870  -26.3930   38.2390 C.ar  210  PHE210     -0.0000
     87  N          2.5130  -27.1190   42.1660 N.3   214  VAL214     -0.1231
     88  CA         1.8240  -27.4680   40.9120 C.3   214  VAL214      0.1692
     89  C          0.4310  -28.0310   41.1850 C.2   214  VAL214      0.2592
     90  O         -0.5630  -27.6770   40.5310 O.2   214  VAL214     -0.2718
     91  CB         2.7390  -28.5050   40.1250 C.3   214  VAL214      0.0266
     92  CG1        1.9590  -29.1870   39.0250 C.3   214  VAL214      0.0020
     93  CG2        3.9240  -27.7930   39.4890 C.3   214  VAL214      0.0020
     94  N          0.3810  -28.9430   42.1640 N.am  215  PHE215     -0.1962
     95  CA        -0.8510  -29.6160   42.5330 C.3   215  PHE215      0.1771
     96  C         -1.5660  -28.9010   43.6320 C.2   215  PHE215      0.2619
     97  O         -2.4990  -29.4600   44.2200 O.2   215  PHE215     -0.2715
     98  CB        -0.6330  -30.9760   43.0380 C.3   215  PHE215      0.0574
     99  CG        -0.2120  -31.8920   41.9370 C.ar  215  PHE215     -0.0200
    100  CD1       -1.2000  -32.5360   41.2050 C.ar  215  PHE215     -0.0042
    101  CD2        1.1380  -32.0490   41.6570 C.ar  215  PHE215     -0.0042
    102  CE1       -0.8070  -33.3570   40.1610 C.ar  215  PHE215     -0.0003
    103  CE2        1.5030  -32.8710   40.6050 C.ar  215  PHE215     -0.0003
    104  CZ         0.5410  -33.5210   39.8600 C.ar  215  PHE215     -0.0000
    105  N         -1.0820  -27.6880   43.9280 N.am  216  ASP216     -0.1971
    106  CA        -1.6740  -26.7530   44.8630 C.3   216  ASP216      0.1709
    107  C         -1.6940  -27.0830   46.3860 C.2   216  ASP216      0.2293
    108  O         -2.5970  -26.7100   47.1630 O.2   216  ASP216     -0.2864
    109  CB        -3.0080  -26.5610   44.1940 C.3   216  ASP216      0.1436
    110  CG        -3.7420  -25.2770   44.3930 C.2   216  ASP216      0.3671
    111  OD1       -3.1870  -24.3650   45.0360 O.co2 216  ASP216     -0.2456
    112  OD2       -4.8810  -25.2490   43.8870 O.co2 216  ASP216     -0.2456
    113  N         10.0530  -37.0420   38.5550 N.3   229  HIS229     -0.1241
    114  CA         8.7580  -36.9150   37.8790 C.3   229  HIS229      0.1621
    115  C          8.8720  -37.5330   36.4990 C.2   229  HIS229      0.2264
    116  O         10.0060  -37.6690   36.0350 O.2   229  HIS229     -0.2867
    117  CB         8.3690  -35.4780   37.6570 C.3   229  HIS229      0.0745
    118  CG         9.2490  -34.7470   36.6340 C.ar  229  HIS229      0.0817
    119  ND1       10.5710  -34.5360   36.6500 N.ar  229  HIS229     -0.2268
    120  CD2        8.7470  -34.1470   35.5040 C.ar  229  HIS229      0.1154
    121  CE1       10.8970  -33.8270   35.5960 C.ar  229  HIS229      0.1986
    122  NE2        9.7870  -33.6090   34.9340 N.ar  229  HIS229     -0.2212
    123  N          6.6580  -37.2310   32.6500 N.3   231  ALA231     -0.1301
    124  CA         5.4570  -36.6480   32.0940 C.3   231  ALA231      0.1247
    125  C          5.2720  -37.3120   30.7620 C.3   231  ALA231      0.2009
    126  O          6.3190  -37.7020   30.2370 O.3   231  ALA231     -0.2188
    127  CB         5.6730  -35.1570   31.8940 C.3   231  ALA231      0.0233
    128  N          1.1710  -36.3240   34.1380 N.3   252  LEU252     -0.1245
    129  CA         2.2910  -35.8910   34.9590 C.3   252  LEU252      0.1561
    130  C          2.2470  -36.7550   36.2040 C.2   252  LEU252      0.2260
    131  O          1.1970  -36.8160   36.8650 O.2   252  LEU252     -0.2867
    132  CB         2.1130  -34.4360   35.3170 C.3   252  LEU252      0.0270
    133  CG         3.1690  -33.6800   36.0950 C.3   252  LEU252      0.0019
    134  CD1        4.5880  -33.7530   35.5040 C.3   252  LEU252      0.0001
    135  CD2        2.6520  -32.2460   36.1280 C.3   252  LEU252      0.0001
    136  N         -1.6130  -36.7740   37.8080 N.3   260  VAL260     -0.1245
    137  CA        -2.7520  -36.2380   37.1380 C.3   260  VAL260      0.1561
    138  C         -2.5690  -36.5750   35.6780 C.2   260  VAL260      0.2260
    139  O         -1.4370  -36.7130   35.1950 O.2   260  VAL260     -0.2867
    140  CB        -2.8110  -34.7540   37.4350 C.3   260  VAL260      0.0252
    141  CG1       -1.6630  -33.9900   36.8760 C.3   260  VAL260      0.0019
    142  CG2       -4.0900  -34.2440   36.8570 C.3   260  VAL260      0.0019
    143  N         -4.6580  -35.2340   32.3340 N.3   262  TYR262     -0.1241
    144  CA        -5.5140  -34.1760   31.8530 C.3   262  TYR262      0.1605
    145  C         -5.6780  -34.3740   30.3500 C.2   262  TYR262      0.2264
    146  O         -4.8790  -35.0620   29.6960 O.2   262  TYR262     -0.2867
    147  CB        -4.9200  -32.8020   32.2530 C.3   262  TYR262      0.0534
    148  CG        -3.4440  -32.5730   32.1130 C.ar  262  TYR262     -0.0201
    149  CD1       -2.5150  -33.3020   32.8280 C.ar  262  TYR262     -0.0009
    150  CD2       -3.0170  -31.6110   31.2220 C.ar  262  TYR262     -0.0009
    151  CE1       -1.1570  -33.0650   32.6340 C.ar  262  TYR262      0.0417
    152  CE2       -1.6550  -31.3520   31.0250 C.ar  262  TYR262      0.0417
    153  CZ        -0.7110  -32.0870   31.7280 C.ar  262  TYR262      0.1957
    154  OH         0.6520  -31.8770   31.5110 O.3   262  TYR262     -0.2866
    155  N         -9.3970  -32.8330   33.8190 N.3   284  ASN284     -0.1240
    156  CA        -8.3870  -33.7400   34.2990 C.3   284  ASN284      0.1653
    157  C         -9.0310  -34.6520   35.3160 C.2   284  ASN284      0.2266
    158  O        -10.2260  -34.5860   35.5830 O.2   284  ASN284     -0.2867
    159  CB        -7.2430  -32.9710   34.9090 C.3   284  ASN284      0.1155
    160  CG        -7.5870  -32.0860   36.0700 C.2   284  ASN284      0.2627
    161  OD1       -8.3100  -32.5050   36.9520 O.2   284  ASN284     -0.2716
    162  ND2       -7.0690  -30.8820   36.1710 N.am  284  ASN284     -0.0877
    163  N         -8.0940  -35.0450   38.6850 N.3   286  LEU286     -0.1245
    164  CA        -7.9440  -34.7790   40.0870 C.3   286  LEU286      0.1561
    165  C         -9.3520  -34.5680   40.6340 C.2   286  LEU286      0.2260
    166  O        -10.1610  -33.8620   40.0350 O.2   286  LEU286     -0.2867
    167  CB        -7.1220  -33.5330   40.3540 C.3   286  LEU286      0.0270
    168  CG        -5.6320  -33.5340   40.0010 C.3   286  LEU286      0.0019
    169  CD1       -4.9810  -32.2680   40.5540 C.3   286  LEU286      0.0001
    170  CD2       -4.9210  -34.7270   40.6150 C.3   286  LEU286      0.0001
    171  N        -11.2540  -32.3150   42.6430 N.3   288  ASN288     -0.1225
    172  CA       -12.2670  -31.2750   42.3560 C.3   288  ASN288      0.1785
    173  C        -12.8870  -31.3840   40.9600 C.2   288  ASN288      0.2597
    174  O        -14.1140  -31.5230   40.8390 O.2   288  ASN288     -0.2718
    175  CB       -11.7160  -29.8110   42.4370 C.3   288  ASN288      0.1169
    176  CG       -12.4430  -28.7220   41.5770 C.2   288  ASN288      0.2627
    177  OD1      -13.5600  -28.2730   41.8630 O.2   288  ASN288     -0.2716
    178  ND2      -11.8770  -28.2400   40.4580 N.am  288  ASN288     -0.0877
    179  N        -11.9500  -31.3390   39.9830 N.am  289  SER289     -0.1952
    180  CA       -12.2050  -31.0840   38.5800 C.3   289  SER289      0.1924
    181  C        -13.5290  -31.3660   37.8270 C.2   289  SER289      0.2314
    182  O        -14.1580  -32.4200   37.5380 O.2   289  SER289     -0.2863
    183  CB       -10.9950  -31.7000   37.9230 C.3   289  SER289      0.2116
    184  OG        -9.8830  -31.0710   38.5770 O.3   289  SER289     -0.2180
@<TRIPOS>BOND
     1    42    41    1
     2    41    40   ar
     3    41    39   ar
     4    40    38   ar
     5    39    37   ar
     6    38    36   ar
     7    37    36   ar
     8    36    35    1
     9    35    32    1
    10    32    31    1
    11    32    33    1
    12    24    30    1
    13    24    25    1
    14    31    26   am
    15    30    29    1
    16   146   145    2
    17    26    25    1
    18    26    27    2
    19   126   125    1
    20    25    28    1
    21   145   144    1
    22    33    34    2
    23    33    43   am
    24    62    61    2
    25    23    22    2
    26   125   124    1
    27    29    28    1
    28    67    65   am
    29    43    44    1
    30    22    21    1
    31   152   150   ar
    32   152   153   ar
    33    61    60    1
    34   150   148   ar
    35     7     6   ar
    36     1     2    1
    37   154   153    1
    38    64    65    1
    39    64    63    1
    40    65    66    2
    41    45    44    1
    42    45    46    2
    43   153   151   ar
    44   144   147    1
    45   144   143    1
    46   127   124    1
    47    44    47    1
    48   124   123    1
    49   148   147    1
    50   148   149   ar
    51    63    60    1
    52    21    20    1
    53    60    59    1
    54     6     5    1
    55     6     8   ar
    56   151   149   ar
    57    47    48    1
    58    20    11   am
    59     2     5    1
    60     2     3    1
    61     9     3   am
    62     9    10    1
    63    11    12    2
    64    11    10    1
    65    13    10    1
    66    13    14    1
    67    51    52    1
    68     3     4    2
    69    49    48    1
    70   155   156    1
    71    48    50    1
    72    14    15    1
    73   128   129    1
    74   156   159    1
    75   156   157    1
    76    53    52    1
    77    53    54    2
    78    57    56    1
    79    52    55    1
    80   159   160    1
    81   122   120   ar
    82   122   121   ar
    83   129   132    1
    84   129   130    1
    85   139   138    2
    86    55    56    1
    87   157   158    2
    88   132   133    1
    89    15    16    1
    90   134   133    1
    91   120   118   ar
    92   121   119   ar
    93   138   137    1
    94    56    58    1
    95    16    17    2
    96   116   115    2
    97   160   162   am
    98   160   161    2
    99   133   135    1
   100    18    17    1
   101   130   131    2
   102    17    19    1
   103   115   114    1
   104   118   119   ar
   105   118   117    1
   106   142   140    1
   107   141   140    1
   108   137   140    1
   109   137   136    1
   110   182   181    2
   111   117   114    1
   112    75    73    1
   113   181   180    1
   114   114   113    1
   115   183   184    1
   116   183   180    1
   117    86    85   ar
   118    86    84   ar
   119   180   179    1
   120   163   164    1
   121    85    83   ar
   122    73    74    1
   123    73    72    1
   124    92    91    1
   125    84    82   ar
   126    93    91    1
   127    68    69    1
   128   104   102   ar
   129   104   103   ar
   130    83    81   ar
   131   179   173   am
   132   168   167    1
   133   168   169    1
   134   168   170    1
   135   166   165    2
   136    72    69    1
   137   164   167    1
   138   164   165    1
   139    91    88    1
   140   102   100   ar
   141    69    70    1
   142    82    81   ar
   143   178   176   am
   144    90    89    2
   145   103   101   ar
   146    81    80    1
   147   174   173    2
   148    88    89    1
   149    88    87    1
   150   173   172    1
   151    89    94   am
   152   100    99   ar
   153   176   177    2
   154   176   175    1
   155    70    71    2
   156   101    99   ar
   157    99    98    1
   158    94    95    1
   159    80    77    1
   160   172   175    1
   161   172   171    1
   162    95    98    1
   163    95    96    1
   164    79    78    2
   165    78    77    1
   166    77    76    1
   167    96   105   am
   168    96    97    2
   169   112   110   ar
   170   105   106    1
   171   109   110    1
   172   109   106    1
   173   110   111   ar
   174   106   107    1
   175   107   108    2
