@<TRIPOS>MOLECULE
tmp/3pouA02.pdb
 92 90 0 0 0
SMALL
GASTEIGER

@<TRIPOS>ATOM
      1  N         26.7040  -19.1990   16.9350 N.3   153  PHE153     -0.1227
      2  CA        27.2190  -18.9850   18.2800 C.3   153  PHE153      0.1736
      3  C         26.9200  -17.5650   18.6960 C.2   153  PHE153      0.2595
      4  O         26.7200  -16.6750   17.8460 O.2   153  PHE153     -0.2718
      5  CB        28.7330  -19.3750   18.4230 C.3   153  PHE153      0.0547
      6  CG        29.7300  -18.3290   17.9460 C.ar  153  PHE153     -0.0202
      7  CD1       30.3580  -18.4590   16.7020 C.ar  153  PHE153     -0.0042
      8  CD2       30.0860  -17.2440   18.7560 C.ar  153  PHE153     -0.0042
      9  CE1       31.3010  -17.4920   16.2460 C.ar  153  PHE153     -0.0003
     10  CE2       31.0350  -16.2690   18.3000 C.ar  153  PHE153     -0.0003
     11  CZ        31.6320  -16.4000   17.0450 C.ar  153  PHE153     -0.0000
     12  N         26.8830  -17.3590   20.0070 N.am  154  ALA154     -0.1966
     13  CA        26.6130  -16.0530   20.5860 C.3   154  ALA154      0.1728
     14  C         27.4170  -15.8960   21.8610 C.2   154  ALA154      0.2616
     15  O         27.8740  -16.8780   22.4600 O.2   154  ALA154     -0.2715
     16  CB        25.1300  -15.8990   20.8540 C.3   154  ALA154      0.0334
     17  N         27.6210  -14.6490   22.2490 N.am  155  VAL155     -0.1977
     18  CA        28.2110  -14.3410   23.5380 C.3   155  VAL155      0.1596
     19  C         27.4350  -13.1450   24.1650 C.2   155  VAL155      0.2287
     20  O         26.9360  -12.2660   23.4520 O.2   155  VAL155     -0.2864
     21  CB        29.7650  -14.1700   23.4340 C.3   155  VAL155      0.0276
     22  CG1       30.1050  -13.0390   22.5500 C.3   155  VAL155      0.0022
     23  CG2       30.4100  -13.9620   24.8200 C.3   155  VAL155      0.0022
     24  N         27.4140  -17.7420   26.8000 N.3   176  GLY176     -0.1210
     25  CA        27.5750  -18.0510   25.4080 C.3   176  GLY176      0.1956
     26  C         26.7900  -19.2590   24.9510 C.2   176  GLY176      0.2613
     27  O         26.2540  -20.0290   25.7730 O.2   176  GLY176     -0.2717
     28  N         26.6970  -19.4080   23.6310 N.am  177  SER177     -0.1938
     29  CA        26.1160  -20.5890   23.0490 C.3   177  SER177      0.2055
     30  C         26.7710  -20.9360   21.7340 C.2   177  SER177      0.2642
     31  O         27.2970  -20.0690   21.0610 O.2   177  SER177     -0.2714
     32  CB        24.5930  -20.4450   22.8900 C.3   177  SER177      0.2130
     33  OG        24.2100  -19.7530   21.7240 O.3   177  SER177     -0.2179
     34  N         26.7620  -22.2270   21.4100 N.am  178  ILE178     -0.1977
     35  CA        27.1310  -22.7420   20.1020 C.3   178  ILE178      0.1596
     36  C         26.0430  -23.7410   19.6880 C.2   178  ILE178      0.2287
     37  O         25.4950  -24.4660   20.5380 O.2   178  ILE178     -0.2864
     38  CB        28.4590  -23.5240   20.1330 C.3   178  ILE178      0.0276
     39  CG1       29.3440  -23.0560   21.2880 C.3   178  ILE178      0.0022
     40  CG2       29.1780  -23.4470   18.7830 C.3   178  ILE178      0.0022
     41  CD1       30.2690  -24.1530   21.8390 C.3   178  ILE178      0.0001
     42  N         24.5980  -26.1590   22.8280 N.3   189  GLY189     -0.1210
     43  CA        25.0770  -26.0570   24.1880 C.3   189  GLY189      0.1956
     44  C         25.0740  -24.6060   24.5590 C.2   189  GLY189      0.2612
     45  O         25.3080  -23.7500   23.7150 O.2   189  GLY189     -0.2717
     46  N         24.7920  -24.3250   25.8250 N.am  190  ALA190     -0.1965
     47  CA        24.8820  -22.9610   26.3460 C.3   190  ALA190      0.1728
     48  C         25.1870  -22.9540   27.8450 C.2   190  ALA190      0.2616
     49  O         24.7500  -23.8530   28.5760 O.2   190  ALA190     -0.2715
     50  CB        23.5960  -22.1430   26.0220 C.3   190  ALA190      0.0334
     51  N         25.9530  -21.9360   28.2620 N.am  191  TYR191     -0.1974
     52  CA        26.4010  -21.7370   29.6450 C.3   191  TYR191      0.1639
     53  C         26.4210  -20.2400   30.0050 C.2   191  TYR191      0.2290
     54  O         26.7370  -19.4010   29.1860 O.2   191  TYR191     -0.2864
     55  CB        27.7970  -22.3470   29.8460 C.3   191  TYR191      0.0560
     56  CG        28.4060  -22.1170   31.2000 C.ar  191  TYR191     -0.0198
     57  CD1       28.2600  -23.0550   32.2080 C.ar  191  TYR191     -0.0009
     58  CD2       29.1350  -20.9430   31.4780 C.ar  191  TYR191     -0.0009
     59  CE1       28.8110  -22.8350   33.4800 C.ar  191  TYR191      0.0417
     60  CE2       29.6880  -20.7130   32.7460 C.ar  191  TYR191      0.0417
     61  CZ        29.5130  -21.6710   33.7320 C.ar  191  TYR191      0.1957
     62  OH        30.0510  -21.4920   34.9680 O.3   191  TYR191     -0.2866
     63  N         24.8590  -20.0610   38.3440 N.3   212  GLU212     -0.1245
     64  CA        25.2480  -20.7200   37.0950 C.3   212  GLU212      0.1567
     65  C         24.1180  -21.4690   36.4700 C.2   212  GLU212      0.2260
     66  O         23.3110  -22.0720   37.1600 O.2   212  GLU212     -0.2867
     67  CB        26.3090  -21.7530   37.3360 C.3   212  GLU212      0.0388
     68  CG        27.6810  -21.2510   37.5330 C.3   212  GLU212      0.1160
     69  CD        28.6430  -22.4190   37.6300 C.2   212  GLU212      0.3649
     70  OE1       28.4260  -23.4600   36.9310 O.co2 212  GLU212     -0.2457
     71  OE2       29.6170  -22.2770   38.4160 O.co2 212  GLU212     -0.2457
     72  N         23.5140  -23.9420   32.7570 N.3   214  TRP214     -0.1241
     73  CA        23.8850  -24.4460   31.4450 C.3   214  TRP214      0.1605
     74  C         22.8500  -25.4440   30.9730 C.2   214  TRP214      0.2264
     75  O         22.1040  -25.9850   31.7920 O.2   214  TRP214     -0.2867
     76  CB        25.2890  -25.0320   31.4530 C.3   214  TRP214      0.0550
     77  CG        25.4870  -26.1990   32.3590 C.ar  214  TRP214      0.0003
     78  CD1       25.8860  -26.1660   33.6550 C.ar  214  TRP214      0.0946
     79  CD2       25.3400  -27.5880   32.0110 C.ar  214  TRP214      0.0152
     80  NE1       25.9800  -27.4450   34.1460 N.ar  214  TRP214     -0.2442
     81  CE2       25.6520  -28.3370   33.1580 C.ar  214  TRP214      0.0810
     82  CE3       24.9780  -28.2690   30.8300 C.ar  214  TRP214      0.0012
     83  CZ2       25.6100  -29.7470   33.1720 C.ar  214  TRP214      0.0191
     84  CZ3       24.9210  -29.6680   30.8450 C.ar  214  TRP214      0.0001
     85  CH2       25.2380  -30.3900   32.0070 C.ar  214  TRP214      0.0015
     86  N         21.9010  -28.3080   27.3970 N.3   216  THR216     -0.1218
     87  CA        22.2630  -28.8540   26.1090 C.3   216  THR216      0.1862
     88  C         20.9480  -29.3600   25.5710 C.2   216  THR216      0.2287
     89  O         20.0060  -29.5190   26.3470 O.2   216  THR216     -0.2866
     90  CB        23.2870  -30.0050   26.2310 C.3   216  THR216      0.1770
     91  OG1       22.7410  -31.0240   27.0640 O.3   216  THR216     -0.2211
     92  CG2       24.5580  -29.5330   26.8690 C.3   216  THR216      0.0375
@<TRIPOS>BOND
     1     9     7   ar
     2     9    11   ar
     3     7     6   ar
     4     1     2    1
     5    11    10   ar
     6     4     3    2
     7     6     5    1
     8     6     8   ar
     9     2     5    1
    10     2     3    1
    11    10     8   ar
    12     3    12   am
    13    40    38    1
    14    36    35    1
    15    36    37    2
    16    12    13    1
    17    35    38    1
    18    35    34    1
    19    38    39    1
    20    13    16    1
    21    13    14    1
    22    31    30    2
    23    39    41    1
    24    34    30   am
    25    33    32    1
    26    30    29    1
    27    14    17   am
    28    14    15    2
    29    17    18    1
    30    22    21    1
    31    42    43    1
    32    32    29    1
    33    29    28    1
    34    21    18    1
    35    21    23    1
    36    20    19    2
    37    18    19    1
    38    28    26   am
    39    45    44    2
    40    43    44    1
    41    44    46   am
    42    26    25    1
    43    26    27    2
    44    25    24    1
    45    88    87    1
    46    88    89    2
    47    46    47    1
    48    50    47    1
    49    87    90    1
    50    87    86    1
    51    90    92    1
    52    90    91    1
    53    47    48    1
    54    48    51   am
    55    48    49    2
    56    51    52    1
    57    54    53    2
    58    52    55    1
    59    52    53    1
    60    55    56    1
    61    82    84   ar
    62    82    79   ar
    63    84    85   ar
    64    74    73    1
    65    74    75    2
    66    56    58   ar
    67    56    57   ar
    68    73    76    1
    69    73    72    1
    70    76    77    1
    71    58    60   ar
    72    85    83   ar
    73    79    77   ar
    74    79    81   ar
    75    57    59   ar
    76    77    78   ar
    77    60    61   ar
    78    81    83   ar
    79    81    80   ar
    80    59    61   ar
    81    78    80   ar
    82    61    62    1
    83    65    64    1
    84    65    66    2
    85    70    69   ar
    86    64    67    1
    87    64    63    1
    88    67    68    1
    89    68    69    1
    90    69    71   ar
